     4
 # iter = 25000  time[fs]=25.00000
   C -0.928318355E+00 -0.303078998E-01  0.489106210E-01
   C  0.104195841E+01 -0.228773585E-01  0.600183424E-02
   H -0.518925744E+01  0.307160888E+00 -0.195690706E+00
   H  0.536495491E+01  0.414194210E+00 -0.415397018E+00
     4
 # iter = 25500  time[fs]=25.50000
   C -0.970620455E+00 -0.328294020E-01  0.515944030E-01
   C  0.108841778E+01 -0.247670107E-01  0.759282056E-02
   H -0.551941058E+01  0.325463639E+00 -0.209108265E+00
   H  0.568361185E+01  0.439422642E+00 -0.441139170E+00
     4
 # iter = 26000  time[fs]=26.00000
   C -0.101730185E+01 -0.353837588E-01  0.543860540E-01
   C  0.113926236E+01 -0.266562039E-01  0.910379158E-02
   H -0.585228523E+01  0.343935792E+00 -0.222640819E+00
   H  0.600491918E+01  0.464870420E+00 -0.467100571E+00
     4
 # iter = 26500  time[fs]=26.50000
   C -0.106797901E+01 -0.379682274E-01  0.572742750E-01
   C  0.119410678E+01 -0.285441087E-01  0.105430648E-01
   H -0.618757685E+01  0.362557710E+00 -0.236275551E+00
   H  0.632859475E+01  0.490514312E+00 -0.493258261E+00
     4
 # iter = 27000  time[fs]=27.00000
   C -0.112229008E+01 -0.405802979E-01  0.602488863E-01
   C  0.125258777E+01 -0.304302352E-01  0.119183037E-01
   H -0.652502888E+01  0.381313050E+00 -0.250001752E+00
   H  0.665439873E+01  0.516334667E+00 -0.519592753E+00
     4
 # iter = 27500  time[fs]=27.50000
   C -0.117989937E+01 -0.432176768E-01  0.633007971E-01
   C  0.131436860E+01 -0.323143329E-01  0.132364544E-01
   H -0.686442321E+01  0.400188062E+00 -0.263810366E+00
   H  0.698212562E+01  0.542314704E+00 -0.546087367E+00
     4
 # iter = 28000  time[fs]=28.00000
   C -0.124049936E+01 -0.458782726E-01  0.664219406E-01
   C  0.137914094E+01 -0.341963148E-01  0.145037398E-01
   H -0.720557292E+01  0.419171057E+00 -0.277693663E+00
   H  0.731159806E+01  0.568439971E+00 -0.572727706E+00
     4
 # iter = 28500  time[fs]=28.50000
   C -0.130381085E+01 -0.485601829E-01  0.696051890E-01
   C  0.144662500E+01 -0.360762032E-01  0.157256900E-01
   H -0.754831662E+01  0.438252013E+00 -0.291644987E+00
   H  0.764266192E+01  0.594697930E+00 -0.599501258E+00
     4
 # iter = 29000  time[fs]=29.00000
   C -0.136958200E+01 -0.512616814E-01  0.728442607E-01
   C  0.151656848E+01 -0.379540893E-01  0.169071929E-01
   H -0.789251402E+01  0.457422265E+00 -0.305658555E+00
   H  0.797518245E+01  0.621077624E+00 -0.626397074E+00
     4
 # iter = 29500  time[fs]=29.50000
   C -0.143758669E+01 -0.539812042E-01  0.761336259E-01
   C  0.158874490E+01 -0.398301061E-01  0.180525539E-01
   H -0.823804248E+01  0.476674271E+00 -0.319729317E+00
   H  0.830904119E+01  0.647569423E+00 -0.653405520E+00
     4
 # iter = 30000  time[fs]=30.00000
   C -0.150762242E+01 -0.567173359E-01  0.794684184E-01
   C  0.166295148E+01 -0.417044089E-01  0.191655587E-01
   H -0.858479409E+01  0.496001422E+00 -0.333852825E+00
   H  0.864413347E+01  0.674164816E+00 -0.680518068E+00
     4
 # iter = 30500  time[fs]=30.50000
   C -0.157950814E+01 -0.594687967E-01  0.828443523E-01
   C  0.173900700E+01 -0.435771618E-01  0.202495331E-01
   H -0.893267352E+01  0.515397894E+00 -0.348025146E+00
   H  0.898036631E+01  0.700856239E+00 -0.707727137E+00
     4
 # iter = 31000  time[fs]=31.00000
   C -0.165308211E+01 -0.622344288E-01  0.862576485E-01
   C  0.181674956E+01 -0.454485296E-01  0.213074002E-01
   H -0.928159605E+01  0.534858525E+00 -0.362242782E+00
   H  0.931765683E+01  0.727636937E+00 -0.735025953E+00
     4
 # iter = 31500  time[fs]=31.50000
   C -0.172819982E+01 -0.650131852E-01  0.897049692E-01
   C  0.189603453E+01 -0.473186719E-01  0.223417310E-01
   H -0.963148613E+01  0.554378717E+00 -0.376502605E+00
   H  0.965593079E+01  0.754500858E+00 -0.762408438E+00
     4
 # iter = 32000  time[fs]=32.00000
   C -0.180473205E+01 -0.678041176E-01  0.931833595E-01
   C  0.197673262E+01 -0.491877397E-01  0.233547900E-01
   H -0.998227607E+01  0.573954359E+00 -0.390801807E+00
   H  0.999512143E+01  0.781442550E+00 -0.789869118E+00
     4
 # iter = 32500  time[fs]=32.50000
   C -0.188256314E+01 -0.706063671E-01  0.966901983E-01
   C  0.205872811E+01 -0.510558740E-01  0.243485752E-01
   H -0.103339050E+02  0.593581756E+00 -0.405137858E+00
   H  0.103351686E+02  0.808457089E+00 -0.817403045E+00
     4
 # iter = 33000  time[fs]=33.00000
   C -0.196158945E+01 -0.734191537E-01  0.100223154E+00
   C  0.214191733E+01 -0.529232047E-01  0.253248529E-01
   H -0.106863180E+02  0.613257576E+00 -0.419508470E+00
   H  0.106760177E+02  0.835540007E+00 -0.845005730E+00
     4
 # iter = 33500  time[fs]=33.50000
   C -0.204171792E+01 -0.762417693E-01  0.103780149E+00
   C  0.222620719E+01 -0.547898504E-01  0.262851883E-01
   H -0.110394654E+02  0.632978805E+00 -0.433911563E+00
   H  0.110176192E+02  0.862687243E+00 -0.872673088E+00
     4
 # iter = 34000  time[fs]=34.00000
   C -0.212286485E+01 -0.790735689E-01  0.107359324E+00
   C  0.231151401E+01 -0.566559185E-01  0.272309711E-01
   H -0.113933019E+02  0.652742703E+00 -0.448345244E+00
   H  0.113599282E+02  0.889895088E+00 -0.900401391E+00
     4
 # iter = 34500  time[fs]=34.50000
   C -0.220495486E+01 -0.819139650E-01  0.110959014E+00
   C  0.239776237E+01 -0.585215063E-01  0.281634383E-01
   H -0.117477864E+02  0.672546776E+00 -0.462807785E+00
   H  0.117029035E+02  0.917160152E+00 -0.928187227E+00
     4
 # iter = 35000  time[fs]=35.00000
   C -0.228791986E+01 -0.847624208E-01  0.114577722E+00
   C  0.248488422E+01 -0.603867011E-01  0.290836938E-01
   H -0.121028813E+02  0.692388743E+00 -0.477297600E+00
   H  0.120465072E+02  0.944479322E+00 -0.956027465E+00
     4
 # iter = 35500  time[fs]=35.50000
   C -0.237169826E+01 -0.876184454E-01  0.118214099E+00
   C  0.257281797E+01 -0.622515812E-01  0.299927249E-01
   H -0.124585523E+02  0.712266517E+00 -0.491813235E+00
   H  0.123907049E+02  0.971849735E+00 -0.983919225E+00
     4
 # iter = 36000  time[fs]=36.00000
   C -0.245623425E+01 -0.904815891E-01  0.121866928E+00
   C  0.266150784E+01 -0.641162165E-01  0.308914167E-01
   H -0.128147676E+02  0.732178178E+00 -0.506353348E+00
   H  0.127354648E+02  0.999268753E+00 -0.101185985E+01
     4
 # iter = 36500  time[fs]=36.50000
   C -0.254147712E+01 -0.933514390E-01  0.125535106E+00
   C  0.275090314E+01 -0.659806696E-01  0.317805647E-01
   H -0.131714983E+02  0.752121959E+00 -0.520916704E+00
   H  0.130807573E+02  0.102673394E+01 -0.103984689E+01
     4
 # iter = 37000  time[fs]=37.00000
   C -0.262738072E+01 -0.962276154E-01  0.129217630E+00
   C  0.284095773E+01 -0.678449959E-01  0.326608854E-01
   H -0.135287174E+02  0.772096231E+00 -0.535502158E+00
   H  0.134265555E+02  0.105424303E+01 -0.106787807E+01
     4
 # iter = 37500  time[fs]=37.50000
   C -0.271390297E+01 -0.991097688E-01  0.132913590E+00
   C  0.293162957E+01 -0.697092449E-01  0.335330259E-01
   H -0.138864001E+02  0.792099485E+00 -0.550108649E+00
   H  0.137728342E+02  0.108179393E+01 -0.109595128E+01
     4
 # iter = 38000  time[fs]=38.00000
   C -0.280100540E+01 -0.101997576E+00  0.136622156E+00
   C  0.302288022E+01 -0.715734604E-01  0.343975715E-01
   H -0.142445236E+02  0.812130323E+00 -0.564735192E+00
   H  0.141195701E+02  0.110938470E+01 -0.112406456E+01
     4
 # iter = 38500  time[fs]=38.50000
   C -0.288865282E+01 -0.104890740E+00  0.140342567E+00
   C  0.311467450E+01 -0.734376814E-01  0.352550532E-01
   H -0.146030665E+02  0.832187446E+00 -0.579380870E+00
   H  0.144667415E+02  0.113701352E+01 -0.115221608E+01
     4
 # iter = 39000  time[fs]=39.00000
   C -0.297681292E+01 -0.107788984E+00  0.144074128E+00
   C  0.320698016E+01 -0.753019422E-01  0.361059533E-01
   H -0.149620090E+02  0.852269648E+00 -0.594044829E+00
   H  0.148143283E+02  0.116467871E+01 -0.118040415E+01
     4
 # iter = 39500  time[fs]=39.50000
   C -0.306545603E+01 -0.110692052E+00  0.147816201E+00
   C  0.329976754E+01 -0.771662733E-01  0.369507111E-01
   H -0.153213326E+02  0.872375801E+00 -0.608726271E+00
   H  0.151623117E+02  0.119237867E+01 -0.120862717E+01
     4
 # iter = 40000  time[fs]=40.00000
   C -0.315455483E+01 -0.113599706E+00  0.151568199E+00
   C  0.339300936E+01 -0.790307014E-01  0.377897276E-01
   H -0.156810202E+02  0.892504855E+00 -0.623424449E+00
   H  0.155106742E+02  0.122011194E+01 -0.123688366E+01
     4
 # iter = 40500  time[fs]=40.50000
   C -0.324408414E+01 -0.116511726E+00  0.155329581E+00
   C  0.348668045E+01 -0.808952502E-01  0.386233692E-01
   H -0.160410557E+02  0.912655828E+00 -0.638138664E+00
   H  0.158593992E+02  0.124787712E+01 -0.126517221E+01
     4
 # iter = 41000  time[fs]=41.00000
   C -0.333402069E+01 -0.119427905E+00  0.159099847E+00
   C  0.358075759E+01 -0.827599405E-01  0.394519714E-01
   H -0.164014241E+02  0.932827798E+00 -0.652868262E+00
   H  0.162084715E+02  0.127567291E+01 -0.129349152E+01
     4
 # iter = 41500  time[fs]=41.50000
   C -0.342434294E+01 -0.122348052E+00  0.162878535E+00
   C  0.367521926E+01 -0.846247904E-01  0.402758423E-01
   H -0.167621112E+02  0.953019904E+00 -0.667612625E+00
   H  0.165578766E+02  0.130349810E+01 -0.132184036E+01
     4
 # iter = 42000  time[fs]=42.00000
   C -0.351503095E+01 -0.125271987E+00  0.166665218E+00
   C  0.377004556E+01 -0.864898160E-01  0.410952650E-01
   H -0.171231039E+02  0.973231333E+00 -0.682371174E+00
   H  0.169076009E+02  0.133135153E+01 -0.135021757E+01
     4
 # iter = 42500  time[fs]=42.50000
   C -0.360606621E+01 -0.128199543E+00  0.170459499E+00
   C  0.386521798E+01 -0.883550309E-01  0.419105001E-01
   H -0.174843898E+02  0.993461325E+00 -0.697143365E+00
   H  0.172576317E+02  0.135923212E+01 -0.137862206E+01
     4
 # iter = 43000  time[fs]=43.00000
   C -0.369743149E+01 -0.131130563E+00  0.174261009E+00
   C  0.396071935E+01 -0.902204475E-01  0.427217879E-01
   H -0.178459571E+02  0.101370916E+01 -0.711928681E+00
   H  0.176079571E+02  0.138713885E+01 -0.140705281E+01
     4
 # iter = 43500  time[fs]=43.50000
   C -0.378911079E+01 -0.134064898E+00  0.178069404E+00
   C  0.405653368E+01 -0.920860759E-01  0.435293505E-01
   H -0.182077950E+02  0.103397416E+01 -0.726726639E+00
   H  0.179585656E+02  0.141507074E+01 -0.143550883E+01
     4
 # iter = 44000  time[fs]=44.00000
   C -0.388108918E+01 -0.137002412E+00  0.181884364E+00
   C  0.415264606E+01 -0.939519254E-01  0.443333933E-01
   H -0.185698930E+02  0.105425570E+01 -0.741536778E+00
   H  0.183094466E+02  0.144302690E+01 -0.146398922E+01
     4
 # iter = 44500  time[fs]=44.50000
   C -0.397335271E+01 -0.139942974E+00  0.185705590E+00
   C  0.424904258E+01 -0.958180034E-01  0.451341066E-01
   H -0.189322414E+02  0.107455315E+01 -0.756358665E+00
   H  0.186605901E+02  0.147100645E+01 -0.149249310E+01
     4
 # iter = 45000  time[fs]=45.00000
   C -0.406588835E+01 -0.142886461E+00  0.189532803E+00
   C  0.434571025E+01 -0.976843166E-01  0.459316670E-01
   H -0.192948309E+02  0.109486597E+01 -0.771191887E+00
   H  0.190119865E+02  0.149900857E+01 -0.152101965E+01
     4
 # iter = 45500  time[fs]=45.50000
   C -0.415868393E+01 -0.145832760E+00  0.193365742E+00
   C  0.444263688E+01 -0.995508705E-01  0.467262384E-01
   H -0.196576528E+02  0.111519359E+01 -0.786036056E+00
   H  0.193636267E+02  0.152703250E+01 -0.154956809E+01
     4
 # iter = 46000  time[fs]=46.00000
   C -0.425172803E+01 -0.148781760E+00  0.197204160E+00
   C  0.453981110E+01 -0.101417669E+00  0.475179736E-01
   H -0.200206988E+02  0.113553552E+01 -0.800890801E+00
   H  0.197155022E+02  0.155507750E+01 -0.157813767E+01
     4
 # iter = 46500  time[fs]=46.50000
   C -0.434500992E+01 -0.151733360E+00  0.201047828E+00
   C  0.463722220E+01 -0.103284717E+00  0.483070146E-01
   H -0.203839610E+02  0.115589127E+01 -0.815755771E+00
   H  0.200676050E+02  0.158314286E+01 -0.160672770E+01
     4
 # iter = 47000  time[fs]=47.00000
   C -0.443851954E+01 -0.154687462E+00  0.204896530E+00
   C  0.473486015E+01 -0.105152017E+00  0.490934942E-01
   H -0.207474321E+02  0.117626037E+01 -0.830630631E+00
   H  0.204199272E+02  0.161122792E+01 -0.163533751E+01
     4
 # iter = 47500  time[fs]=47.50000
   C -0.453224745E+01 -0.157643976E+00  0.208750062E+00
   C  0.483271551E+01 -0.107019571E+00  0.498775362E-01
   H -0.211111050E+02  0.119664238E+01 -0.845515063E+00
   H  0.207724615E+02  0.163933204E+01 -0.166396646E+01
     4
 # iter = 48000  time[fs]=48.00000
   C -0.462618473E+01 -0.160602813E+00  0.212608233E+00
   C  0.493077941E+01 -0.108887382E+00  0.506592563E-01
   H -0.214749729E+02  0.121703689E+01 -0.860408766E+00
   H  0.211252011E+02  0.166745464E+01 -0.169261394E+01
     4
 # iter = 48500  time[fs]=48.50000
   C -0.472032300E+01 -0.163563893E+00  0.216470862E+00
   C  0.502904346E+01 -0.110755449E+00  0.514387630E-01
   H -0.218390295E+02  0.123744351E+01 -0.875311450E+00
   H  0.214781393E+02  0.169559512E+01 -0.172127937E+01
     4
 # iter = 49000  time[fs]=49.00000
   C -0.481465435E+01 -0.166527137E+00  0.220337778E+00
   C  0.512749979E+01 -0.112623774E+00  0.522161577E-01
   H -0.222032686E+02  0.125786184E+01 -0.890222840E+00
   H  0.218312697E+02  0.172375294E+01 -0.174996221E+01
     4
 # iter = 49500  time[fs]=49.50000
   C -0.490917131E+01 -0.169492471E+00  0.224208822E+00
   C  0.522614094E+01 -0.114492358E+00  0.529915359E-01
   H -0.225676846E+02  0.127829154E+01 -0.905142674E+00
   H  0.221845863E+02  0.175192758E+01 -0.177866193E+01
     4
 # iter = 50000  time[fs]=50.00000
   C -0.500386682E+01 -0.172459824E+00  0.228083840E+00
   C  0.532495987E+01 -0.116361200E+00  0.537649869E-01
   H -0.229322718E+02  0.129873226E+01 -0.920070700E+00
   H  0.225380835E+02  0.178011854E+01 -0.180737802E+01
     4
 # iter = 50500  time[fs]=50.50000
   C -0.509873420E+01 -0.175429130E+00  0.231962688E+00
   C  0.542394993E+01 -0.118230300E+00  0.545365950E-01
   H -0.232970251E+02  0.131918366E+01 -0.935006679E+00
   H  0.228917557E+02  0.180832535E+01 -0.183611000E+01
     4
 # iter = 51000  time[fs]=51.00000
   C -0.519376714E+01 -0.178400326E+00  0.235845229E+00
   C  0.552310481E+01 -0.120099657E+00  0.553064391E-01
   H -0.236619394E+02  0.133964543E+01 -0.949950381E+00
   H  0.232455976E+02  0.183654753E+01 -0.186485742E+01
     4
 # iter = 51500  time[fs]=51.50000
   C -0.528895964E+01 -0.181373349E+00  0.239731335E+00
   C  0.562241854E+01 -0.121969271E+00  0.560745940E-01
   H -0.240270098E+02  0.136011728E+01 -0.964901587E+00
   H  0.235996044E+02  0.186478466E+01 -0.189361983E+01
     4
 # iter = 52000  time[fs]=52.00000
   C -0.538430604E+01 -0.184348144E+00  0.243620882E+00
   C  0.572188546E+01 -0.123839140E+00  0.568411298E-01
   H -0.243922319E+02  0.138059891E+01 -0.979860086E+00
   H  0.239537711E+02  0.189303632E+01 -0.192239682E+01
     4
 # iter = 52500  time[fs]=52.50000
   C -0.547980093E+01 -0.187324654E+00  0.247513754E+00
   C  0.582150019E+01 -0.125709263E+00  0.576061129E-01
   H -0.247576011E+02  0.140109006E+01 -0.994825677E+00
   H  0.243080933E+02  0.192130210E+01 -0.195118797E+01
     4
 # iter = 53000  time[fs]=53.00000
   C -0.557543920E+01 -0.190302827E+00  0.251409839E+00
   C  0.592125763E+01 -0.127579638E+00  0.583696058E-01
   H -0.251231133E+02  0.142159044E+01 -0.100979817E+01
   H  0.246625665E+02  0.194958163E+01 -0.197999291E+01
     4
 # iter = 53500  time[fs]=53.50000
   C -0.567121598E+01 -0.193282613E+00  0.255309031E+00
   C  0.602115293E+01 -0.129450264E+00  0.591316679E-01
   H -0.254887645E+02  0.144209982E+01 -0.102477737E+01
   H  0.250171865E+02  0.197787452E+01 -0.200881126E+01
     4
 # iter = 54000  time[fs]=54.00000
   C -0.576712664E+01 -0.196263964E+00  0.259211232E+00
   C  0.612118146E+01 -0.131321139E+00  0.598923550E-01
   H -0.258545508E+02  0.146261795E+01 -0.103976311E+01
   H  0.253719493E+02  0.200618043E+01 -0.203764266E+01
     4
 # iter = 54500  time[fs]=54.50000
   C -0.586316677E+01 -0.199246834E+00  0.263116343E+00
   C  0.622133885E+01 -0.133192260E+00  0.606517203E-01
   H -0.262204686E+02  0.148314459E+01 -0.105475521E+01
   H  0.257268510E+02  0.203449901E+01 -0.206648677E+01
     4
 # iter = 55000  time[fs]=55.00000
   C -0.595933217E+01 -0.202231178E+00  0.267024275E+00
   C  0.632162089E+01 -0.135063627E+00  0.614098138E-01
   H -0.265865141E+02  0.150367953E+01 -0.106975351E+01
   H  0.260818879E+02  0.206282995E+01 -0.209534326E+01
     4
 # iter = 55500  time[fs]=55.50000
   C -0.605561884E+01 -0.205216956E+00  0.270934939E+00
   C  0.642202360E+01 -0.136935237E+00  0.621666834E-01
   H -0.269526841E+02  0.152422254E+01 -0.108475785E+01
   H  0.264370564E+02  0.209117291E+01 -0.212421182E+01
     4
 # iter = 56000  time[fs]=56.00000
   C -0.615202296E+01 -0.208204125E+00  0.274848254E+00
   C  0.652254317E+01 -0.138807087E+00  0.629223741E-01
   H -0.273189753E+02  0.154477342E+01 -0.109976808E+01
   H  0.267923531E+02  0.211952760E+01 -0.215309214E+01
     4
 # iter = 56500  time[fs]=56.50000
   C -0.624854087E+01 -0.211192649E+00  0.278764138E+00
   C  0.662317596E+01 -0.140679176E+00  0.636769289E-01
   H -0.276853845E+02  0.156533198E+01 -0.111478406E+01
   H  0.271477748E+02  0.214789372E+01 -0.218198392E+01
     4
 # iter = 57000  time[fs]=57.00000
   C -0.634516910E+01 -0.214182490E+00  0.282682516E+00
   C  0.672391851E+01 -0.142551500E+00  0.644303886E-01
   H -0.280519086E+02  0.158589801E+01 -0.112980564E+01
   H  0.275033181E+02  0.217627100E+01 -0.221088689E+01
     4
 # iter = 57500  time[fs]=57.50000
   C -0.644190432E+01 -0.217173612E+00  0.286603316E+00
   C  0.682476749E+01 -0.144424058E+00  0.651827920E-01
   H -0.284185448E+02  0.160647133E+01 -0.114483268E+01
   H  0.278589801E+02  0.220465917E+01 -0.223980077E+01
     4
 # iter = 58000  time[fs]=58.00000
   C -0.653874333E+01 -0.220165981E+00  0.290526467E+00
   C  0.692571974E+01 -0.146296848E+00  0.659341759E-01
   H -0.287852903E+02  0.162705178E+01 -0.115986506E+01
   H  0.282147578E+02  0.223305796E+01 -0.226872530E+01
     4
 # iter = 58500  time[fs]=58.50000
   C -0.663568309E+01 -0.223159564E+00  0.294451902E+00
   C  0.702677220E+01 -0.148169866E+00  0.666845756E-01
   H -0.291521424E+02  0.164763917E+01 -0.117490264E+01
   H  0.285706485E+02  0.226146712E+01 -0.229766023E+01
     4
 # iter = 59000  time[fs]=59.00000
   C -0.673272068E+01 -0.226154330E+00  0.298379559E+00
   C  0.712792197E+01 -0.150043111E+00  0.674340246E-01
   H -0.295190984E+02  0.166823334E+01 -0.118994532E+01
   H  0.289266493E+02  0.228988641E+01 -0.232660531E+01
     4
 # iter = 59500  time[fs]=59.50000
   C -0.682985331E+01 -0.229150249E+00  0.302309374E+00
   C  0.722916627E+01 -0.151916579E+00  0.681825546E-01
   H -0.298861558E+02  0.168883413E+01 -0.120499296E+01
   H  0.292827576E+02  0.231831559E+01 -0.235556031E+01
     4
 # iter = 60000  time[fs]=60.00000
   C -0.692707828E+01 -0.232147290E+00  0.306241291E+00
   C  0.733050243E+01 -0.153790269E+00  0.689301963E-01
   H -0.302533123E+02  0.170944138E+01 -0.122004546E+01
   H  0.296389709E+02  0.234675444E+01 -0.238452500E+01
     4
 # iter = 60500  time[fs]=60.50000
   C -0.702439303E+01 -0.235145427E+00  0.310175251E+00
   C  0.743192787E+01 -0.155664178E+00  0.696769787E-01
   H -0.306205655E+02  0.173005496E+01 -0.123510271E+01
   H  0.299952868E+02  0.237520274E+01 -0.241349916E+01
     4
 # iter = 61000  time[fs]=61.00000
   C -0.712179509E+01 -0.238144631E+00  0.314111201E+00
   C  0.753344014E+01 -0.157538304E+00  0.704229295E-01
   H -0.309879131E+02  0.175067471E+01 -0.125016459E+01
   H  0.303517028E+02  0.240366028E+01 -0.244248257E+01
     4
 # iter = 61500  time[fs]=61.50000
   C -0.721928208E+01 -0.241144878E+00  0.318049089E+00
   C  0.763503689E+01 -0.159412643E+00  0.711680754E-01
   H -0.313553530E+02  0.177130050E+01 -0.126523102E+01
   H  0.307082167E+02  0.243212685E+01 -0.247147504E+01
     4
 # iter = 62000  time[fs]=62.00000
   C -0.731685173E+01 -0.244146141E+00  0.321988864E+00
   C  0.773671583E+01 -0.161287193E+00  0.719124416E-01
   H -0.317228830E+02  0.179193220E+01 -0.128030188E+01
   H  0.310648263E+02  0.246060225E+01 -0.250047636E+01
     4
 # iter = 62500  time[fs]=62.50000
   C -0.741450186E+01 -0.247148397E+00  0.325930477E+00
   C  0.783847480E+01 -0.163161953E+00  0.726560524E-01
   H -0.320905012E+02  0.181256966E+01 -0.129537708E+01
   H  0.314215294E+02  0.248908630E+01 -0.252948635E+01
     4
 # iter = 63000  time[fs]=63.00000
   C -0.751223035E+01 -0.250151622E+00  0.329873884E+00
   C  0.794031168E+01 -0.165036919E+00  0.733989312E-01
   H -0.324582055E+02  0.183321278E+01 -0.131045654E+01
   H  0.317783240E+02  0.251757881E+01 -0.255850481E+01
     4
 # iter = 63500  time[fs]=63.50000
   C -0.761003518E+01 -0.253155793E+00  0.333819038E+00
   C  0.804222448E+01 -0.166912089E+00  0.741411001E-01
   H -0.328259942E+02  0.185386142E+01 -0.132554015E+01
   H  0.321352080E+02  0.254607959E+01 -0.258753156E+01
     4
 # iter = 64000  time[fs]=64.00000
   C -0.770791440E+01 -0.256160889E+00  0.337765897E+00
   C  0.814421124E+01 -0.168787461E+00  0.748825804E-01
   H -0.331938652E+02  0.187451547E+01 -0.134062783E+01
   H  0.324921796E+02  0.257458848E+01 -0.261656644E+01
     4
 # iter = 64500  time[fs]=64.50000
   C -0.780586613E+01 -0.259166888E+00  0.341714420E+00
   C  0.824627009E+01 -0.170663032E+00  0.756233927E-01
   H -0.335618170E+02  0.189517482E+01 -0.135571951E+01
   H  0.328492369E+02  0.260310531E+01 -0.264560927E+01
     4
 # iter = 65000  time[fs]=65.00000
   C -0.790388857E+01 -0.262173771E+00  0.345664565E+00
   C  0.834839924E+01 -0.172538800E+00  0.763635564E-01
   H -0.339298476E+02  0.191583935E+01 -0.137081509E+01
   H  0.332063780E+02  0.263162992E+01 -0.267465989E+01
     4
 # iter = 65500  time[fs]=65.50000
   C -0.800197997E+01 -0.265181518E+00  0.349616295E+00
   C  0.845059695E+01 -0.174414762E+00  0.771030905E-01
   H -0.342979555E+02  0.193650896E+01 -0.138591450E+01
   H  0.335636012E+02  0.266016214E+01 -0.270371814E+01
     4
 # iter = 66000  time[fs]=66.00000
   C -0.810013865E+01 -0.268190109E+00  0.353569572E+00
   C  0.855286154E+01 -0.176290916E+00  0.778420130E-01
   H -0.346661391E+02  0.195718355E+01 -0.140101766E+01
   H  0.339209048E+02  0.268870183E+01 -0.273278387E+01
     4
 # iter = 66500  time[fs]=66.50000
   C -0.819836299E+01 -0.271199526E+00  0.357524360E+00
   C  0.865519141E+01 -0.178167260E+00  0.785803411E-01
   H -0.350343968E+02  0.197786301E+01 -0.141612449E+01
   H  0.342782872E+02  0.271724882E+01 -0.276185692E+01
     4
 # iter = 67000  time[fs]=67.00000
   C -0.829665142E+01 -0.274209752E+00  0.361480625E+00
   C  0.875758499E+01 -0.180043791E+00  0.793180917E-01
   H -0.354027271E+02  0.199854725E+01 -0.143123493E+01
   H  0.346357467E+02  0.274580299E+01 -0.279093716E+01
     4
 # iter = 67500  time[fs]=67.50000
   C -0.839500245E+01 -0.277220768E+00  0.365438333E+00
   C  0.886004079E+01 -0.181920507E+00  0.800552807E-01
   H -0.357711285E+02  0.201923618E+01 -0.144634890E+01
   H  0.349932819E+02  0.277436420E+01 -0.282002444E+01
     4
 # iter = 68000  time[fs]=68.00000
   C -0.849341460E+01 -0.280232559E+00  0.369397451E+00
   C  0.896255734E+01 -0.183797407E+00  0.807919236E-01
   H -0.361395995E+02  0.203992969E+01 -0.146146634E+01
   H  0.353508911E+02  0.280293229E+01 -0.284911862E+01
     4
 # iter = 68500  time[fs]=68.50000
   C -0.859188646E+01 -0.283245108E+00  0.373357948E+00
   C  0.906513325E+01 -0.185674486E+00  0.815280350E-01
   H -0.365081389E+02  0.206062771E+01 -0.147658718E+01
   H  0.357085729E+02  0.283150715E+01 -0.287821958E+01
     4
 # iter = 69000  time[fs]=69.00000
   C -0.869041669E+01 -0.286258400E+00  0.377319794E+00
   C  0.916776716E+01 -0.187551744E+00  0.822636294E-01
   H -0.368767452E+02  0.208133015E+01 -0.149171135E+01
   H  0.360663260E+02  0.286008864E+01 -0.290732718E+01
     4
 # iter = 69500  time[fs]=69.50000
   C -0.878900395E+01 -0.289272419E+00  0.381282959E+00
   C  0.927045776E+01 -0.189429179E+00  0.829987204E-01
   H -0.372454171E+02  0.210203692E+01 -0.150683879E+01
   H  0.364241489E+02  0.288867664E+01 -0.293644130E+01
     4
 # iter = 70000  time[fs]=70.00000
   C -0.888764698E+01 -0.292287150E+00  0.385247415E+00
   C  0.937320379E+01 -0.191306787E+00  0.837333213E-01
   H -0.376141535E+02  0.212274794E+01 -0.152196944E+01
   H  0.367820403E+02  0.291727103E+01 -0.296556182E+01
     4
 # iter = 70500  time[fs]=70.50000
   C -0.898634455E+01 -0.295302580E+00  0.389213134E+00
   C  0.947600401E+01 -0.193184567E+00  0.844674449E-01
   H -0.379829530E+02  0.214346313E+01 -0.153710325E+01
   H  0.371399989E+02  0.294587169E+01 -0.299468862E+01
     4
 # iter = 71000  time[fs]=71.00000
   C -0.908509546E+01 -0.298318694E+00  0.393180090E+00
   C  0.957885725E+01 -0.195062518E+00  0.852011033E-01
   H -0.383518144E+02  0.216418241E+01 -0.155224015E+01
   H  0.374980235E+02  0.297447850E+01 -0.302382158E+01
     4
 # iter = 71500  time[fs]=71.50000
   C -0.918389856E+01 -0.301335478E+00  0.397148257E+00
   C  0.968176235E+01 -0.196940635E+00  0.859343086E-01
   H -0.387207366E+02  0.218490572E+01 -0.156738009E+01
   H  0.378561127E+02  0.300309136E+01 -0.305296060E+01
     4
 # iter = 72000  time[fs]=72.00000
   C -0.928275274E+01 -0.304352921E+00  0.401117609E+00
   C  0.978471820E+01 -0.198818919E+00  0.866670720E-01
   H -0.390897186E+02  0.220563297E+01 -0.158252301E+01
   H  0.382142655E+02  0.303171015E+01 -0.308210556E+01
     4
 # iter = 72500  time[fs]=72.50000
   C -0.938165690E+01 -0.307371009E+00  0.405088123E+00
   C  0.988772373E+01 -0.200697366E+00  0.873994047E-01
   H -0.394587590E+02  0.222636409E+01 -0.159766886E+01
   H  0.385724806E+02  0.306033477E+01 -0.311125635E+01
     4
 # iter = 73000  time[fs]=73.00000
   C -0.948061000E+01 -0.310389729E+00  0.409059775E+00
   C  0.999077788E+01 -0.202575975E+00  0.881313173E-01
   H -0.398278570E+02  0.224709903E+01 -0.161281759E+01
   H  0.389307570E+02  0.308896512E+01 -0.314041288E+01
     4
 # iter = 73500  time[fs]=73.50000
   C -0.957961102E+01 -0.313409071E+00  0.413032542E+00
   C  0.100938797E+02 -0.204454744E+00  0.888628201E-01
   H -0.401970114E+02  0.226783770E+01 -0.162796916E+01
   H  0.392890934E+02  0.311760110E+01 -0.316957505E+01
     4
 # iter = 74000  time[fs]=74.00000
   C -0.967865899E+01 -0.316429021E+00  0.417006401E+00
   C  0.101970281E+02 -0.206333671E+00  0.895939229E-01
   H -0.405662213E+02  0.228858005E+01 -0.164312350E+01
   H  0.396474890E+02  0.314624261E+01 -0.319874275E+01
     4
 # iter = 74500  time[fs]=74.50000
   C -0.977775293E+01 -0.319449569E+00  0.420981333E+00
   C  0.103002221E+02 -0.208212753E+00  0.903246355E-01
   H -0.409354857E+02  0.230932601E+01 -0.165828057E+01
   H  0.400059425E+02  0.317488955E+01 -0.322791589E+01
     4
 # iter = 75000  time[fs]=75.00000
   C -0.987689192E+01 -0.322470704E+00  0.424957314E+00
   C  0.104034610E+02 -0.210091990E+00  0.910549671E-01
   H -0.413048035E+02  0.233007551E+01 -0.167344034E+01
   H  0.403644531E+02  0.320354183E+01 -0.325709438E+01
     4
 # iter = 75500  time[fs]=75.50000
   C -0.997607507E+01 -0.325492415E+00  0.428934326E+00
   C  0.105067437E+02 -0.211971378E+00  0.917849267E-01
   H -0.416741740E+02  0.235082850E+01 -0.168860274E+01
   H  0.407230196E+02  0.323219937E+01 -0.328627813E+01
     4
 # iter = 76000  time[fs]=76.00000
   C -0.100753015E+02 -0.328514692E+00  0.432912349E+00
   C  0.106100694E+02 -0.213850918E+00  0.925145229E-01
   H -0.420435960E+02  0.237158492E+01 -0.170376774E+01
   H  0.410816412E+02  0.326086206E+01 -0.331546704E+01
     4
 # iter = 76500  time[fs]=76.50000
   C -0.101745703E+02 -0.331537524E+00  0.436891363E+00
   C  0.107134373E+02 -0.215730605E+00  0.932437642E-01
   H -0.424130689E+02  0.239234472E+01 -0.171893529E+01
   H  0.414403170E+02  0.328952984E+01 -0.334466104E+01
     4
 # iter = 77000  time[fs]=77.00000
   C -0.102738808E+02 -0.334560901E+00  0.440871349E+00
   C  0.108168465E+02 -0.217610440E+00  0.939726587E-01
   H -0.427825917E+02  0.241310782E+01 -0.173410535E+01
   H  0.417990459E+02  0.331820261E+01 -0.337386004E+01
     4
 # iter = 77500  time[fs]=77.50000
   C -0.103732320E+02 -0.337584815E+00  0.444852290E+00
   C  0.109202962E+02 -0.219490419E+00  0.947012142E-01
   H -0.431521635E+02  0.243387419E+01 -0.174927789E+01
   H  0.421578271E+02  0.334688029E+01 -0.340306395E+01
     4
 # iter = 78000  time[fs]=78.00000
   C -0.104726233E+02 -0.340609255E+00  0.448834168E+00
   C  0.110237857E+02 -0.221370542E+00  0.954294384E-01
   H -0.435217836E+02  0.245464376E+01 -0.176445286E+01
   H  0.425166597E+02  0.337556281E+01 -0.343227271E+01
     4
 # iter = 78500  time[fs]=78.50000
   C -0.105720539E+02 -0.343634213E+00  0.452816967E+00
   C  0.111273142E+02 -0.223250807E+00  0.961573386E-01
   H -0.438914511E+02  0.247541649E+01 -0.177963022E+01
   H  0.428755429E+02  0.340425008E+01 -0.346148622E+01
     4
 # iter = 79000  time[fs]=79.00000
   C -0.106715229E+02 -0.346659680E+00  0.456800668E+00
   C  0.112308809E+02 -0.225131211E+00  0.968849221E-01
   H -0.442611653E+02  0.249619232E+01 -0.179480993E+01
   H  0.432344759E+02  0.343294203E+01 -0.349070442E+01
     4
 # iter = 79500  time[fs]=79.50000
   C -0.107710298E+02 -0.349685646E+00  0.460785256E+00
   C  0.113344853E+02 -0.227011754E+00  0.976121957E-01
   H -0.446309254E+02  0.251697121E+01 -0.180999196E+01
   H  0.435934578E+02  0.346163858E+01 -0.351992722E+01
     4
 # iter = 80000  time[fs]=80.00000
   C -0.108705738E+02 -0.352712104E+00  0.464770716E+00
   C  0.114381265E+02 -0.228892434E+00  0.983391662E-01
   H -0.450007306E+02  0.253775311E+01 -0.182517627E+01
   H  0.439524879E+02  0.349033967E+01 -0.354915456E+01
