     4
 # iter = 25000  time[fs]=25.00000
   C -0.104157214E+01  0.518719268E-02  0.165414582E-02
   C  0.986250482E+00 -0.335318172E-01 -0.374331170E-01
   H -0.531256560E+01  0.343260170E+00 -0.576546787E+00
   H  0.527580069E+01 -0.340408270E+00  0.338444661E+00
     4
 # iter = 25500  time[fs]=25.50000
   C -0.109068322E+01  0.470243964E-02  0.430185964E-02
   C  0.102835341E+01 -0.332404202E-01 -0.387341925E-01
   H -0.564826308E+01  0.366345660E+00 -0.612569357E+00
   H  0.559511305E+01 -0.361214077E+00  0.363141311E+00
     4
 # iter = 26000  time[fs]=26.00000
   C -0.114352002E+01  0.427860576E-02  0.704132582E-02
   C  0.107417969E+01 -0.330111183E-01 -0.401187875E-01
   H -0.598661047E+01  0.389622507E+00 -0.648899595E+00
   H  0.591710383E+01 -0.382197129E+00  0.388046836E+00
     4
 # iter = 26500  time[fs]=26.50000
   C -0.119976152E+01  0.390682459E-02  0.986743420E-02
   C  0.112340791E+01 -0.328348600E-01 -0.415828113E-01
   H -0.632731222E+01  0.413069616E+00 -0.685503320E+00
   H  0.624148206E+01 -0.403338554E+00  0.413139285E+00
     4
 # iter = 27000  time[fs]=27.00000
   C -0.125910758E+01  0.357944425E-02  0.127750179E-01
   C  0.117573769E+01 -0.327038458E-01 -0.431219379E-01
   H -0.667011903E+01  0.436669212E+00 -0.722351825E+00
   H  0.656800114E+01 -0.424622346E+00  0.438400046E+00
     4
 # iter = 27500  time[fs]=27.50000
   C -0.132128110E+01  0.328991984E-02  0.157589635E-01
   C  0.123089185E+01 -0.326114113E-01 -0.447317563E-01
   H -0.701481875E+01  0.460406175E+00 -0.759420757E+00
   H  0.689645033E+01 -0.446034819E+00  0.463813192E+00
     4
 # iter = 28000  time[fs]=28.00000
   C -0.138602874E+01  0.303268705E-02  0.188142994E-01
   C  0.128861698E+01 -0.325518947E-01 -0.464078870E-01
   H -0.736122941E+01  0.484267535E+00 -0.796689270E+00
   H  0.722664820E+01 -0.467564175E+00  0.489364984E+00
     4
 # iter = 28500  time[fs]=28.50000
   C -0.145312041E+01  0.280303315E-02  0.219362591E-01
   C  0.134868300E+01 -0.325205024E-01 -0.481460680E-01
   H -0.770919380E+01  0.508242085E+00 -0.834139377E+00
   H  0.755843743E+01 -0.489200174E+00  0.515043486E+00
     4
 # iter = 29000  time[fs]=29.00000
   C -0.152234819E+01  0.259697479E-02  0.251203240E-01
   C  0.141088204E+01 -0.325131841E-01 -0.499422132E-01
   H -0.805857518E+01  0.532320072E+00 -0.871755447E+00
   H  0.789168082E+01 -0.510933870E+00  0.540838261E+00
     4
 # iter = 29500  time[fs]=29.50000
   C -0.159352480E+01  0.241114747E-02  0.283622471E-01
   C  0.147502688E+01 -0.325265187E-01 -0.517924499E-01
   H -0.840925397E+01  0.556492958E+00 -0.909523807E+00
   H  0.822625798E+01 -0.532757402E+00  0.566740123E+00
     4
 # iter = 30000  time[fs]=30.00000
   C -0.166648190E+01  0.224270839E-02  0.316580633E-01
   C  0.154094925E+01 -0.325576156E-01 -0.536931384E-01
   H -0.876112493E+01  0.580753223E+00 -0.947432424E+00
   H  0.856206273E+01 -0.554663826E+00  0.592740949E+00
     4
 # iter = 30500  time[fs]=30.50000
   C -0.174106832E+01  0.208925280E-02  0.350040889E-01
   C  0.160849808E+01 -0.326040293E-01 -0.556408805E-01
   H -0.911409502E+01  0.605094214E+00 -0.985470655E+00
   H  0.889900097E+01 -0.576646974E+00  0.618833516E+00
     4
 # iter = 31000  time[fs]=31.00000
   C -0.181714838E+01  0.194874309E-02  0.383969147E-01
   C  0.167753778E+01 -0.326636871E-01 -0.576325179E-01
   H -0.946808160E+01  0.629510008E+00 -0.102362903E+01
   H  0.923698890E+01 -0.598701349E+00  0.645011375E+00
     4
 # iter = 31500  time[fs]=31.50000
   C -0.189460022E+01  0.181944891E-02  0.418333933E-01
   C  0.174794659E+01 -0.327348285E-01 -0.596651257E-01
   H -0.982301091E+01  0.653995319E+00 -0.106189910E+01
   H  0.957595163E+01 -0.620822022E+00  0.671268737E+00
     4
 # iter = 32000  time[fs]=32.00000
   C -0.197331438E+01  0.169989734E-02  0.453106246E-01
   C  0.181961515E+01 -0.328159543E-01 -0.617360017E-01
   H -0.101788169E+02  0.678545401E+00 -0.110027328E+01
   H  0.991582190E+01 -0.643004564E+00  0.697600394E+00
     4
 # iter = 32500  time[fs]=32.50000
   C -0.205319238E+01  0.158883115E-02  0.488259393E-01
   C  0.189244507E+01 -0.329057845E-01 -0.638426531E-01
   H -0.105354401E+02  0.703155980E+00 -0.113874474E+01
   H  0.102565392E+02 -0.665244977E+00  0.724001636E+00
     4
 # iter = 33000  time[fs]=33.00000
   C -0.213414552E+01  0.148517428E-02  0.523768819E-01
   C  0.196634775E+01 -0.330032229E-01 -0.659827832E-01
   H -0.108928270E+02  0.727823195E+00 -0.117730731E+01
   H  0.105980487E+02 -0.687539639E+00  0.750468191E+00
     4
 # iter = 33500  time[fs]=33.50000
   C -0.221609381E+01  0.138800302E-02  0.559611941E-01
   C  0.204124329E+01 -0.331073281E-01 -0.681542762E-01
   H -0.112509290E+02  0.752543545E+00 -0.121595538E+01
   H  0.109403007E+02 -0.709885259E+00  0.776996175E+00
     4
 # iter = 34000  time[fs]=34.00000
   C -0.229896495E+01  0.129652217E-02  0.595767983E-01
   C  0.211705947E+01 -0.332172895E-01 -0.703551837E-01
   H -0.116097019E+02  0.777313842E+00 -0.125468387E+01
   H  0.112832502E+02 -0.732278840E+00  0.803582042E+00
     4
 # iter = 34500  time[fs]=34.50000
   C -0.238269350E+01  0.121004517E-02  0.632217827E-01
   C  0.219373094E+01 -0.333324065E-01 -0.725837106E-01
   H -0.119691057E+02  0.802131180E+00 -0.129348813E+01
   H  0.116268559E+02 -0.754717640E+00  0.830222546E+00
     4
 # iter = 35000  time[fs]=35.00000
   C -0.246722013E+01  0.112797750E-02  0.668943866E-01
   C  0.227119847E+01 -0.334520723E-01 -0.748382027E-01
   H -0.123291036E+02  0.826992901E+00 -0.133236389E+01
   H  0.119710802E+02 -0.777199148E+00  0.856914712E+00
     4
 # iter = 35500  time[fs]=35.50000
   C -0.255249095E+01  0.104980296E-02  0.705929872E-01
   C  0.234940822E+01 -0.335757598E-01 -0.771171342E-01
   H -0.126896620E+02  0.851896565E+00 -0.137130727E+01
   H  0.123158885E+02 -0.799721057E+00  0.883655800E+00
     4
 # iter = 36000  time[fs]=36.00000
   C -0.263845689E+01  0.975072022E-03  0.743160876E-01
   C  0.242831122E+01 -0.337030095E-01 -0.794190969E-01
   H -0.130507501E+02  0.876839929E+00 -0.141031467E+01
   H  0.126612490E+02 -0.822281243E+00  0.910443286E+00
     4
 # iter = 36500  time[fs]=36.50000
   C -0.272507322E+01  0.903392245E-03  0.780623053E-01
   C  0.250786280E+01 -0.338334201E-01 -0.817427896E-01
   H -0.134123395E+02  0.901820926E+00 -0.144938278E+01
   H  0.130071325E+02 -0.844877745E+00  0.937274838E+00
     4
 # iter = 37000  time[fs]=37.00000
   C -0.281229907E+01  0.834420078E-03  0.818303622E-01
   C  0.258802215E+01 -0.339666401E-01 -0.840870092E-01
   H -0.137744040E+02  0.926837648E+00 -0.148850854E+01
   H  0.133535121E+02 -0.867508751E+00  0.964148296E+00
     4
 # iter = 37500  time[fs]=37.50000
   C -0.290009705E+01  0.767854024E-03  0.856190755E-01
   C  0.266875196E+01 -0.341023607E-01 -0.864506417E-01
   H -0.141369194E+02  0.951888328E+00 -0.152768913E+01
   H  0.137003627E+02 -0.890172579E+00  0.991061657E+00
     4
 # iter = 38000  time[fs]=38.00000
   C -0.298843287E+01  0.703428847E-03  0.894273491E-01
   C  0.275001798E+01 -0.342403102E-01 -0.888326545E-01
   H -0.144998634E+02  0.976971326E+00 -0.156692192E+01
   H  0.140476611E+02 -0.912867671E+00  0.101801306E+01
     4
 # iter = 38500  time[fs]=38.50000
   C -0.307727501E+01  0.640910660E-03  0.932541660E-01
   C  0.283178878E+01 -0.343802488E-01 -0.912320896E-01
   H -0.148632151E+02  0.100208512E+01 -0.160620447E+01
   H  0.143953860E+02 -0.935592574E+00  0.104500076E+01
     4
 # iter = 39000  time[fs]=39.00000
   C -0.316659451E+01  0.580092756E-03  0.970985816E-01
   C  0.291403544E+01 -0.345219642E-01 -0.936480569E-01
   H -0.152269552E+02  0.102722829E+01 -0.164553451E+01
   H  0.147435173E+02 -0.958345937E+00  0.107202316E+01
     4
 # iter = 39500  time[fs]=39.50000
   C -0.325636465E+01  0.520792052E-03  0.100959717E+00
   C  0.299673129E+01 -0.346652684E-01 -0.960797286E-01
   H -0.155910657E+02  0.105239952E+01 -0.168490991E+01
   H  0.150920364E+02 -0.981126498E+00  0.109907873E+01
     4
 # iter = 40000  time[fs]=40.00000
   C -0.334656077E+01  0.462846052E-03  0.104836755E+00
   C  0.307985173E+01 -0.348099945E-01 -0.985263337E-01
   H -0.159555299E+02  0.107759758E+01 -0.172432870E+01
   H  0.154409258E+02 -0.100393308E+01  0.112616607E+01
     4
 # iter = 40500  time[fs]=40.50000
   C -0.343716007E+01  0.406110249E-03  0.108728932E+00
   C  0.316337400E+01 -0.349559938E-01 -0.100987153E+00
   H -0.163203321E+02  0.110282130E+01 -0.176378902E+01
   H  0.157901695E+02 -0.102676457E+01  0.115328384E+01
     4
 # iter = 41000  time[fs]=41.00000
   C -0.352814144E+01  0.350455883E-03  0.112635537E+00
   C  0.324727704E+01 -0.351031337E-01 -0.103461517E+00
   H -0.166854576E+02  0.112806962E+01 -0.180328915E+01
   H  0.161397520E+02 -0.104961994E+01  0.118043082E+01
     4
 # iter = 41500  time[fs]=41.50000
   C -0.361948530E+01  0.295768023E-03  0.116555904E+00
   C  0.333154131E+01 -0.352512958E-01 -0.105948797E+00
   H -0.170508928E+02  0.115334151E+01 -0.184282744E+01
   H  0.164896593E+02 -0.107249822E+01  0.120760581E+01
     4
 # iter = 42000  time[fs]=42.00000
   C -0.371117343E+01  0.241943899E-03  0.120489411E+00
   C  0.341614865E+01 -0.354003741E-01 -0.108448408E+00
   H -0.174166247E+02  0.117863602E+01 -0.188240238E+01
   H  0.168398779E+02 -0.109539849E+01  0.123480774E+01
     4
 # iter = 42500  time[fs]=42.50000
   C -0.380318893E+01  0.188891469E-03  0.124435474E+00
   C  0.350108218E+01 -0.355502735E-01 -0.110959800E+00
   H -0.177826413E+02  0.120395226E+01 -0.192201252E+01
   H  0.171903952E+02 -0.111831990E+01  0.126203556E+01
     4
 # iter = 43000  time[fs]=43.00000
   C -0.389551603E+01  0.136528164E-03  0.128393548E+00
   C  0.358632617E+01 -0.357009088E-01 -0.113482458E+00
   H -0.181489312E+02  0.122928938E+01 -0.196165650E+01
   H  0.175411995E+02 -0.114126163E+01  0.128928829E+01
     4
 # iter = 43500  time[fs]=43.50000
   C -0.398814002E+01  0.847798067E-04  0.132363119E+00
   C  0.367186595E+01 -0.358522032E-01 -0.116015899E+00
   H -0.185154836E+02  0.125464659E+01 -0.200133305E+01
   H  0.178922795E+02 -0.116422291E+01  0.131656502E+01
     4
 # iter = 44000  time[fs]=44.00000
   C -0.408104717E+01  0.335796634E-04  0.136343704E+00
   C  0.375768783E+01 -0.360040876E-01 -0.118559667E+00
   H -0.188822886E+02  0.128002313E+01 -0.204104096E+01
   H  0.182436248E+02 -0.118720303E+01  0.134386487E+01
     4
 # iter = 44500  time[fs]=44.50000
   C -0.417422463E+01 -0.171323848E-04  0.140334850E+00
   C  0.384377899E+01 -0.361564998E-01 -0.121113337E+00
   H -0.192493366E+02  0.130541831E+01 -0.208077908E+01
   H  0.185952254E+02 -0.121020131E+01  0.137118701E+01
     4
 # iter = 45000  time[fs]=45.00000
   C -0.426766037E+01 -0.674105656E-04  0.144336130E+00
   C  0.393012744E+01 -0.363093834E-01 -0.123676505E+00
   H -0.196166185E+02  0.133083144E+01 -0.212054634E+01
   H  0.189470720E+02 -0.123321709E+01  0.139853068E+01
     4
 # iter = 45500  time[fs]=45.50000
   C -0.436134313E+01 -0.117303851E-03  0.148347141E+00
   C  0.401672192E+01 -0.364626875E-01 -0.126248793E+00
   H -0.199841259E+02  0.135626190E+01 -0.216034172E+01
   H  0.192991556E+02 -0.125624977E+01  0.142589511E+01
     4
 # iter = 46000  time[fs]=46.00000
   C -0.445526231E+01 -0.166856519E-03  0.152367503E+00
   C  0.410355190E+01 -0.366163662E-01 -0.128829842E+00
   H -0.203518507E+02  0.138170907E+01 -0.220016425E+01
   H  0.196514680E+02 -0.127929876E+01  0.145327962E+01
     4
 # iter = 46500  time[fs]=46.50000
   C -0.454940798E+01 -0.216108641E-03  0.156396858E+00
   C  0.419060745E+01 -0.367703776E-01 -0.131419315E+00
   H -0.207197852E+02  0.140717240E+01 -0.224001300E+01
   H  0.200040010E+02 -0.130236351E+01  0.148068354E+01
     4
 # iter = 47000  time[fs]=47.00000
   C -0.464377077E+01 -0.265096523E-03  0.160434866E+00
   C  0.427787925E+01 -0.369246840E-01 -0.134016893E+00
   H -0.210879224E+02  0.143265133E+01 -0.227988710E+01
   H  0.203567472E+02 -0.132544350E+01  0.150810622E+01
     4
 # iter = 47500  time[fs]=47.50000
   C -0.473834190E+01 -0.313853089E-03  0.164481205E+00
   C  0.436535851E+01 -0.370792509E-01 -0.136622273E+00
   H -0.214562551E+02  0.145814536E+01 -0.231978572E+01
   H  0.207096994E+02 -0.134853823E+01  0.153554706E+01
     4
 # iter = 48000  time[fs]=48.00000
   C -0.483311304E+01 -0.362408216E-03  0.168535573E+00
   C  0.445303697E+01 -0.372340472E-01 -0.139235170E+00
   H -0.218247771E+02  0.148365398E+01 -0.235970806E+01
   H  0.210628507E+02 -0.137164723E+01  0.156300550E+01
     4
 # iter = 48500  time[fs]=48.50000
   C -0.492807638E+01 -0.410789047E-03  0.172597681E+00
   C  0.454090680E+01 -0.373890443E-01 -0.141855312E+00
   H -0.221934819E+02  0.150917675E+01 -0.239965339E+01
   H  0.214161946E+02 -0.139477005E+01  0.159048098E+01
     4
 # iter = 49000  time[fs]=49.00000
   C -0.502322451E+01 -0.459020252E-03  0.176667256E+00
   C  0.462896064E+01 -0.375442165E-01 -0.144482443E+00
   H -0.225623637E+02  0.153471320E+01 -0.243962097E+01
   H  0.217697250E+02 -0.141790625E+01  0.161797297E+01
     4
 # iter = 49500  time[fs]=49.50000
   C -0.511855044E+01 -0.507124271E-03  0.180744039E+00
   C  0.471719152E+01 -0.376995403E-01 -0.147116318E+00
   H -0.229314170E+02  0.156026291E+01 -0.247961013E+01
   H  0.221234359E+02 -0.144105542E+01  0.164548098E+01
     4
 # iter = 50000  time[fs]=50.00000
   C -0.521404755E+01 -0.555121528E-03  0.184827782E+00
   C  0.480559283E+01 -0.378549940E-01 -0.149756706E+00
   H -0.233006362E+02  0.158582549E+01 -0.251962021E+01
   H  0.224773219E+02 -0.146421718E+01  0.167300454E+01
     4
 # iter = 50500  time[fs]=50.50000
   C -0.530970959E+01 -0.603030621E-03  0.188918252E+00
   C  0.489415834E+01 -0.380105581E-01 -0.152403387E+00
   H -0.236700164E+02  0.161140054E+01 -0.255965059E+01
   H  0.228313774E+02 -0.148739114E+01  0.170054318E+01
     4
 # iter = 51000  time[fs]=51.00000
   C -0.540553060E+01 -0.650868496E-03  0.193015226E+00
   C  0.498288212E+01 -0.381662147E-01 -0.155056150E+00
   H -0.240395525E+02  0.163698770E+01 -0.259970067E+01
   H  0.231855973E+02 -0.151057695E+01  0.172809647E+01
     4
 # iter = 51500  time[fs]=51.50000
   C -0.550150495E+01 -0.698650596E-03  0.197118491E+00
   C  0.507175856E+01 -0.383219476E-01 -0.157714796E+00
   H -0.244092400E+02  0.166258661E+01 -0.263976988E+01
   H  0.235399769E+02 -0.153377428E+01  0.175566399E+01
     4
 # iter = 52000  time[fs]=52.00000
   C -0.559762730E+01 -0.746391003E-03  0.201227846E+00
   C  0.516078233E+01 -0.384777418E-01 -0.160379135E+00
   H -0.247790743E+02  0.168819694E+01 -0.267985767E+01
   H  0.238945113E+02 -0.155698278E+01  0.178324534E+01
     4
 # iter = 52500  time[fs]=52.50000
   C -0.569389257E+01 -0.794102559E-03  0.205343096E+00
   C  0.524994835E+01 -0.386335836E-01 -0.163048986E+00
   H -0.251490513E+02  0.171381836E+01 -0.271996352E+01
   H  0.242491962E+02 -0.158020214E+01  0.181084014E+01
     4
 # iter = 53000  time[fs]=53.00000
   C -0.579029591E+01 -0.841796977E-03  0.209464058E+00
   C  0.533925183E+01 -0.387894606E-01 -0.165724176E+00
   H -0.255191668E+02  0.173945056E+01 -0.276008694E+01
   H  0.246040272E+02 -0.160343208E+01  0.183844803E+01
     4
 # iter = 53500  time[fs]=53.50000
   C -0.588683273E+01 -0.889484945E-03  0.213590557E+00
   C  0.542868816E+01 -0.389453614E-01 -0.168404539E+00
   H -0.258894168E+02  0.176509324E+01 -0.280022744E+01
   H  0.249590003E+02 -0.162667229E+01  0.186606864E+01
     4
 # iter = 54000  time[fs]=54.00000
   C -0.598349866E+01 -0.937176212E-03  0.217722424E+00
   C  0.551825299E+01 -0.391012756E-01 -0.171089918E+00
   H -0.262597978E+02  0.179074613E+01 -0.284038455E+01
   H  0.253141114E+02 -0.164992249E+01  0.189370164E+01
     4
 # iter = 54500  time[fs]=54.50000
   C -0.608028951E+01 -0.984879672E-03  0.221859498E+00
   C  0.560794216E+01 -0.392571936E-01 -0.173780163E+00
   H -0.266303059E+02  0.181640894E+01 -0.288055784E+01
   H  0.256693569E+02 -0.167318244E+01  0.192134671E+01
     4
 # iter = 55000  time[fs]=55.00000
   C -0.617720131E+01 -0.103260344E-02  0.226001627E+00
   C  0.569775170E+01 -0.394131068E-01 -0.176475128E+00
   H -0.270009379E+02  0.184208141E+01 -0.292074688E+01
   H  0.260247331E+02 -0.169645186E+01  0.194900353E+01
     4
 # iter = 55500  time[fs]=55.50000
   C -0.627423026E+01 -0.108035492E-02  0.230148662E+00
   C  0.578767783E+01 -0.395690072E-01 -0.179174675E+00
   H -0.273716904E+02  0.186776330E+01 -0.296095127E+01
   H  0.263802364E+02 -0.171973051E+01  0.197667181E+01
     4
 # iter = 56000  time[fs]=56.00000
   C -0.637137274E+01 -0.112814084E-02  0.234300463E+00
   C  0.587771693E+01 -0.397248874E-01 -0.181878674E+00
   H -0.277425602E+02  0.189345435E+01 -0.300117061E+01
   H  0.267358637E+02 -0.174301816E+01  0.200435125E+01
     4
 # iter = 56500  time[fs]=56.50000
   C -0.646862527E+01 -0.117596737E-02  0.238456896E+00
   C  0.596786556E+01 -0.398807409E-01 -0.184586996E+00
   H -0.281135442E+02  0.191915434E+01 -0.304140451E+01
   H  0.270916116E+02 -0.176631458E+01  0.203204157E+01
     4
 # iter = 57000  time[fs]=57.00000
   C -0.656598454E+01 -0.122384011E-02  0.242617831E+00
   C  0.605812041E+01 -0.400365615E-01 -0.187299520E+00
   H -0.284846395E+02  0.194486305E+01 -0.308165263E+01
   H  0.274474771E+02 -0.178961955E+01  0.205974251E+01
     4
 # iter = 57500  time[fs]=57.50000
   C -0.666344740E+01 -0.127176414E-02  0.246783143E+00
   C  0.614847833E+01 -0.401923437E-01 -0.190016131E+00
   H -0.288558433E+02  0.197058024E+01 -0.312191461E+01
   H  0.278034572E+02 -0.181293286E+01  0.208745381E+01
     4
 # iter = 58000  time[fs]=58.00000
   C -0.676101079E+01 -0.131974411E-02  0.250952713E+00
   C  0.623893629E+01 -0.403480824E-01 -0.192736716E+00
   H -0.292271528E+02  0.199630572E+01 -0.316219010E+01
   H  0.281595491E+02 -0.183625431E+01  0.211517522E+01
     4
 # iter = 58500  time[fs]=58.50000
   C -0.685867182E+01 -0.136778422E-02  0.255126427E+00
   C  0.632949140E+01 -0.405037729E-01 -0.195461167E+00
   H -0.295985655E+02  0.202203929E+01 -0.320247880E+01
   H  0.285157499E+02 -0.185958370E+01  0.214290650E+01
     4
 # iter = 59000  time[fs]=59.00000
   C -0.695642771E+01 -0.141588831E-02  0.259304176E+00
   C  0.642014088E+01 -0.406594110E-01 -0.198189383E+00
   H -0.299700788E+02  0.204778075E+01 -0.324278037E+01
   H  0.288720570E+02 -0.188292084E+01  0.217064742E+01
     4
 # iter = 59500  time[fs]=59.50000
   C -0.705427577E+01 -0.146405985E-02  0.263485852E+00
   C  0.651088208E+01 -0.408149929E-01 -0.200921263E+00
   H -0.303416902E+02  0.207352992E+01 -0.328309453E+01
   H  0.292284679E+02 -0.190626556E+01  0.219839775E+01
     4
 # iter = 60000  time[fs]=60.00000
   C -0.715221345E+01 -0.151230197E-02  0.267671355E+00
   C  0.660171245E+01 -0.409705150E-01 -0.203656712E+00
   H -0.307133975E+02  0.209928661E+01 -0.332342097E+01
   H  0.295849801E+02 -0.192961767E+01  0.222615728E+01
     4
 # iter = 60500  time[fs]=60.50000
   C -0.725023830E+01 -0.156061750E-02  0.271860587E+00
   C  0.669262952E+01 -0.411259742E-01 -0.206395638E+00
   H -0.310851983E+02  0.212505065E+01 -0.336375941E+01
   H  0.299415912E+02 -0.195297700E+01  0.225392581E+01
     4
 # iter = 61000  time[fs]=61.00000
   C -0.734834795E+01 -0.160900901E-02  0.276053454E+00
   C  0.678363097E+01 -0.412813676E-01 -0.209137954E+00
   H -0.314570905E+02  0.215082188E+01 -0.340410960E+01
   H  0.302982989E+02 -0.197634340E+01  0.228170312E+01
     4
 # iter = 61500  time[fs]=61.50000
   C -0.744654013E+01 -0.165747881E-02  0.280249864E+00
   C  0.687471451E+01 -0.414366926E-01 -0.211883574E+00
   H -0.318290719E+02  0.217660013E+01 -0.344447125E+01
   H  0.306551010E+02 -0.199971671E+01  0.230948903E+01
     4
 # iter = 62000  time[fs]=62.00000
   C -0.754481266E+01 -0.170602895E-02  0.284449730E+00
   C  0.696587799E+01 -0.415919467E-01 -0.214632416E+00
   H -0.322011406E+02  0.220238525E+01 -0.348484411E+01
   H  0.310119953E+02 -0.202309676E+01  0.233728335E+01
     4
 # iter = 62500  time[fs]=62.50000
   C -0.764316344E+01 -0.175466129E-02  0.288652969E+00
   C  0.705711932E+01 -0.417471278E-01 -0.217384402E+00
   H -0.325732945E+02  0.222817708E+01 -0.352522795E+01
   H  0.313689798E+02 -0.204648342E+01  0.236508588E+01
     4
 # iter = 63000  time[fs]=63.00000
   C -0.774159046E+01 -0.180337748E-02  0.292859499E+00
   C  0.714843647E+01 -0.419022340E-01 -0.220139455E+00
   H -0.329455317E+02  0.225397548E+01 -0.356562252E+01
   H  0.317260525E+02 -0.206987653E+01  0.239289647E+01
     4
 # iter = 63500  time[fs]=63.50000
   C -0.784009177E+01 -0.185217898E-02  0.297069241E+00
   C  0.723982753E+01 -0.420572636E-01 -0.222897502E+00
   H -0.333178505E+02  0.227978030E+01 -0.360602758E+01
   H  0.320832114E+02 -0.209327597E+01  0.242071494E+01
     4
 # iter = 64000  time[fs]=64.00000
   C -0.793866550E+01 -0.190106709E-02  0.301282120E+00
   C  0.733129062E+01 -0.422122151E-01 -0.225658471E+00
   H -0.336902490E+02  0.230559141E+01 -0.364644293E+01
   H  0.324404546E+02 -0.211668160E+01  0.244854111E+01
     4
 # iter = 64500  time[fs]=64.50000
   C -0.803730986E+01 -0.195004294E-02  0.305498063E+00
   C  0.742282396E+01 -0.423670869E-01 -0.228422296E+00
   H -0.340627254E+02  0.233140867E+01 -0.368686834E+01
   H  0.327977804E+02 -0.214009328E+01  0.247637484E+01
     4
 # iter = 65000  time[fs]=65.00000
   C -0.813602309E+01 -0.199910754E-02  0.309716999E+00
   C  0.751442580E+01 -0.425218779E-01 -0.231188909E+00
   H -0.344352782E+02  0.235723196E+01 -0.372730360E+01
   H  0.331551869E+02 -0.216351089E+01  0.250421597E+01
     4
 # iter = 65500  time[fs]=65.50000
   C -0.823480353E+01 -0.204826173E-02  0.313938860E+00
   C  0.760609449E+01 -0.426765870E-01 -0.233958246E+00
   H -0.348079058E+02  0.238306116E+01 -0.376774851E+01
   H  0.335126726E+02 -0.218693432E+01  0.253206434E+01
     4
 # iter = 66000  time[fs]=66.00000
   C -0.833364956E+01 -0.209750626E-02  0.318163580E+00
   C  0.769782842E+01 -0.428312133E-01 -0.236730247E+00
   H -0.351806064E+02  0.240889613E+01 -0.380820288E+01
   H  0.338702356E+02 -0.221036343E+01  0.255991981E+01
     4
 # iter = 66500  time[fs]=66.50000
   C -0.843255963E+01 -0.214684174E-02  0.322391095E+00
   C  0.778962602E+01 -0.429857559E-01 -0.239504850E+00
   H -0.355533787E+02  0.243473677E+01 -0.384866651E+01
   H  0.342278745E+02 -0.223379812E+01  0.258778224E+01
     4
 # iter = 67000  time[fs]=67.00000
   C -0.853153221E+01 -0.219626870E-02  0.326621344E+00
   C  0.788148581E+01 -0.431402141E-01 -0.242282000E+00
   H -0.359262212E+02  0.246058295E+01 -0.388913922E+01
   H  0.345855876E+02 -0.225723827E+01  0.261565149E+01
     4
 # iter = 67500  time[fs]=67.50000
   C -0.863056587E+01 -0.224578756E-02  0.330854268E+00
   C  0.797340633E+01 -0.432945872E-01 -0.245061639E+00
   H -0.362991324E+02  0.248643458E+01 -0.392962082E+01
   H  0.349433735E+02 -0.228068379E+01  0.264352743E+01
     4
 # iter = 68000  time[fs]=68.00000
   C -0.872965919E+01 -0.229539865E-02  0.335089807E+00
   C  0.806538619E+01 -0.434488748E-01 -0.247843714E+00
   H -0.366721110E+02  0.251229154E+01 -0.397011115E+01
   H  0.353012307E+02 -0.230413455E+01  0.267140992E+01
     4
 # iter = 68500  time[fs]=68.50000
   C -0.882881082E+01 -0.234510221E-02  0.339327908E+00
   C  0.815742403E+01 -0.436030764E-01 -0.250628173E+00
   H -0.370451556E+02  0.253815372E+01 -0.401061004E+01
   H  0.356591578E+02 -0.232759046E+01  0.269929885E+01
     4
 # iter = 69000  time[fs]=69.00000
   C -0.892801944E+01 -0.239489842E-02  0.343568514E+00
   C  0.824951855E+01 -0.437571918E-01 -0.253414965E+00
   H -0.374182649E+02  0.256402104E+01 -0.405111731E+01
   H  0.360171535E+02 -0.235105143E+01  0.272719409E+01
     4
 # iter = 69500  time[fs]=69.50000
   C -0.902728379E+01 -0.244478738E-02  0.347811574E+00
   C  0.834166848E+01 -0.439112205E-01 -0.256204040E+00
   H -0.377914376E+02  0.258989338E+01 -0.409163282E+01
   H  0.363752163E+02 -0.237451735E+01  0.275509552E+01
     4
 # iter = 70000  time[fs]=70.00000
   C -0.912660263E+01 -0.249476914E-02  0.352057037E+00
   C  0.843387259E+01 -0.440651624E-01 -0.258995351E+00
   H -0.381646726E+02  0.261577066E+01 -0.413215641E+01
   H  0.367333451E+02 -0.239798813E+01  0.278300303E+01
     4
 # iter = 70500  time[fs]=70.50000
   C -0.922597477E+01 -0.254484367E-02  0.356304854E+00
   C  0.852612971E+01 -0.442190174E-01 -0.261788853E+00
   H -0.385379686E+02  0.264165278E+01 -0.417268792E+01
   H  0.370915384E+02 -0.242146368E+01  0.281091650E+01
     4
 # iter = 71000  time[fs]=71.00000
   C -0.932539907E+01 -0.259501089E-02  0.360554976E+00
   C  0.861843869E+01 -0.443727854E-01 -0.264584500E+00
   H -0.389113245E+02  0.266753965E+01 -0.421322721E+01
   H  0.374497952E+02 -0.244494392E+01  0.283883582E+01
     4
 # iter = 71500  time[fs]=71.50000
   C -0.942487441E+01 -0.264527068E-02  0.364807358E+00
   C  0.871079842E+01 -0.445264664E-01 -0.267382249E+00
   H -0.392847391E+02  0.269343118E+01 -0.425377414E+01
   H  0.378081143E+02 -0.246842876E+01  0.286676090E+01
     4
 # iter = 72000  time[fs]=72.00000
   C -0.952439971E+01 -0.269562286E-02  0.369061954E+00
   C  0.880320782E+01 -0.446800604E-01 -0.270182058E+00
   H -0.396582114E+02  0.271932729E+01 -0.429432856E+01
   H  0.381664944E+02 -0.249191810E+01  0.289469162E+01
     4
 # iter = 72500  time[fs]=72.50000
   C -0.962397392E+01 -0.274606723E-02  0.373318721E+00
   C  0.889566585E+01 -0.448335674E-01 -0.272983886E+00
   H -0.400317402E+02  0.274522790E+01 -0.433489035E+01
   H  0.385249344E+02 -0.251541189E+01  0.292262788E+01
     4
 # iter = 73000  time[fs]=73.00000
   C -0.972359602E+01 -0.279660352E-02  0.377577616E+00
   C  0.898817150E+01 -0.449869877E-01 -0.275787694E+00
   H -0.404053247E+02  0.277113293E+01 -0.437545938E+01
   H  0.388834333E+02 -0.253891002E+01  0.295056960E+01
     4
 # iter = 73500  time[fs]=73.50000
   C -0.982326503E+01 -0.284723144E-02  0.381838599E+00
   C  0.908072379E+01 -0.451403214E-01 -0.278593442E+00
   H -0.407789636E+02  0.279704229E+01 -0.441603550E+01
   H  0.392419900E+02 -0.256241243E+01  0.297851666E+01
     4
 # iter = 74000  time[fs]=74.00000
   C -0.992298000E+01 -0.289795068E-02  0.386101628E+00
   C  0.917332178E+01 -0.452935687E-01 -0.281401094E+00
   H -0.411526562E+02  0.282295591E+01 -0.445661861E+01
   H  0.396006035E+02 -0.258591905E+01  0.300646898E+01
     4
 # iter = 74500  time[fs]=74.50000
   C -0.100227400E+02 -0.294876087E-02  0.390366665E+00
   C  0.926596453E+01 -0.454467298E-01 -0.284210613E+00
   H -0.415264013E+02  0.284887372E+01 -0.449720858E+01
   H  0.399592727E+02 -0.260942979E+01  0.303442647E+01
     4
 # iter = 75000  time[fs]=75.00000
   C -0.101225441E+02 -0.299966164E-02  0.394633672E+00
   C  0.935865115E+01 -0.455998050E-01 -0.287021964E+00
   H -0.419001981E+02  0.287479564E+01 -0.453780528E+01
   H  0.403179967E+02 -0.263294459E+01  0.306238904E+01
     4
 # iter = 75500  time[fs]=75.50000
   C -0.102223915E+02 -0.305065258E-02  0.398902613E+00
   C  0.945138078E+01 -0.457527945E-01 -0.289835113E+00
   H -0.422740457E+02  0.290072161E+01 -0.457840861E+01
   H  0.406767746E+02 -0.265646338E+01  0.309035661E+01
     4
 # iter = 76000  time[fs]=76.00000
   C -0.103222813E+02 -0.310173325E-02  0.403173451E+00
   C  0.954415257E+01 -0.459056988E-01 -0.292650025E+00
   H -0.426479432E+02  0.292665155E+01 -0.461901846E+01
   H  0.410356053E+02 -0.267998609E+01  0.311832909E+01
     4
 # iter = 76500  time[fs]=76.50000
   C -0.104222127E+02 -0.315290322E-02  0.407446152E+00
   C  0.963696570E+01 -0.460585182E-01 -0.295466670E+00
   H -0.430218898E+02  0.295258539E+01 -0.465963471E+01
   H  0.413944879E+02 -0.270351265E+01  0.314630639E+01
     4
 # iter = 77000  time[fs]=77.00000
   C -0.105221849E+02 -0.320416200E-02  0.411720683E+00
   C  0.972981938E+01 -0.462112529E-01 -0.298285014E+00
   H -0.433958845E+02  0.297852308E+01 -0.470025726E+01
   H  0.417534217E+02 -0.272704301E+01  0.317428845E+01
     4
 # iter = 77500  time[fs]=77.50000
   C -0.106221971E+02 -0.325550911E-02  0.415997009E+00
   C  0.982271283E+01 -0.463639035E-01 -0.301105027E+00
   H -0.437699267E+02  0.300446455E+01 -0.474088600E+01
   H  0.421124058E+02 -0.275057709E+01  0.320227517E+01
     4
 # iter = 78000  time[fs]=78.00000
   C -0.107222485E+02 -0.330694405E-02  0.420275099E+00
   C  0.991564530E+01 -0.465164703E-01 -0.303926680E+00
   H -0.441440154E+02  0.303040974E+01 -0.478152084E+01
   H  0.424714392E+02 -0.277411485E+01  0.323026650E+01
     4
 # iter = 78500  time[fs]=78.50000
   C -0.108223385E+02 -0.335846630E-02  0.424554923E+00
   C  0.100086161E+02 -0.466689538E-01 -0.306749943E+00
   H -0.445181500E+02  0.305635857E+01 -0.482216167E+01
   H  0.428305212E+02 -0.279765621E+01  0.325826234E+01
     4
 # iter = 79000  time[fs]=79.00000
   C -0.109224662E+02 -0.341007532E-02  0.428836448E+00
   C  0.101016244E+02 -0.468213544E-01 -0.309574787E+00
   H -0.448923296E+02  0.308231101E+01 -0.486280839E+01
   H  0.431896509E+02 -0.282120112E+01  0.328626264E+01
     4
 # iter = 79500  time[fs]=79.50000
   C -0.110226311E+02 -0.346177059E-02  0.433119647E+00
   C  0.101946696E+02 -0.469736725E-01 -0.312401186E+00
   H -0.452665536E+02  0.310826699E+01 -0.490346092E+01
   H  0.435488277E+02 -0.284474952E+01  0.331426731E+01
     4
 # iter = 80000  time[fs]=80.00000
   C -0.111228324E+02 -0.351355154E-02  0.437404489E+00
   C  0.102877511E+02 -0.471259087E-01 -0.315229112E+00
   H -0.456408211E+02  0.313422644E+01 -0.494411916E+01
   H  0.439080507E+02 -0.286830136E+01  0.334227629E+01
