     4
 # iter = 25000  time[fs]=25.00000
   C -0.100288756E+01 -0.111320544E-01  0.312700497E-01
   C  0.985917496E+00  0.168288071E-01 -0.221713718E-01
   H -0.523322604E+01 -0.582661512E+00  0.626298837E+00
   H  0.532944527E+01  0.544023556E+00 -0.534805552E+00
     4
 # iter = 25500  time[fs]=25.50000
   C -0.105089811E+01 -0.923624867E-02  0.300859182E-01
   C  0.103002253E+01  0.156717318E-01 -0.201361110E-01
   H -0.556570028E+01 -0.618209051E+00  0.663961922E+00
   H  0.564504183E+01  0.577934573E+00 -0.566069778E+00
     4
 # iter = 26000  time[fs]=26.00000
   C -0.110358861E+01 -0.738494792E-02  0.290035045E-01
   C  0.107881288E+01  0.145620680E-01 -0.182070839E-01
   H -0.590082979E+01 -0.654077173E+00  0.701961204E+00
   H  0.596322914E+01  0.612131295E+00 -0.597616012E+00
     4
 # iter = 26500  time[fs]=26.50000
   C -0.116053827E+01 -0.556622746E-02  0.280031637E-01
   C  0.113186600E+01  0.134873454E-01 -0.163639435E-01
   H -0.623831850E+01 -0.690229636E+00  0.740258437E+00
   H  0.628373244E+01  0.646584026E+00 -0.629414431E+00
     4
 # iter = 27000  time[fs]=27.00000
   C -0.122135084E+01 -0.377039420E-02  0.270684852E-01
   C  0.118878429E+01  0.124374448E-01 -0.145897190E-01
   H -0.657791691E+01 -0.726636115E+00  0.778821636E+00
   H  0.660631816E+01  0.681267557E+00 -0.661439772E+00
     4
 # iter = 27500  time[fs]=27.50000
   C -0.128565974E+01 -0.198971136E-02  0.261859456E-01
   C  0.124920019E+01  0.114042920E-01 -0.128704342E-01
   H -0.691941280E+01 -0.763270967E+00  0.817623775E+00
   H  0.693078608E+01  0.716160292E+00 -0.693670444E+00
     4
 # iter = 28000  time[fs]=28.00000
   C -0.135313017E+01 -0.218096421E-03  0.253445113E-01
   C  0.131277814E+01  0.103815344E-01 -0.111946848E-01
   H -0.726262425E+01 -0.800112309E+00  0.856641804E+00
   H  0.725696334E+01  0.751243588E+00 -0.726087845E+00
     4
 # iter = 28500  time[fs]=28.50000
   C -0.142345926E+01  0.154917001E-02  0.245352430E-01
   C  0.137921469E+01  0.936423445E-02 -0.955322513E-02
   H -0.760739410E+01 -0.837141308E+00  0.895855902E+00
   H  0.758469968E+01  0.786501233E+00 -0.758675830E+00
     4
 # iter = 29000  time[fs]=29.00000
   C -0.149637475E+01  0.331570511E-02  0.237509345E-01
   C  0.144823716E+01  0.834859668E-02 -0.793859314E-02
   H -0.795358571E+01 -0.874341634E+00  0.935248893E+00
   H  0.791386369E+01  0.821919034E+00 -0.791420293E+00
     4
 # iter = 29500  time[fs]=29.50000
   C -0.157163306E+01  0.508424724E-02  0.229857951E-01
   C  0.151960162E+01  0.733173630E-02 -0.634478291E-02
   H -0.830107956E+01 -0.911699033E+00  0.974805798E+00
   H  0.824433978E+01  0.857484496E+00 -0.824308838E+00
     4
 # iter = 30000  time[fs]=30.00000
   C -0.164901680E+01  0.685684127E-02  0.222351820E-01
   C  0.159309044E+01  0.631148702E-02 -0.476696892E-02
   H -0.864977047E+01 -0.949200987E+00  0.101451347E+01
   H  0.857602579E+01  0.893186555E+00 -0.857330507E+00
     4
 # iter = 30500  time[fs]=30.50000
   C -0.172833227E+01  0.863498935E-02  0.214953778E-01
   C  0.166850972E+01  0.528624552E-02 -0.320127758E-02
   H -0.899956546E+01 -0.986836437E+00  0.105436029E+01
   H  0.890883096E+01  0.929015369E+00 -0.890475566E+00
     4
 # iter = 31000  time[fs]=31.00000
   C -0.180940696E+01  0.104197714E-01  0.207634085E-01
   C  0.174568684E+01  0.425484690E-02 -0.164460079E-02
   H -0.935038191E+01 -0.102459557E+01  0.109433597E+01
   H  0.924267432E+01  0.964962139E+00 -0.923735327E+00
     4
 # iter = 31500  time[fs]=31.50000
   C -0.189208719E+01  0.122119410E-01  0.200368968E-01
   C  0.182446801E+01  0.321646610E-02 -0.944450779E-04
   H -0.970214606E+01 -0.106246961E+01  0.113443133E+01
   H  0.957748332E+01  0.100101897E+01 -0.957102004E+00
     4
 # iter = 32000  time[fs]=32.00000
   C -0.197623598E+01  0.140120001E-01  0.193139437E-01
   C  0.190471617E+01  0.217054036E-02  0.145118964E-02
   H -0.100547919E+02 -0.110045074E+01  0.117463814E+01
   H  0.991319273E+01  0.103717873E+01 -0.990568587E+00
     4
 # iter = 32500  time[fs]=32.50000
   C -0.206173101E+01  0.158202582E-01  0.185930336E-01
   C  0.198630896E+01  0.111670851E-02  0.299390723E-02
   H -0.104082599E+02 -0.113853187E+01  0.121494902E+01
   H  0.102497437E+02  0.107343500E+01 -0.102412874E+01
     4
 # iter = 33000  time[fs]=33.00000
   C -0.214846295E+01  0.176368780E-01  0.178729590E-01
   C  0.206913702E+01  0.547635861E-04  0.453499302E-02
   H -0.107624964E+02 -0.117670665E+01  0.125535729E+01
   H  0.105870828E+02  0.110978192E+01 -0.105777674E+01
     4
 # iter = 33500  time[fs]=33.50000
   C -0.223633388E+01  0.194619114E-01  0.171527592E-01
   C  0.215310242E+01 -0.101538405E-02  0.607547597E-02
   H -0.111174530E+02 -0.121496929E+01  0.129585690E+01
   H  0.109251618E+02  0.114621417E+01 -0.109150734E+01
     4
 # iter = 34000  time[fs]=34.00000
   C -0.232525591E+01  0.212953267E-01  0.164316729E-01
   C  0.223811727E+01 -0.209373536E-02  0.761617823E-02
   H -0.114730853E+02 -0.125331455E+01  0.133644238E+01
   H  0.112639364E+02  0.118272690E+01 -0.112531580E+01
     4
 # iter = 34500  time[fs]=34.50000
   C -0.241515004E+01  0.231370302E-01  0.157090988E-01
   C  0.232410256E+01 -0.318022489E-02  0.915775501E-02
   H -0.118293533E+02 -0.129173762E+01  0.137710871E+01
   H  0.116033664E+02  0.121931566E+01 -0.115919776E+01
     4
 # iter = 35000  time[fs]=35.00000
   C -0.250594506E+01  0.249868829E-01  0.149845650E-01
   C  0.241098712E+01 -0.427473805E-02  0.107007264E-01
   H -0.121862201E+02 -0.133023414E+01  0.141785133E+01
   H  0.119434148E+02  0.125597635E+01 -0.119314921E+01
     4
 # iter = 35500  time[fs]=35.50000
   C -0.259757668E+01  0.268447133E-01  0.142577041E-01
   C  0.249870666E+01 -0.537712447E-02  0.122455029E-01
   H -0.125436520E+02 -0.136880010E+01  0.145866603E+01
   H  0.122840477E+02  0.129270521E+01 -0.122716649E+01
     4
 # iter = 36000  time[fs]=36.00000
   C -0.268998671E+01  0.287103272E-01  0.135282332E-01
   C  0.258720302E+01 -0.648720835E-02  0.137924063E-01
   H -0.129016182E+02 -0.140743178E+01  0.149954896E+01
   H  0.126252340E+02  0.132949878E+01 -0.126124621E+01
     4
 # iter = 36500  time[fs]=36.50000
   C -0.278312239E+01  0.305835152E-01  0.127959377E-01
   C  0.267642346E+01 -0.760479647E-02  0.153416860E-01
   H -0.132600902E+02 -0.144612580E+01  0.154049658E+01
   H  0.129669449E+02  0.136635385E+01 -0.129538523E+01
     4
 # iter = 37000  time[fs]=37.00000
   C -0.287693576E+01  0.324640588E-01  0.120606586E-01
   C  0.276632006E+01 -0.872968429E-02  0.168935327E-01
   H -0.136190416E+02 -0.148487902E+01  0.158150561E+01
   H  0.133091537E+02  0.140326744E+01 -0.132958066E+01
     4
 # iter = 37500  time[fs]=37.50000
   C -0.297138315E+01  0.343517347E-01  0.113222817E-01
   C  0.285684918E+01 -0.986166076E-02  0.184480892E-01
   H -0.139784484E+02 -0.152368851E+01  0.162257302E+01
   H  0.136518358E+02  0.144023678E+01 -0.136382981E+01
     4
 # iter = 38000  time[fs]=38.00000
   C -0.306642471E+01  0.362463180E-01  0.105807290E-01
   C  0.294797097E+01 -0.110005118E-01  0.200054593E-01
   H -0.143382878E+02 -0.156255160E+01  0.166369599E+01
   H  0.139949684E+02  0.147725932E+01 -0.139813018E+01
     4
 # iter = 38500  time[fs]=38.50000
   C -0.316202397E+01  0.381475851E-01  0.983595224E-02
   C  0.303964904E+01 -0.121460233E-01  0.215657152E-01
   H -0.146985392E+02 -0.160146577E+01  0.170487191E+01
   H  0.143385302E+02  0.151433267E+01 -0.143247944E+01
     4
 # iter = 39000  time[fs]=39.00000
   C -0.325814756E+01  0.400553153E-01  0.908792674E-02
   C  0.313185002E+01 -0.132979827E-01  0.231289031E-01
   H -0.150591831E+02 -0.164042868E+01  0.174609836E+01
   H  0.146825014E+02  0.155145457E+01 -0.146687543E+01
     4
 # iter = 39500  time[fs]=39.50000
   C -0.335476482E+01  0.419692924E-01  0.833664704E-02
   C  0.322454330E+01 -0.144561811E-01  0.246950481E-01
   H -0.154202013E+02 -0.167943817E+01  0.178737307E+01
   H  0.150268635E+02  0.158862296E+01 -0.150131611E+01
     4
 # iter = 40000  time[fs]=40.00000
   C -0.345184757E+01  0.438893054E-01  0.758212309E-02
   C  0.331770071E+01 -0.156204140E-01  0.262641585E-01
   H -0.157815772E+02 -0.171849219E+01  0.182869393E+01
   H  0.153715994E+02  0.162583587E+01 -0.153579960E+01
     4
 # iter = 40500  time[fs]=40.50000
   C -0.354936983E+01  0.458151495E-01  0.682437718E-02
   C  0.341129632E+01 -0.167904820E-01  0.278362285E-01
   H -0.161432949E+02 -0.175758886E+01  0.187005895E+01
   H  0.157166929E+02  0.166309147E+01 -0.157032410E+01
     4
 # iter = 41000  time[fs]=41.00000
   C -0.364730764E+01  0.477466264E-01  0.606344137E-02
   C  0.350530621E+01 -0.179661919E-01  0.294112416E-01
   H -0.165053396E+02 -0.179672639E+01  0.191146629E+01
   H  0.160621288E+02  0.170038803E+01 -0.160488796E+01
     4
 # iter = 41500  time[fs]=41.50000
   C -0.374563884E+01  0.496835445E-01  0.529935547E-02
   C  0.359970823E+01 -0.191473564E-01  0.309891718E-01
   H -0.168676977E+02 -0.183590310E+01  0.195291421E+01
   H  0.164078931E+02  0.173772395E+01 -0.163948960E+01
     4
 # iter = 42000  time[fs]=42.00000
   C -0.384434292E+01  0.516257192E-01  0.453216532E-02
   C  0.369448191E+01 -0.203337947E-01  0.325699865E-01
   H -0.172303561E+02 -0.187511744E+01  0.199440107E+01
   H  0.167539723E+02  0.177509769E+01 -0.167412755E+01
     4
 # iter = 42500  time[fs]=42.50000
   C -0.394340085E+01  0.535729728E-01  0.376192138E-02
   C  0.378960825E+01 -0.215253324E-01  0.341536473E-01
   H -0.175933027E+02 -0.191436792E+01  0.203592535E+01
   H  0.171003540E+02  0.181250782E+01 -0.170880041E+01
     4
 # iter = 43000  time[fs]=43.00000
   C -0.404279496E+01  0.555251345E-01  0.298867758E-02
   C  0.388506962E+01 -0.227218018E-01  0.357401113E-01
   H -0.179565260E+02 -0.195365315E+01  0.207748559E+01
   H  0.174470263E+02  0.184995298E+01 -0.174350689E+01
     4
 # iter = 43500  time[fs]=43.50000
   C -0.414250881E+01  0.574820404E-01  0.221249043E-02
   C  0.398084959E+01 -0.239230413E-01  0.373293324E-01
   H -0.183200153E+02 -0.199297182E+01  0.211908043E+01
   H  0.177939781E+02  0.188743190E+01 -0.177824573E+01
     4
 # iter = 44000  time[fs]=44.00000
   C -0.424252709E+01  0.594435330E-01  0.143341817E-02
   C  0.407693289E+01 -0.251288958E-01  0.389212619E-01
   H -0.186837603E+02 -0.203232269E+01  0.216070859E+01
   H  0.181411990E+02  0.192494336E+01 -0.181301577E+01
     4
 # iter = 44500  time[fs]=44.50000
   C -0.434283551E+01  0.614094613E-01  0.651520194E-03
   C  0.417330525E+01 -0.263392164E-01  0.405158496E-01
   H -0.190477515E+02 -0.207170459E+01  0.220236885E+01
   H  0.184886790E+02  0.196248621E+01 -0.184781589E+01
     4
 # iter = 45000  time[fs]=45.00000
   C -0.444342073E+01  0.633796808E-01 -0.133143471E-03
   C  0.426995337E+01 -0.275538599E-01  0.421130436E-01
   H -0.194119799E+02 -0.211111642E+01  0.224406006E+01
   H  0.188364086E+02  0.200005937E+01 -0.188264506E+01
     4
 # iter = 45500  time[fs]=45.50000
   C -0.454427028E+01  0.653540526E-01 -0.920512613E-03
   C  0.436686478E+01 -0.287726892E-01  0.437127915E-01
   H -0.197764368E+02 -0.215055712E+01  0.228578114E+01
   H  0.191843791E+02  0.203766181E+01 -0.191750227E+01
     4
 # iter = 46000  time[fs]=46.00000
   C -0.464537246E+01  0.673324439E-01 -0.171052716E-02
   C  0.446402783E+01 -0.299955726E-01  0.453150406E-01
   H -0.201411141E+02 -0.219002571E+01  0.232753104E+01
   H  0.195325820E+02  0.207529254E+01 -0.195238658E+01
     4
 # iter = 46500  time[fs]=46.50000
   C -0.474671632E+01  0.693147272E-01 -0.250312744E-02
   C  0.456143159E+01 -0.312223838E-01  0.469197380E-01
   H -0.205060041E+02 -0.222952123E+01  0.236930880E+01
   H  0.198810093E+02  0.211295064E+01 -0.198729710E+01
     4
 # iter = 47000  time[fs]=47.00000
   C -0.484829157E+01  0.713007805E-01 -0.329825446E-02
   C  0.465906579E+01 -0.324530016E-01  0.485268310E-01
   H -0.208710996E+02 -0.226904279E+01  0.241111348E+01
   H  0.202296535E+02  0.215063522E+01 -0.202223296E+01
     4
 # iter = 47500  time[fs]=47.50000
   C -0.495008855E+01  0.732904869E-01 -0.409584999E-02
   C  0.475692079E+01 -0.336873099E-01  0.501362674E-01
   H -0.212363935E+02 -0.230858954E+01  0.245294420E+01
   H  0.205785072E+02  0.218834543E+01 -0.205719335E+01
     4
 # iter = 48000  time[fs]=48.00000
   C -0.505209816E+01  0.752837341E-01 -0.489585679E-02
   C  0.485498752E+01 -0.349251971E-01  0.517479956E-01
   H -0.216018794E+02 -0.234816067E+01  0.249480011E+01
   H  0.209275637E+02  0.222608048E+01 -0.209217751E+01
     4
 # iter = 48500  time[fs]=48.50000
   C -0.515431185E+01  0.772804147E-01 -0.569821867E-02
   C  0.495325744E+01 -0.361665563E-01  0.533619645E-01
   H -0.219675508E+02 -0.238775540E+01  0.253668042E+01
   H  0.212768165E+02  0.226383961E+01 -0.212718470E+01
     4
 # iter = 49000  time[fs]=49.00000
   C -0.525672153E+01  0.792804256E-01 -0.650288057E-02
   C  0.505172249E+01 -0.374112848E-01  0.549781242E-01
   H -0.223334020E+02 -0.242737301E+01  0.257858436E+01
   H  0.216262592E+02  0.230162206E+01 -0.216221420E+01
     4
 # iter = 49500  time[fs]=49.50000
   C -0.535931958E+01  0.812836680E-01 -0.730978867E-02
   C  0.515037507E+01 -0.386592842E-01  0.565964255E-01
   H -0.226994271E+02 -0.246701278E+01  0.262051120E+01
   H  0.219758860E+02  0.233942716E+01 -0.219726536E+01
     4
 # iter = 50000  time[fs]=50.00000
   C -0.546209881E+01  0.832900470E-01 -0.811889034E-02
   C  0.524920800E+01 -0.399104599E-01  0.582168200E-01
   H -0.230656207E+02 -0.250667405E+01  0.266246026E+01
   H  0.223256913E+02  0.237725424E+01 -0.223233752E+01
     4
 # iter = 50500  time[fs]=50.50000
   C -0.556505241E+01  0.852994717E-01 -0.893013428E-02
   C  0.534821451E+01 -0.411647209E-01  0.598392607E-01
   H -0.234319777E+02 -0.254635618E+01  0.270443086E+01
   H  0.226756695E+02  0.241510265E+01 -0.226743007E+01
     4
 # iter = 51000  time[fs]=51.00000
   C -0.566817395E+01  0.873118546E-01 -0.974347042E-02
   C  0.544738815E+01 -0.424219802E-01  0.614637014E-01
   H -0.237984932E+02 -0.258605855E+01  0.274642238E+01
   H  0.230258157E+02  0.245297178E+01 -0.230254243E+01
     4
 # iter = 51500  time[fs]=51.50000
   C -0.577145730E+01  0.893271120E-01 -0.105588500E-01
   C  0.554672286E+01 -0.436821539E-01  0.630900971E-01
   H -0.241651624E+02 -0.262578059E+01  0.278843421E+01
   H  0.233761247E+02  0.249086106E+01 -0.233767404E+01
     4
 # iter = 52000  time[fs]=52.00000
   C -0.587489671E+01  0.913451633E-01 -0.113762257E-01
   C  0.564621286E+01 -0.449451614E-01  0.647184037E-01
   H -0.245319808E+02 -0.266552173E+01  0.283046576E+01
   H  0.237265920E+02  0.252876991E+01 -0.237282436E+01
     4
 # iter = 52500  time[fs]=52.50000
   C -0.597848666E+01  0.933659310E-01 -0.121955512E-01
   C  0.574585268E+01 -0.462109253E-01  0.663485785E-01
   H -0.248989441E+02 -0.270528143E+01  0.287251648E+01
   H  0.240772129E+02  0.256669781E+01 -0.240799286E+01
     4
 # iter = 53000  time[fs]=53.00000
   C -0.608222196E+01  0.953893407E-01 -0.130167816E-01
   C  0.584563712E+01 -0.474793711E-01  0.679805796E-01
   H -0.252660481E+02 -0.274505918E+01  0.291458584E+01
   H  0.244279832E+02  0.260464424E+01 -0.244317906E+01
     4
 # iter = 53500  time[fs]=53.50000
   C -0.618609764E+01  0.974153210E-01 -0.138398733E-01
   C  0.594556125E+01 -0.487504271E-01  0.696143664E-01
   H -0.256332890E+02 -0.278485450E+01  0.295667333E+01
   H  0.247788988E+02  0.264260871E+01 -0.247838249E+01
     4
 # iter = 54000  time[fs]=54.00000
   C -0.629010899E+01  0.994438031E-01 -0.146647839E-01
   C  0.604562037E+01 -0.500240245E-01  0.712498992E-01
   H -0.260006628E+02 -0.282466690E+01  0.299877847E+01
   H  0.251299555E+02  0.268059073E+01 -0.251360267E+01
     4
 # iter = 54500  time[fs]=54.50000
   C -0.639425154E+01  0.101474721E+00 -0.154914721E-01
   C  0.614581001E+01 -0.513000967E-01  0.728871396E-01
   H -0.263681660E+02 -0.286449592E+01  0.304090077E+01
   H  0.254811497E+02  0.271858986E+01 -0.254883919E+01
     4
 # iter = 55000  time[fs]=55.00000
   C -0.649852101E+01  0.103508010E+00 -0.163198979E-01
   C  0.624612591E+01 -0.525785799E-01  0.745260499E-01
   H -0.267357951E+02 -0.290434115E+01  0.308303978E+01
   H  0.258324776E+02  0.275660565E+01 -0.258409161E+01
     4
 # iter = 55500  time[fs]=55.50000
   C -0.660291332E+01  0.105543610E+00 -0.171500224E-01
   C  0.634656402E+01 -0.538594125E-01  0.761665938E-01
   H -0.271035467E+02 -0.294420215E+01  0.312519508E+01
   H  0.261839357E+02  0.279463769E+01 -0.261935954E+01
     4
 # iter = 56000  time[fs]=56.00000
   C -0.670742459E+01  0.107581461E+00 -0.179818079E-01
   C  0.644712045E+01 -0.551425352E-01  0.778087357E-01
   H -0.274714176E+02 -0.298407852E+01  0.316736625E+01
   H  0.265355206E+02  0.283268557E+01 -0.265464257E+01
     4
 # iter = 56500  time[fs]=56.50000
   C -0.681205111E+01  0.109621507E+00 -0.188152176E-01
   C  0.654779153E+01 -0.564278906E-01  0.794524412E-01
   H -0.278394047E+02 -0.302396988E+01  0.320955289E+01
   H  0.268872292E+02  0.287074889E+01 -0.268994034E+01
     4
 # iter = 57000  time[fs]=57.00000
   C -0.691678935E+01  0.111663692E+00 -0.196502159E-01
   C  0.664857372E+01 -0.577154238E-01  0.810976766E-01
   H -0.282075050E+02 -0.306387585E+01  0.325175460E+01
   H  0.272390582E+02  0.290882728E+01 -0.272525249E+01
     4
 # iter = 57500  time[fs]=57.50000
   C -0.702163592E+01  0.113707963E+00 -0.204867683E-01
   C  0.674946364E+01 -0.590050813E-01  0.827444095E-01
   H -0.285757157E+02 -0.310379608E+01  0.329397102E+01
   H  0.275910046E+02  0.294692037E+01 -0.276057867E+01
     4
 # iter = 58000  time[fs]=58.00000
   C -0.712658758E+01  0.115754271E+00 -0.213248411E-01
   C  0.685045808E+01 -0.602968119E-01  0.843926080E-01
   H -0.289440339E+02 -0.314373021E+01  0.333620179E+01
   H  0.279430655E+02  0.298502783E+01 -0.279591853E+01
     4
 # iter = 58500  time[fs]=58.50000
   C -0.723164124E+01  0.117802564E+00 -0.221644018E-01
   C  0.695155396E+01 -0.615905660E-01  0.860422414E-01
   H -0.293124571E+02 -0.318367791E+01  0.337844656E+01
   H  0.282952382E+02  0.302314930E+01 -0.283127177E+01
     4
 # iter = 59000  time[fs]=59.00000
   C -0.733679393E+01  0.119852797E+00 -0.230054186E-01
   C  0.705274830E+01 -0.628862957E-01  0.876932798E-01
   H -0.296809827E+02 -0.322363886E+01  0.342070500E+01
   H  0.286475200E+02  0.306128446E+01 -0.286663806E+01
     4
 # iter = 59500  time[fs]=59.50000
   C -0.744204281E+01  0.121904922E+00 -0.238478608E-01
   C  0.715403830E+01 -0.641839547E-01  0.893456939E-01
   H -0.300496082E+02 -0.326361275E+01  0.346297679E+01
   H  0.289999081E+02  0.309943301E+01 -0.290201711E+01
     4
 # iter = 60000  time[fs]=60.00000
   C -0.754738515E+01  0.123958895E+00 -0.246916984E-01
   C  0.725542122E+01 -0.654834984E-01  0.909994555E-01
   H -0.304183312E+02 -0.330359929E+01  0.350526162E+01
   H  0.293524002E+02  0.313759462E+01 -0.293740862E+01
     4
 # iter = 60500  time[fs]=60.50000
   C -0.765281835E+01  0.126014675E+00 -0.255369025E-01
   C  0.735689448E+01 -0.667848836E-01  0.926545371E-01
   H -0.307871495E+02 -0.334359817E+01  0.354755920E+01
   H  0.297049938E+02  0.317576902E+01 -0.297281231E+01
     4
 # iter = 61000  time[fs]=61.00000
   C -0.775833990E+01  0.128072218E+00 -0.263834449E-01
   C  0.745845558E+01 -0.680880685E-01  0.943109119E-01
   H -0.311560607E+02 -0.338360913E+01  0.358986922E+01
   H  0.300576865E+02  0.321395591E+01 -0.300822791E+01
     4
 # iter = 61500  time[fs]=61.50000
   C -0.786394740E+01  0.130131486E+00 -0.272312981E-01
   C  0.756010212E+01 -0.693930126E-01  0.959685538E-01
   H -0.315250629E+02 -0.342363188E+01  0.363219141E+01
   H  0.304104762E+02  0.325215503E+01 -0.304365516E+01
     4
 # iter = 62000  time[fs]=62.00000
   C -0.796963853E+01  0.132192439E+00 -0.280804355E-01
   C  0.766183181E+01 -0.706996770E-01  0.976274376E-01
   H -0.318941539E+02 -0.346366618E+01  0.367452551E+01
   H  0.307633606E+02  0.329036610E+01 -0.307909380E+01
     4
 # iter = 62500  time[fs]=62.50000
   C -0.807541107E+01  0.134255040E+00 -0.289308313E-01
   C  0.776364242E+01 -0.720080237E-01  0.992875386E-01
   H -0.322633316E+02 -0.350371176E+01  0.371687124E+01
   H  0.311163376E+02  0.332858888E+01 -0.311454359E+01
     4
 # iter = 63000  time[fs]=63.00000
   C -0.818126289E+01  0.136319253E+00 -0.297824602E-01
   C  0.786553183E+01 -0.733180162E-01  0.100948833E+00
   H -0.326325943E+02 -0.354376839E+01  0.375922837E+01
   H  0.314694051E+02  0.336682310E+01 -0.315000429E+01
     4
 # iter = 63500  time[fs]=63.50000
   C -0.828719193E+01  0.138385043E+00 -0.306352978E-01
   C  0.796749800E+01 -0.746296190E-01  0.102611297E+00
   H -0.330019400E+02 -0.358383582E+01  0.380159664E+01
   H  0.318225613E+02  0.340506853E+01 -0.318547567E+01
     4
 # iter = 64000  time[fs]=64.00000
   C -0.839319622E+01  0.140452375E+00 -0.314893203E-01
   C  0.806953896E+01 -0.759427977E-01  0.104274909E+00
   H -0.333713669E+02 -0.362391383E+01  0.384397581E+01
   H  0.321758041E+02  0.344332494E+01 -0.322095750E+01
     4
 # iter = 64500  time[fs]=64.50000
   C -0.849927385E+01  0.142521217E+00 -0.323445047E-01
   C  0.817165282E+01 -0.772575191E-01  0.105939646E+00
   H -0.337408732E+02 -0.366400219E+01  0.388636566E+01
   H  0.325291318E+02  0.348159210E+01 -0.325644957E+01
     4
 # iter = 65000  time[fs]=65.00000
   C -0.860542299E+01  0.144591536E+00 -0.332008283E-01
   C  0.827383774E+01 -0.785737508E-01  0.107605487E+00
   H -0.341104573E+02 -0.370410069E+01  0.392876596E+01
   H  0.328825426E+02  0.351986980E+01 -0.329195168E+01
     4
 # iter = 65500  time[fs]=65.50000
   C -0.871164187E+01  0.146663303E+00 -0.340582694E-01
   C  0.837609198E+01 -0.798914616E-01  0.109272410E+00
   H -0.344801176E+02 -0.374420913E+01  0.397117651E+01
   H  0.332360346E+02  0.355815781E+01 -0.332746360E+01
     4
 # iter = 66000  time[fs]=66.00000
   C -0.881792879E+01  0.148736486E+00 -0.349168066E-01
   C  0.847841382E+01 -0.812106211E-01  0.110940397E+00
   H -0.348498524E+02 -0.378432730E+01  0.401359709E+01
   H  0.335896063E+02  0.359645593E+01 -0.336298516E+01
     4
 # iter = 66500  time[fs]=66.50000
   C -0.892428210E+01  0.150811057E+00 -0.357764193E-01
   C  0.858080165E+01 -0.825311999E-01  0.112609426E+00
   H -0.352196601E+02 -0.382445500E+01  0.405602749E+01
   H  0.339432560E+02  0.363476397E+01 -0.339851615E+01
     4
 # iter = 67000  time[fs]=67.00000
   C -0.903070023E+01  0.152886988E+00 -0.366370872E-01
   C  0.868325388E+01 -0.838531694E-01  0.114279478E+00
   H -0.355895394E+02 -0.386459204E+01  0.409846753E+01
   H  0.342969821E+02  0.367308172E+01 -0.343405640E+01
     4
 # iter = 67500  time[fs]=67.50000
   C -0.913718164E+01  0.154964251E+00 -0.374987907E-01
   C  0.878576899E+01 -0.851765019E-01  0.115950536E+00
   H -0.359594888E+02 -0.390473825E+01  0.414091701E+01
   H  0.346507831E+02  0.371140901E+01 -0.346960572E+01
     4
 # iter = 68000  time[fs]=68.00000
   C -0.924372484E+01  0.157042820E+00 -0.383615108E-01
   C  0.888834550E+01 -0.865011705E-01  0.117622579E+00
   H -0.363295068E+02 -0.394489344E+01  0.418337575E+01
   H  0.350046575E+02  0.374974564E+01 -0.350516393E+01
     4
 # iter = 68500  time[fs]=68.50000
   C -0.935032843E+01  0.159122668E+00 -0.392252288E-01
   C  0.899098200E+01 -0.878271490E-01  0.119295592E+00
   H -0.366995921E+02 -0.398505743E+01  0.422584357E+01
   H  0.353586039E+02  0.378809143E+01 -0.354073087E+01
     4
 # iter = 69000  time[fs]=69.00000
   C -0.945699101E+01  0.161203771E+00 -0.400899266E-01
   C  0.909367711E+01 -0.891544121E-01  0.120969555E+00
   H -0.370697433E+02 -0.402523007E+01  0.426832029E+01
   H  0.357126208E+02  0.382644623E+01 -0.357630637E+01
     4
 # iter = 69500  time[fs]=69.50000
   C -0.956371125E+01  0.163286105E+00 -0.409555865E-01
   C  0.919642951E+01 -0.904829350E-01  0.122644453E+00
   H -0.374399593E+02 -0.406541117E+01  0.431080575E+01
   H  0.360667069E+02  0.386480985E+01 -0.361189027E+01
     4
 # iter = 70000  time[fs]=70.00000
   C -0.967048787E+01  0.165369645E+00 -0.418221914E-01
   C  0.929923792E+01 -0.918126938E-01  0.124320269E+00
   H -0.378102387E+02 -0.410560060E+01  0.435329977E+01
   H  0.364208608E+02  0.390318214E+01 -0.364748242E+01
     4
 # iter = 70500  time[fs]=70.50000
   C -0.977731961E+01  0.167454370E+00 -0.426897245E-01
   C  0.940210109E+01 -0.931436651E-01  0.125996987E+00
   H -0.381805803E+02 -0.414579818E+01  0.439580221E+01
   H  0.367750814E+02  0.394156293E+01 -0.368308266E+01
     4
 # iter = 71000  time[fs]=71.00000
   C -0.988420526E+01  0.169540255E+00 -0.435581694E-01
   C  0.950501781E+01 -0.944758264E-01  0.127674591E+00
   H -0.385509830E+02 -0.418600378E+01  0.443831290E+01
   H  0.371293672E+02  0.397995208E+01 -0.371869085E+01
     4
 # iter = 71500  time[fs]=71.50000
   C -0.999114367E+01  0.171627281E+00 -0.444275103E-01
   C  0.960798694E+01 -0.958091555E-01  0.129353065E+00
   H -0.389214456E+02 -0.422621724E+01  0.448083169E+01
   H  0.374837172E+02  0.401834942E+01 -0.375430684E+01
     4
 # iter = 72000  time[fs]=72.00000
   C -0.100981337E+02  0.173715425E+00 -0.452977316E-01
   C  0.971100734E+01 -0.971436310E-01  0.131032396E+00
   H -0.392919670E+02 -0.426643842E+01  0.452335844E+01
   H  0.378381302E+02  0.405675482E+01 -0.378993049E+01
     4
 # iter = 72500  time[fs]=72.50000
   C -0.102051742E+02  0.175804667E+00 -0.461688181E-01
   C  0.981407792E+01 -0.984792320E-01  0.132712568E+00
   H -0.396625461E+02 -0.430666718E+01  0.456589301E+01
   H  0.381926049E+02  0.409516813E+01 -0.382556167E+01
     4
 # iter = 73000  time[fs]=73.00000
   C -0.103122643E+02  0.177894988E+00 -0.470407552E-01
   C  0.991719763E+01 -0.998159383E-01  0.134393567E+00
   H -0.400331818E+02 -0.434690339E+01  0.460843524E+01
   H  0.385471403E+02  0.413358922E+01 -0.386120024E+01
     4
 # iter = 73500  time[fs]=73.50000
   C -0.104194027E+02  0.179986367E+00 -0.479135285E-01
   C  0.100203654E+02 -0.101153730E+00  0.136075379E+00
   H -0.404038732E+02 -0.438714692E+01  0.465098502E+01
   H  0.389017353E+02  0.417201794E+01 -0.389684607E+01
     4
 # iter = 74000  time[fs]=74.00000
   C -0.105265886E+02  0.182078785E+00 -0.487871238E-01
   C  0.101235804E+02 -0.102492588E+00  0.137757991E+00
   H -0.407746193E+02 -0.442739763E+01  0.469354220E+01
   H  0.392563888E+02  0.421045417E+01 -0.393249905E+01
     4
 # iter = 74500  time[fs]=74.50000
   C -0.106338209E+02  0.184172225E+00 -0.496615275E-01
   C  0.102268414E+02 -0.103832493E+00  0.139441390E+00
   H -0.411454190E+02 -0.446765541E+01  0.473610666E+01
   H  0.396110998E+02  0.424889778E+01 -0.396815904E+01
     4
 # iter = 75000  time[fs]=75.00000
   C -0.107410987E+02  0.186266668E+00 -0.505367262E-01
   C  0.103301477E+02 -0.105173427E+00  0.141125563E+00
   H -0.415162714E+02 -0.450792013E+01  0.477867828E+01
   H  0.399658673E+02  0.428734864E+01 -0.400382593E+01
     4
 # iter = 75500  time[fs]=75.50000
   C -0.108484212E+02  0.188362097E+00 -0.514127068E-01
   C  0.104334983E+02 -0.106515373E+00  0.142810496E+00
   H -0.418871757E+02 -0.454819168E+01  0.482125692E+01
   H  0.403206903E+02  0.432580663E+01 -0.403949960E+01
     4
 # iter = 76000  time[fs]=76.00000
   C -0.109557874E+02  0.190458494E+00 -0.522894566E-01
   C  0.105368923E+02 -0.107858313E+00  0.144496179E+00
   H -0.422581309E+02 -0.458846994E+01  0.486384247E+01
   H  0.406755679E+02  0.436427164E+01 -0.407517994E+01
     4
 # iter = 76500  time[fs]=76.50000
   C -0.110631965E+02  0.192555844E+00 -0.531669632E-01
   C  0.106403288E+02 -0.109202230E+00  0.146182599E+00
   H -0.426291361E+02 -0.462875479E+01  0.490643483E+01
   H  0.410304991E+02  0.440274354E+01 -0.411086684E+01
     4
 # iter = 77000  time[fs]=77.00000
   C -0.111706476E+02  0.194654129E+00 -0.540452144E-01
   C  0.107438071E+02 -0.110547107E+00  0.147869743E+00
   H -0.430001905E+02 -0.466904613E+01  0.494903386E+01
   H  0.413854830E+02  0.444122223E+01 -0.414656019E+01
     4
 # iter = 77500  time[fs]=77.50000
   C -0.112781399E+02  0.196753335E+00 -0.549241983E-01
   C  0.108473264E+02 -0.111892929E+00  0.149557602E+00
   H -0.433712933E+02 -0.470934385E+01  0.499163947E+01
   H  0.417405188E+02  0.447970759E+01 -0.418225988E+01
     4
 # iter = 78000  time[fs]=78.00000
   C -0.113856726E+02  0.198853445E+00 -0.558039034E-01
   C  0.109508858E+02 -0.113239680E+00  0.151246163E+00
   H -0.437424436E+02 -0.474964784E+01  0.503425154E+01
   H  0.420956055E+02  0.451819952E+01 -0.421796582E+01
     4
 # iter = 78500  time[fs]=78.50000
   C -0.114932451E+02  0.200954444E+00 -0.566843182E-01
   C  0.110544846E+02 -0.114587344E+00  0.152935416E+00
   H -0.441136407E+02 -0.478995802E+01  0.507686997E+01
   H  0.424507424E+02  0.455669791E+01 -0.425367789E+01
     4
 # iter = 79000  time[fs]=79.00000
   C -0.116008564E+02  0.203056319E+00 -0.575654319E-01
   C  0.111581220E+02 -0.115935907E+00  0.154625350E+00
   H -0.444848838E+02 -0.483027426E+01  0.511949465E+01
   H  0.428059287E+02  0.459520266E+01 -0.428939601E+01
     4
 # iter = 79500  time[fs]=79.50000
   C -0.117085060E+02  0.205159054E+00 -0.584472334E-01
   C  0.112617973E+02 -0.117285354E+00  0.156315954E+00
   H -0.448561721E+02 -0.487059649E+01  0.516212550E+01
   H  0.431611634E+02  0.463371367E+01 -0.432512008E+01
     4
 # iter = 80000  time[fs]=80.00000
   C -0.118161930E+02  0.207262636E+00 -0.593297123E-01
   C  0.113655099E+02 -0.118635671E+00  0.158007219E+00
   H -0.452275050E+02 -0.491092460E+01  0.520476241E+01
   H  0.435164459E+02  0.467223083E+01 -0.436085001E+01
