     4
 # iter = 25000  time[fs]=25.00000
   C -0.985552708E+00  0.559737854E-04  0.598791959E-01
   C  0.986525746E+00  0.470271557E-01 -0.203183527E-01
   H -0.522353222E+01 -0.572805196E+00 -0.507928156E+00
   H  0.535002219E+01  0.444305859E+00 -0.191462786E+00
     4
 # iter = 25500  time[fs]=25.50000
   C -0.103118140E+01  0.116969415E-02  0.641157196E-01
   C  0.102937572E+01  0.457711628E-01 -0.197664293E-01
   H -0.555277553E+01 -0.610696939E+00 -0.540769184E+00
   H  0.566732487E+01  0.467591396E+00 -0.201752472E+00
     4
 # iter = 26000  time[fs]=26.00000
   C -0.108011945E+01  0.222381736E-02  0.685103326E-01
   C  0.107553778E+01  0.445829083E-01 -0.193417129E-01
   H -0.588468543E+01 -0.648911000E+00 -0.573896001E+00
   H  0.598726162E+01  0.491101556E+00 -0.212126958E+00
     4
 # iter = 26500  time[fs]=26.50000
   C -0.113208485E+01  0.322924665E-02  0.730490084E-01
   C  0.112472852E+01  0.434505321E-01 -0.190335820E-01
   H -0.621896527E+01 -0.687411528E+00 -0.607276787E+00
   H  0.630955226E+01  0.514811971E+00 -0.222577201E+00
     4
 # iter = 27000  time[fs]=27.00000
   C -0.118681464E+01  0.419515920E-02  0.777189306E-01
   C  0.117668399E+01  0.423640592E-01 -0.188320878E-01
   H -0.655536454E+01 -0.726168335E+00 -0.640884820E+00
   H  0.663395831E+01  0.538702026E+00 -0.233095513E+00
     4
 # iter = 27500  time[fs]=27.50000
   C -0.124406645E+01  0.512920670E-02  0.825084544E-01
   C  0.123116106E+01  0.413151661E-01 -0.187280235E-01
   H -0.689366984E+01 -0.765155764E+00 -0.674697437E+00
   H  0.696027526E+01  0.562754127E+00 -0.243675303E+00
     4
 # iter = 28000  time[fs]=28.00000
   C -0.130361868E+01  0.603772488E-02  0.874070449E-01
   C  0.128793761E+01  0.402969456E-01 -0.187129448E-01
   H -0.723369802E+01 -0.804351829E+00 -0.708695239E+00
   H  0.728832646E+01  0.586953143E+00 -0.254310880E+00
     4
 # iter = 28500  time[fs]=28.50000
   C -0.136527002E+01  0.692593361E-02  0.924052010E-01
   C  0.134681193E+01  0.393036883E-01 -0.187791572E-01
   H -0.757529074E+01 -0.843737546E+00 -0.742861491E+00
   H  0.761795833E+01  0.611285967E+00 -0.264997301E+00
     4
 # iter = 29000  time[fs]=29.00000
   C -0.142883833E+01  0.779811824E-02  0.974943719E-01
   C  0.140760158E+01  0.383306855E-01 -0.189196822E-01
   H -0.791831024E+01 -0.883296411E+00 -0.777181650E+00
   H  0.794903653E+01  0.635741173E+00 -0.275730242E+00
     4
 # iter = 29500  time[fs]=29.50000
   C -0.149415929E+01  0.865778825E-02  0.102666872E+00
   C  0.147014205E+01  0.373740600E-01 -0.191282105E-01
   H -0.826263597E+01 -0.923013987E+00 -0.811642998E+00
   H  0.828144297E+01  0.660308739E+00 -0.286505902E+00
     4
 # iter = 30000  time[fs]=30.00000
   C -0.156108492E+01  0.950781286E-02  0.107915796E+00
   C  0.153428523E+01  0.364306205E-01 -0.193990496E-01
   H -0.860816183E+01 -0.962877572E+00 -0.846234342E+00
   H  0.861507325E+01  0.684979827E+00 -0.297320924E+00
     4
 # iter = 30500  time[fs]=30.50000
   C -0.162948210E+01  0.103505350E-01  0.113234939E+00
   C  0.159989787E+01  0.354977405E-01 -0.197270687E-01
   H -0.895479401E+01 -0.100287593E+01 -0.880945784E+00
   H  0.894983469E+01  0.709746604E+00 -0.308172326E+00
     4
 # iter = 31000  time[fs]=31.00000
   C -0.169923103E+01  0.111878664E-01  0.118618725E+00
   C  0.166686014E+01  0.345732578E-01 -0.201076455E-01
   H -0.930244916E+01 -0.104299908E+01 -0.915768522E+00
   H  0.928564460E+01  0.734602096E+00 -0.319057449E+00
     4
 # iter = 31500  time[fs]=31.50000
   C -0.177022394E+01  0.120213654E-01  0.124062135E+00
   C  0.173506424E+01  0.336553908E-01 -0.205366148E-01
   H -0.965105289E+01 -0.108323811E+01 -0.950694694E+00
   H  0.962242898E+01  0.759540064E+00 -0.329973913E+00
     4
 # iter = 32000  time[fs]=32.00000
   C -0.184236376E+01  0.128523015E-01  0.129560648E+00
   C  0.180441307E+01  0.327426711E-01 -0.210102211E-01
   H -0.100005386E+02 -0.112358503E+01 -0.985717251E+00
   H  0.996012130E+01  0.784554910E+00 -0.340919580E+00
     4
 # iter = 32500  time[fs]=32.50000
   C -0.191556296E+01  0.136817080E-01  0.135110184E+00
   C  0.187481914E+01  0.318338870E-01 -0.215250753E-01
   H -0.103508463E+02 -0.116403265E+01 -0.102082985E+01
   H  0.102986615E+02  0.809641584E+00 -0.351892519E+00
     4
 # iter = 33000  time[fs]=33.00000
   C -0.198974257E+01  0.145104243E-01  0.140707058E+00
   C  0.194620347E+01  0.309280382E-01 -0.220781152E-01
   H -0.107019219E+02 -0.120457447E+01 -0.105602674E+01
   H  0.106379954E+02  0.834795521E+00 -0.362890984E+00
     4
 # iter = 33500  time[fs]=33.50000
   C -0.206483116E+01  0.153391316E-01  0.146347934E+00
   C  0.201849467E+01  0.300242986E-01 -0.226665702E-01
   H -0.110537165E+02 -0.124520462E+01 -0.109130273E+01
   H  0.109780735E+02  0.860012580E+00 -0.373913390E+00
     4
 # iter = 34000  time[fs]=34.00000
   C -0.214076406E+01  0.161683810E-01  0.152029786E+00
   C  0.209162810E+01  0.291219855E-01 -0.232879297E-01
   H -0.114061856E+02 -0.128591774E+01 -0.112665309E+01
   H  0.113188510E+02  0.885288991E+00 -0.384958295E+00
     4
 # iter = 34500  time[fs]=34.50000
   C -0.221748263E+01  0.169986168E-01  0.157749867E+00
   C  0.216554517E+01  0.282205351E-01 -0.239399152E-01
   H -0.117592887E+02 -0.132670896E+01 -0.116207350E+01
   H  0.116602870E+02  0.910621311E+00 -0.396024379E+00
     4
 # iter = 35000  time[fs]=35.00000
   C -0.229493358E+01  0.178301956E-01  0.163505675E+00
   C  0.224019263E+01  0.273194817E-01 -0.246204551E-01
   H -0.121129887E+02 -0.136757382E+01 -0.119756000E+01
   H  0.120023438E+02  0.936006390E+00 -0.407110437E+00
     4
 # iter = 35500  time[fs]=35.50000
   C -0.237306840E+01  0.186634020E-01  0.169294929E+00
   C  0.231552201E+01  0.264184411E-01 -0.253276629E-01
   H -0.124672519E+02 -0.140850824E+01 -0.123310899E+01
   H  0.123449871E+02  0.961441340E+00 -0.418215362E+00
     4
 # iter = 36000  time[fs]=36.00000
   C -0.245184286E+01  0.194984610E-01  0.175115547E+00
   C  0.239148914E+01  0.255170968E-01 -0.260598177E-01
   H -0.128220472E+02 -0.144950845E+01 -0.126871711E+01
   H  0.126881853E+02  0.986923500E+00 -0.429338137E+00
     4
 # iter = 36500  time[fs]=36.50000
   C -0.253121657E+01  0.203355488E-01  0.180965620E+00
   C  0.246805366E+01  0.246151889E-01 -0.268153466E-01
   H -0.131773458E+02 -0.149057101E+01 -0.130438131E+01
   H  0.130319090E+02  0.101245042E+01 -0.440477822E+00
     4
 # iter = 37000  time[fs]=37.00000
   C -0.261115256E+01  0.211748011E-01  0.186843402E+00
   C  0.254517866E+01  0.237125042E-01 -0.275928101E-01
   H -0.135331215E+02 -0.153169271E+01 -0.134009875E+01
   H  0.133761314E+02  0.103801983E+01 -0.451633551E+00
     4
 # iter = 37500  time[fs]=37.50000
   C -0.269161692E+01  0.220163203E-01  0.192747285E+00
   C  0.262283028E+01  0.228088689E-01 -0.283908877E-01
   H -0.138893498E+02 -0.157287061E+01 -0.137586679E+01
   H  0.137208275E+02  0.106362965E+01 -0.462804520E+00
     4
 # iter = 38000  time[fs]=38.00000
   C -0.277257855E+01  0.228601816E-01  0.198675792E+00
   C  0.270097745E+01  0.219041419E-01 -0.292083665E-01
   H -0.142460081E+02 -0.161410196E+01 -0.141168302E+01
   H  0.140659742E+02  0.108927792E+01 -0.473989987E+00
     4
 # iter = 38500  time[fs]=38.50000
   C -0.285400880E+01  0.237064371E-01  0.204627561E+00
   C  0.277959159E+01  0.209982098E-01 -0.300441308E-01
   H -0.146030756E+02 -0.165538423E+01 -0.144754515E+01
   H  0.144115499E+02  0.111496283E+01 -0.485189260E+00
     4
 # iter = 39000  time[fs]=39.00000
   C -0.293588130E+01  0.245551207E-01  0.210601334E+00
   C  0.285864637E+01  0.200909819E-01 -0.308971517E-01
   H -0.149605328E+02 -0.169671505E+01 -0.148345109E+01
   H  0.147575347E+02  0.114068270E+01 -0.496401695E+00
     4
 # iter = 39500  time[fs]=39.50000
   C -0.301817170E+01  0.254062507E-01  0.216595948E+00
   C  0.293811748E+01  0.191823872E-01 -0.317664800E-01
   H -0.153183616E+02 -0.173809222E+01 -0.151939887E+01
   H  0.151039098E+02  0.116643597E+01 -0.507626693E+00
     4
 # iter = 40000  time[fs]=40.00000
   C -0.310085750E+01  0.262598328E-01  0.222610326E+00
   C  0.301798245E+01  0.182723706E-01 -0.326512378E-01
   H -0.156765451E+02 -0.177951368E+01 -0.155538666E+01
   H  0.154506580E+02  0.119222117E+01 -0.518863693E+00
     4
 # iter = 40500  time[fs]=40.50000
   C -0.318391785E+01  0.271158626E-01  0.228643468E+00
   C  0.309822050E+01  0.173608906E-01 -0.335506120E-01
   H -0.160350675E+02 -0.182097751E+01 -0.159141274E+01
   H  0.157977628E+02  0.121803693E+01 -0.530112172E+00
     4
 # iter = 41000  time[fs]=41.00000
   C -0.326733343E+01  0.279743270E-01  0.234694445E+00
   C  0.317881235E+01  0.164479174E-01 -0.344638489E-01
   H -0.163939140E+02 -0.186248191E+01 -0.162747550E+01
   H  0.161452091E+02  0.124388196E+01 -0.541371640E+00
     4
 # iter = 41500  time[fs]=41.50000
   C -0.335108631E+01  0.288352063E-01  0.240762393E+00
   C  0.325974008E+01  0.155334304E-01 -0.353902483E-01
   H -0.167530709E+02 -0.190402519E+01 -0.166357344E+01
   H  0.164929825E+02  0.126975505E+01 -0.552641637E+00
     4
 # iter = 42000  time[fs]=42.00000
   C -0.343515979E+01  0.296984751E-01  0.246846506E+00
   C  0.334098707E+01  0.146174173E-01 -0.363291590E-01
   H -0.171125253E+02 -0.194560577E+01 -0.169970513E+01
   H  0.168410697E+02  0.129565508E+01 -0.563921731E+00
     4
 # iter = 42500  time[fs]=42.50000
   C -0.351953834E+01  0.305641038E-01  0.252946035E+00
   C  0.342253779E+01  0.136998724E-01 -0.372799745E-01
   H -0.174722649E+02 -0.198722215E+01 -0.173586925E+01
   H  0.171894581E+02  0.132158099E+01 -0.575211517E+00
     4
 # iter = 43000  time[fs]=43.00000
   C -0.360420747E+01  0.314320591E-01  0.259060276E+00
   C  0.350437782E+01  0.127807958E-01 -0.382421292E-01
   H -0.178322783E+02 -0.202887294E+01 -0.177206453E+01
   H  0.175381356E+02  0.134753176E+01 -0.586510612E+00
     4
 # iter = 43500  time[fs]=43.50000
   C -0.368915365E+01  0.323023052E-01  0.265188572E+00
   C  0.358649364E+01  0.118601919E-01 -0.392150951E-01
   H -0.181925547E+02 -0.207055681E+01 -0.180828980E+01
   H  0.178870912E+02  0.137350645E+01 -0.597818656E+00
     4
 # iter = 44000  time[fs]=44.00000
   C -0.377436423E+01  0.331748039E-01  0.271330309E+00
   C  0.366887265E+01  0.109380694E-01 -0.401983783E-01
   H -0.185530840E+02 -0.211227253E+01 -0.184454394E+01
   H  0.182363143E+02  0.139950417E+01 -0.609135310E+00
     4
 # iter = 44500  time[fs]=44.50000
   C -0.385982738E+01  0.340495158E-01  0.277484910E+00
   C  0.375150304E+01  0.100144400E-01 -0.411915166E-01
   H -0.189138567E+02 -0.215401890E+01 -0.188082590E+01
   H  0.185857950E+02  0.142552408E+01 -0.620460253E+00
     4
 # iter = 45000  time[fs]=45.00000
   C -0.394553200E+01  0.349264002E-01  0.283651832E+00
   C  0.383437375E+01  0.908931800E-02 -0.421940769E-01
   H -0.192748636E+02 -0.219579482E+01 -0.191713467E+01
   H  0.189355237E+02  0.145156537E+01 -0.631793182E+00
     4
 # iter = 45500  time[fs]=45.50000
   C -0.403146768E+01  0.358054156E-01  0.289830568E+00
   C  0.391747440E+01  0.816272009E-02 -0.432056526E-01
   H -0.196360963E+02 -0.223759923E+01 -0.195346930E+01
   H  0.192854916E+02  0.147762730E+01 -0.643133810E+00
     4
 # iter = 46000  time[fs]=46.00000
   C -0.411762465E+01  0.366865203E-01  0.296020636E+00
   C  0.400079524E+01  0.723466455E-02 -0.442258619E-01
   H -0.199975466E+02 -0.227943115E+01 -0.198982891E+01
   H  0.196356902E+02  0.150370915E+01 -0.654481864E+00
     4
 # iter = 46500  time[fs]=46.50000
   C -0.420399370E+01  0.375696723E-01  0.302221587E+00
   C  0.408432710E+01  0.630517110E-02 -0.452543458E-01
   H -0.203592068E+02 -0.232128961E+01 -0.202621264E+01
   H  0.199861116E+02  0.152981023E+01 -0.665837086E+00
     4
 # iter = 47000  time[fs]=47.00000
   C -0.429056618E+01  0.384548297E-01  0.308432994E+00
   C  0.416806136E+01  0.537426059E-02 -0.462907663E-01
   H -0.207210698E+02 -0.236317372E+01 -0.206261968E+01
   H  0.203367480E+02  0.155592990E+01 -0.677199233E+00
     4
 # iter = 47500  time[fs]=47.50000
   C -0.437733393E+01  0.393419506E-01  0.314654456E+00
   C  0.425198989E+01  0.444195472E-02 -0.473348048E-01
   H -0.210831285E+02 -0.240508262E+01 -0.209904927E+01
   H  0.206875923E+02  0.158206755E+01 -0.688568072E+00
     4
 # iter = 48000  time[fs]=48.00000
   C -0.446428927E+01  0.402309938E-01  0.320885593E+00
   C  0.433610502E+01  0.350827583E-02 -0.483861609E-01
   H -0.214453764E+02 -0.244701552E+01 -0.213550068E+01
   H  0.210386376E+02  0.160822259E+01 -0.699943381E+00
     4
 # iter = 48500  time[fs]=48.50000
   C -0.455142493E+01  0.411219183E-01  0.327126045E+00
   C  0.442039951E+01  0.257324673E-02 -0.494445509E-01
   H -0.218078073E+02 -0.248897162E+01 -0.217197320E+01
   H  0.213898774E+02  0.163439448E+01 -0.711324950E+00
     4
 # iter = 49000  time[fs]=49.00000
   C -0.463873404E+01  0.420146838E-01  0.333375472E+00
   C  0.450486652E+01  0.163689055E-02 -0.505097069E-01
   H -0.221704153E+02 -0.253095020E+01 -0.220846618E+01
   H  0.217413054E+02  0.166058267E+01 -0.722712579E+00
     4
 # iter = 49500  time[fs]=49.50000
   C -0.472621011E+01  0.429092507E-01  0.339633553E+00
   C  0.458949959E+01  0.699230584E-03 -0.515813751E-01
   H -0.225331946E+02 -0.257295056E+01 -0.224497898E+01
   H  0.220929157E+02  0.168678667E+01 -0.734106077E+00
     4
 # iter = 50000  time[fs]=50.00000
   C -0.481384699E+01  0.438055798E-01  0.345899982E+00
   C  0.467429257E+01 -0.239709789E-03 -0.526593155E-01
   H -0.228961400E+02 -0.261497202E+01 -0.228151101E+01
   H  0.224447027E+02  0.171300599E+01 -0.745505262E+00
     4
 # iter = 50500  time[fs]=50.50000
   C -0.490163886E+01  0.447036331E-01  0.352174469E+00
   C  0.475923968E+01 -0.117990722E-02 -0.537433007E-01
   H -0.232592462E+02 -0.265701395E+01 -0.231806168E+01
   H  0.227966609E+02  0.173924018E+01 -0.756909960E+00
     4
 # iter = 51000  time[fs]=51.00000
   C -0.498958019E+01  0.456033729E-01  0.358456739E+00
   C  0.484433540E+01 -0.212133846E-02 -0.548331147E-01
   H -0.236225084E+02 -0.269907574E+01 -0.235463045E+01
   H  0.231487852E+02  0.176548879E+01 -0.768320006E+00
     4
 # iter = 51500  time[fs]=51.50000
   C -0.507766574E+01  0.465047627E-01  0.364746529E+00
   C  0.492957452E+01 -0.306398042E-02 -0.559285530E-01
   H -0.239859219E+02 -0.274115680E+01 -0.239121679E+01
   H  0.235010707E+02  0.179175140E+01 -0.779735240E+00
     4
 # iter = 52000  time[fs]=52.00000
   C -0.516589053E+01  0.474077666E-01  0.371043590E+00
   C  0.501495207E+01 -0.400781024E-02 -0.570294209E-01
   H -0.243494822E+02 -0.278325658E+01 -0.242782019E+01
   H  0.238535127E+02  0.181802761E+01 -0.791155511E+00
     4
 # iter = 52500  time[fs]=52.50000
   C -0.525424981E+01  0.483123495E-01  0.377347686E+00
   C  0.510046334E+01 -0.495280530E-02 -0.581355335E-01
   H -0.247131849E+02 -0.282537454E+01 -0.246444018E+01
   H  0.242061066E+02  0.184431704E+01 -0.802580673E+00
     4
 # iter = 53000  time[fs]=53.00000
   C -0.534273909E+01  0.492184774E-01  0.383658590E+00
   C  0.518610383E+01 -0.589894330E-02 -0.592467149E-01
   H -0.250770261E+02 -0.286751017E+01 -0.250107629E+01
   H  0.245588481E+02  0.187061932E+01 -0.814010589E+00
     4
 # iter = 53500  time[fs]=53.50000
   C -0.543135407E+01  0.501261167E-01  0.389976087E+00
   C  0.527186927E+01 -0.684620227E-02 -0.603627977E-01
   H -0.254410018E+02 -0.290966299E+01 -0.253772807E+01
   H  0.249117331E+02  0.189693409E+01 -0.825445123E+00
     4
 # iter = 54000  time[fs]=54.00000
   C -0.552009068E+01  0.510352352E-01  0.396299972E+00
   C  0.535775561E+01 -0.779456058E-02 -0.614836222E-01
   H -0.258051083E+02 -0.295183251E+01 -0.257439511E+01
   H  0.252647576E+02  0.192326101E+01 -0.836884150E+00
     4
 # iter = 54500  time[fs]=54.50000
   C -0.560894501E+01  0.519458009E-01  0.402630046E+00
   C  0.544375895E+01 -0.874399699E-02 -0.626090364E-01
   H -0.261693418E+02 -0.299401829E+01 -0.261107699E+01
   H  0.256179178E+02  0.194959977E+01 -0.848327546E+00
     4
 # iter = 55000  time[fs]=55.00000
   C -0.569791334E+01  0.528577830E-01  0.408966125E+00
   C  0.552987560E+01 -0.969449062E-02 -0.637388951E-01
   H -0.265336990E+02 -0.303621989E+01 -0.264777332E+01
   H  0.259712101E+02  0.197595003E+01 -0.859775194E+00
     4
 # iter = 55500  time[fs]=55.50000
   C -0.578699213E+01  0.537711515E-01  0.415308027E+00
   C  0.561610202E+01 -0.106460210E-01 -0.648730598E-01
   H -0.268981766E+02 -0.307843691E+01 -0.268448374E+01
   H  0.263246310E+02  0.200231152E+01 -0.871226980E+00
     4
 # iter = 56000  time[fs]=56.00000
   C -0.587617799E+01  0.546858771E-01  0.421655581E+00
   C  0.570243485E+01 -0.115985681E-01 -0.660113981E-01
   H -0.272627713E+02 -0.312066894E+01 -0.272120786E+01
   H  0.266781770E+02  0.202868393E+01 -0.882682796E+00
     4
 # iter = 56500  time[fs]=56.50000
   C -0.596546768E+01  0.556019311E-01  0.428008624E+00
   C  0.578887084E+01 -0.125521123E-01 -0.671537836E-01
   H -0.276274800E+02 -0.316291559E+01 -0.275794536E+01
   H  0.270318449E+02  0.205506698E+01 -0.894142539E+00
     4
 # iter = 57000  time[fs]=57.00000
   C -0.605485809E+01  0.565192859E-01  0.434366997E+00
   C  0.587540692E+01 -0.135066343E-01 -0.683000952E-01
   H -0.279922999E+02 -0.320517650E+01 -0.279469588E+01
   H  0.273856317E+02  0.208146042E+01 -0.905606107E+00
     4
 # iter = 57500  time[fs]=57.50000
   C -0.614434627E+01  0.574379143E-01  0.440730551E+00
   C  0.596204014E+01 -0.144621153E-01 -0.694502172E-01
   H -0.283572282E+02 -0.324745130E+01 -0.283145911E+01
   H  0.277395343E+02  0.210786398E+01 -0.917073404E+00
     4
 # iter = 58000  time[fs]=58.00000
   C -0.623392937E+01  0.583577902E-01  0.447099141E+00
   C  0.604876767E+01 -0.154185369E-01 -0.706040387E-01
   H -0.287222619E+02 -0.328973967E+01 -0.286823474E+01
   H  0.280935498E+02  0.213427742E+01 -0.928544337E+00
     4
 # iter = 58500  time[fs]=58.50000
   C -0.632360467E+01  0.592788878E-01  0.453472627E+00
   C  0.613558680E+01 -0.163758810E-01 -0.717614535E-01
   H -0.290873987E+02 -0.333204126E+01 -0.290502247E+01
   H  0.284476755E+02  0.216070049E+01 -0.940018816E+00
     4
 # iter = 59000  time[fs]=59.00000
   C -0.641336956E+01  0.602011822E-01  0.459850877E+00
   C  0.622249493E+01 -0.173341301E-01 -0.729223597E-01
   H -0.294526358E+02 -0.337435576E+01 -0.294182201E+01
   H  0.288019086E+02  0.218713297E+01 -0.951496756E+00
     4
 # iter = 59500  time[fs]=59.50000
   C -0.650322154E+01  0.611246492E-01  0.466233764E+00
   C  0.630948957E+01 -0.182932671E-01 -0.740866597E-01
   H -0.298179710E+02 -0.341668286E+01 -0.297863308E+01
   H  0.291562466E+02  0.221357463E+01 -0.962978072E+00
     4
 # iter = 60000  time[fs]=60.00000
   C -0.659315821E+01  0.620492652E-01  0.472621163E+00
   C  0.639656834E+01 -0.192532750E-01 -0.752542597E-01
   H -0.301834017E+02 -0.345902226E+01 -0.301545541E+01
   H  0.295106870E+02  0.224002526E+01 -0.974462686E+00
     4
 # iter = 60500  time[fs]=60.50000
   C -0.668317727E+01  0.629750071E-01  0.479012958E+00
   C  0.648372894E+01 -0.202141376E-01 -0.764250698E-01
   H -0.305489258E+02 -0.350137368E+01 -0.305228875E+01
   H  0.298652274E+02  0.226648466E+01 -0.985950518E+00
     4
 # iter = 61000  time[fs]=61.00000
   C -0.677327649E+01  0.639018527E-01  0.485409035E+00
   C  0.657096917E+01 -0.211758387E-01 -0.775990036E-01
   H -0.309145411E+02 -0.354373685E+01 -0.308913283E+01
   H  0.302198655E+02  0.229295261E+01 -0.997441495E+00
     4
 # iter = 61500  time[fs]=61.50000
   C -0.686345375E+01  0.648297802E-01  0.491809284E+00
   C  0.665828691E+01 -0.221383627E-01 -0.787759779E-01
   H -0.312802454E+02 -0.358611149E+01 -0.312598743E+01
   H  0.305745990E+02  0.231942894E+01 -0.100893554E+01
     4
 # iter = 62000  time[fs]=62.00000
   C -0.695370700E+01  0.657587683E-01  0.498213600E+00
   C  0.674568011E+01 -0.231016944E-01 -0.799559128E-01
   H -0.316460368E+02 -0.362849735E+01 -0.316285230E+01
   H  0.309294257E+02  0.234591344E+01 -0.102043260E+01
     4
 # iter = 62500  time[fs]=62.50000
   C -0.704403427E+01  0.666887965E-01  0.504621882E+00
   C  0.683314683E+01 -0.240658189E-01 -0.811387316E-01
   H -0.320119131E+02 -0.367089417E+01 -0.319972722E+01
   H  0.312843436E+02  0.237240595E+01 -0.103193258E+01
     4
 # iter = 63000  time[fs]=63.00000
   C -0.713443367E+01  0.676198447E-01  0.511034033E+00
   C  0.692068518E+01 -0.250307215E-01 -0.823243602E-01
   H -0.323778727E+02 -0.371330173E+01 -0.323661198E+01
   H  0.316393507E+02  0.239890628E+01 -0.104343544E+01
     4
 # iter = 63500  time[fs]=63.50000
   C -0.722490338E+01  0.685518933E-01  0.517449957E+00
   C  0.700829334E+01 -0.259963882E-01 -0.835127275E-01
   H -0.327439135E+02 -0.375571978E+01 -0.327350635E+01
   H  0.319944449E+02  0.242541427E+01 -0.105494111E+01
     4
 # iter = 64000  time[fs]=64.00000
   C -0.731544162E+01  0.694849233E-01  0.523869565E+00
   C  0.709596956E+01 -0.269628049E-01 -0.847037648E-01
   H -0.331100338E+02 -0.379814810E+01 -0.331041013E+01
   H  0.323496244E+02  0.245192976E+01 -0.106644952E+01
     4
 # iter = 64500  time[fs]=64.50000
   C -0.740604672E+01  0.704189161E-01  0.530292768E+00
   C  0.718371216E+01 -0.279299582E-01 -0.858974060E-01
   H -0.334762319E+02 -0.384058648E+01 -0.334732313E+01
   H  0.327048874E+02  0.247845258E+01 -0.107796061E+01
     4
 # iter = 65000  time[fs]=65.00000
   C -0.749671703E+01  0.713538538E-01  0.536719483E+00
   C  0.727151951E+01 -0.288978349E-01 -0.870935874E-01
   H -0.338425062E+02 -0.388303469E+01 -0.338424515E+01
   H  0.330602320E+02  0.250498259E+01 -0.108947434E+01
     4
 # iter = 65500  time[fs]=65.50000
   C -0.758745099E+01  0.722897186E-01  0.543149627E+00
   C  0.735939005E+01 -0.298664221E-01 -0.882922476E-01
   H -0.342088549E+02 -0.392549253E+01 -0.342117601E+01
   H  0.334156566E+02  0.253151962E+01 -0.110099064E+01
     4
 # iter = 66000  time[fs]=66.00000
   C -0.767824706E+01  0.732264936E-01  0.549583122E+00
   C  0.744732226E+01 -0.308357071E-01 -0.894933272E-01
   H -0.345752766E+02 -0.396795982E+01 -0.345811552E+01
   H  0.337711595E+02  0.255806355E+01 -0.111250946E+01
     4
 # iter = 66500  time[fs]=66.50000
   C -0.776910378E+01  0.741641620E-01  0.556019892E+00
   C  0.753531468E+01 -0.318056777E-01 -0.906967689E-01
   H -0.349417697E+02 -0.401043634E+01 -0.349506351E+01
   H  0.341267390E+02  0.258461423E+01 -0.112403076E+01
     4
 # iter = 67000  time[fs]=67.00000
   C -0.786001974E+01  0.751027075E-01  0.562459863E+00
   C  0.762336591E+01 -0.327763219E-01 -0.919025175E-01
   H -0.353083327E+02 -0.405292193E+01 -0.353201982E+01
   H  0.344823937E+02  0.261117152E+01 -0.113555446E+01
     4
 # iter = 67500  time[fs]=67.50000
   C -0.795099357E+01  0.760421143E-01  0.568902963E+00
   C  0.771147458E+01 -0.337476280E-01 -0.931105196E-01
   H -0.356749643E+02 -0.409541638E+01 -0.356898426E+01
   H  0.348381220E+02  0.263773529E+01 -0.114708054E+01
     4
 # iter = 68000  time[fs]=68.00000
   C -0.804202394E+01  0.769823669E-01  0.575349124E+00
   C  0.779963938E+01 -0.347195844E-01 -0.943207235E-01
   H -0.360416630E+02 -0.413791954E+01 -0.360595670E+01
   H  0.351939224E+02  0.266430542E+01 -0.115860895E+01
     4
 # iter = 68500  time[fs]=68.50000
   C -0.813310957E+01  0.779234504E-01  0.581798279E+00
   C  0.788785904E+01 -0.356921802E-01 -0.955330794E-01
   H -0.364084275E+02 -0.418043123E+01 -0.364293696E+01
   H  0.355497935E+02  0.269088178E+01 -0.117013962E+01
     4
 # iter = 69000  time[fs]=69.00000
   C -0.822424923E+01  0.788653499E-01  0.588250364E+00
   C  0.797613232E+01 -0.366654043E-01 -0.967475391E-01
   H -0.367752565E+02 -0.422295129E+01 -0.367992490E+01
   H  0.359057338E+02  0.271746425E+01 -0.118167253E+01
     4
 # iter = 69500  time[fs]=69.50000
   C -0.831544171E+01  0.798080513E-01  0.594705316E+00
   C  0.806445804E+01 -0.376392461E-01 -0.979640558E-01
   H -0.371421488E+02 -0.426547954E+01 -0.371692038E+01
   H  0.362617422E+02  0.274405272E+01 -0.119320763E+01
     4
 # iter = 70000  time[fs]=70.00000
   C -0.840668587E+01  0.807515405E-01  0.601163075E+00
   C  0.815283505E+01 -0.386136951E-01 -0.991825844E-01
   H -0.375091030E+02 -0.430801585E+01 -0.375392324E+01
   H  0.366178172E+02  0.277064707E+01 -0.120474487E+01
     4
 # iter = 70500  time[fs]=70.50000
   C -0.849798059E+01  0.816958039E-01  0.607623581E+00
   C  0.824126222E+01 -0.395887413E-01 -0.100403081E+00
   H -0.378761181E+02 -0.435056005E+01 -0.379093336E+01
   H  0.369739576E+02  0.279724718E+01 -0.121628422E+01
     4
 # iter = 71000  time[fs]=71.00000
   C -0.858932476E+01  0.826408282E-01  0.614086779E+00
   C  0.832973849E+01 -0.405643748E-01 -0.101625504E+00
   H -0.382431929E+02 -0.439311199E+01 -0.382795059E+01
   H  0.373301621E+02  0.282385296E+01 -0.122782563E+01
     4
 # iter = 71500  time[fs]=71.50000
   C -0.868071735E+01  0.835866006E-01  0.620552612E+00
   C  0.841826280E+01 -0.415405857E-01 -0.102849811E+00
   H -0.386103261E+02 -0.443567154E+01 -0.386497482E+01
   H  0.376864295E+02  0.285046430E+01 -0.123936907E+01
     4
 # iter = 72000  time[fs]=72.00000
   C -0.877215734E+01  0.845331082E-01  0.627021028E+00
   C  0.850683415E+01 -0.425173647E-01 -0.104075964E+00
   H -0.389775169E+02 -0.447823856E+01 -0.390200589E+01
   H  0.380427588E+02  0.287708110E+01 -0.125091450E+01
     4
 # iter = 72500  time[fs]=72.50000
   C -0.886364373E+01  0.854803389E-01  0.633491974E+00
   C  0.859545155E+01 -0.434947025E-01 -0.105303923E+00
   H -0.393447640E+02 -0.452081290E+01 -0.393904371E+01
   H  0.383991487E+02  0.290370325E+01 -0.126246188E+01
     4
 # iter = 73000  time[fs]=73.00000
   C -0.895517557E+01  0.864282805E-01  0.639965401E+00
   C  0.868411404E+01 -0.444725900E-01 -0.106533651E+00
   H -0.397120664E+02 -0.456339445E+01 -0.397608814E+01
   H  0.387555981E+02  0.293033067E+01 -0.127401118E+01
     4
 # iter = 73500  time[fs]=73.50000
   C -0.904675193E+01  0.873769213E-01  0.646441259E+00
   C  0.877282072E+01 -0.454510184E-01 -0.107765113E+00
   H -0.400794232E+02 -0.460598306E+01 -0.401313906E+01
   H  0.391121060E+02  0.295696325E+01 -0.128556236E+01
     4
 # iter = 74000  time[fs]=74.00000
   C -0.913837191E+01  0.883262498E-01  0.652919500E+00
   C  0.886157067E+01 -0.464299790E-01 -0.108998272E+00
   H -0.404468333E+02 -0.464857861E+01 -0.405019637E+01
   H  0.394686713E+02  0.298360092E+01 -0.129711539E+01
     4
 # iter = 74500  time[fs]=74.50000
   C -0.923003463E+01  0.892762548E-01  0.659400080E+00
   C  0.895036304E+01 -0.474094635E-01 -0.110233095E+00
   H -0.408142959E+02 -0.469118099E+01 -0.408725996E+01
   H  0.398252930E+02  0.301024357E+01 -0.130867024E+01
     4
 # iter = 75000  time[fs]=75.00000
   C -0.932173925E+01  0.902269253E-01  0.665882953E+00
   C  0.903919697E+01 -0.483894635E-01 -0.111469549E+00
   H -0.411818099E+02 -0.473379007E+01 -0.412432970E+01
   H  0.401819701E+02  0.303689113E+01 -0.132022687E+01
     4
 # iter = 75500  time[fs]=75.50000
   C -0.941348494E+01  0.911782507E-01  0.672368075E+00
   C  0.912807166E+01 -0.493699710E-01 -0.112707601E+00
   H -0.415493745E+02 -0.477640573E+01 -0.416140551E+01
   H  0.405387016E+02  0.306354350E+01 -0.133178525E+01
     4
 # iter = 76000  time[fs]=76.00000
   C -0.950527091E+01  0.921302205E-01  0.678855404E+00
   C  0.921698630E+01 -0.503509781E-01 -0.113947221E+00
   H -0.419169888E+02 -0.481902787E+01 -0.419848726E+01
   H  0.408954867E+02  0.309020062E+01 -0.134334536E+01
     4
 # iter = 76500  time[fs]=76.50000
   C -0.959709636E+01  0.930828245E-01  0.685344899E+00
   C  0.930594011E+01 -0.513324771E-01 -0.115188378E+00
   H -0.422846519E+02 -0.486165638E+01 -0.423557488E+01
   H  0.412523243E+02  0.311686239E+01 -0.135490715E+01
     4
 # iter = 77000  time[fs]=77.00000
   C -0.968896055E+01  0.940360527E-01  0.691836521E+00
   C  0.939493236E+01 -0.523144603E-01 -0.116431042E+00
   H -0.426523631E+02 -0.490429115E+01 -0.427266825E+01
   H  0.416092136E+02  0.314352873E+01 -0.136647062E+01
     4
 # iter = 77500  time[fs]=77.50000
   C -0.978086275E+01  0.949898954E-01  0.698330229E+00
   C  0.948396231E+01 -0.532969205E-01 -0.117675185E+00
   H -0.430201214E+02 -0.494693206E+01 -0.430976728E+01
   H  0.419661538E+02  0.317019959E+01 -0.137803571E+01
     4
 # iter = 78000  time[fs]=78.00000
   C -0.987280223E+01  0.959443430E-01  0.704825987E+00
   C  0.957302925E+01 -0.542798504E-01 -0.118920780E+00
   H -0.433879261E+02 -0.498957903E+01 -0.434687188E+01
   H  0.423231439E+02  0.319687487E+01 -0.138960242E+01
     4
 # iter = 78500  time[fs]=78.50000
   C -0.996477831E+01  0.968993863E-01  0.711323757E+00
   C  0.966213249E+01 -0.552632429E-01 -0.120167798E+00
   H -0.437557765E+02 -0.503223196E+01 -0.438398196E+01
   H  0.426801832E+02  0.322355451E+01 -0.140117071E+01
     4
 # iter = 79000  time[fs]=79.00000
   C -0.100567903E+02  0.978550160E-01  0.717823504E+00
   C  0.975127135E+01 -0.562470911E-01 -0.121416214E+00
   H -0.441236717E+02 -0.507489074E+01 -0.442109743E+01
   H  0.430372708E+02  0.325023843E+01 -0.141274056E+01
     4
 # iter = 79500  time[fs]=79.50000
   C -0.101488376E+02  0.988112233E-01  0.724325192E+00
   C  0.984044520E+01 -0.572313882E-01 -0.122666002E+00
   H -0.444916111E+02 -0.511755528E+01 -0.445821821E+01
   H  0.433944060E+02  0.327692657E+01 -0.142431194E+01
     4
 # iter = 80000  time[fs]=80.00000
   C -0.102409194E+02  0.997679996E-01  0.730828788E+00
   C  0.992965338E+01 -0.582161276E-01 -0.123917138E+00
   H -0.448595938E+02 -0.516022549E+01 -0.449534420E+01
   H  0.437515879E+02  0.330361887E+01 -0.143588482E+01
