     4
 # iter = 25000  time[fs]=25.00000
   C -0.942216613E+00  0.466423578E-01 -0.288704696E-01
   C  0.100124614E+01 -0.352956063E-01  0.272664364E-01
   H -0.514411154E+01 -0.510470891E+00 -0.650596826E-01
   H  0.514961432E+01  0.549979178E+00 -0.293208722E+00
     4
 # iter = 25500  time[fs]=25.50000
   C -0.985222669E+00  0.495021891E-01 -0.290020089E-01
   C  0.104426168E+01 -0.381805261E-01  0.292147060E-01
   H -0.547061275E+01 -0.545957245E+00 -0.678009696E-01
   H  0.546410673E+01  0.586634709E+00 -0.313203878E+00
     4
 # iter = 26000  time[fs]=26.00000
   C -0.103144378E+01  0.525168465E-01 -0.292236006E-01
   C  0.109048863E+01 -0.412222903E-01  0.312693394E-01
   H -0.579989479E+01 -0.581759942E+00 -0.705624821E-01
   H  0.578142380E+01  0.623630802E+00 -0.333374545E+00
     4
 # iter = 26500  time[fs]=26.50000
   C -0.108060886E+01  0.556756004E-01 -0.295270909E-01
   C  0.113965574E+01 -0.444100274E-01  0.334204384E-01
   H -0.613164591E+01 -0.617844108E+00 -0.733418365E-01
   H  0.610125546E+01  0.660930881E+00 -0.353702176E+00
     4
 # iter = 27000  time[fs]=27.00000
   C -0.113246477E+01  0.589681585E-01 -0.299049854E-01
   C  0.119150987E+01 -0.477333132E-01  0.356590309E-01
   H -0.646560310E+01 -0.654180380E+00 -0.761370238E-01
   H  0.642333907E+01  0.698504000E+00 -0.374171045E+00
     4
 # iter = 27500  time[fs]=27.50000
   C -0.118677786E+01  0.623847635E-01 -0.303504565E-01
   C  0.124581740E+01 -0.511822688E-01  0.379770260E-01
   H -0.680154258E+01 -0.690743795E+00 -0.789463385E-01
   H  0.674745035E+01  0.736323736E+00 -0.394767697E+00
     4
 # iter = 28000  time[fs]=28.00000
   C -0.124333424E+01  0.659162541E-01 -0.308573240E-01
   C  0.130236452E+01 -0.547476216E-01  0.403671548E-01
   H -0.713927244E+01 -0.727512949E+00 -0.817683227E-01
   H  0.707339634E+01  0.774367351E+00 -0.415480530E+00
     4
 # iter = 28500  time[fs]=28.50000
   C -0.130193928E+01  0.695540945E-01 -0.314200190E-01
   C  0.136095672E+01 -0.584207341E-01  0.428229043E-01
   H -0.747862694E+01 -0.764469346E+00 -0.846017225E-01
   H  0.740100990E+01  0.812615127E+00 -0.436299463E+00
     4
 # iter = 29000  time[fs]=29.00000
   C -0.136241669E+01  0.732903799E-01 -0.320335393E-01
   C  0.142141785E+01 -0.621936085E-01  0.453384472E-01
   H -0.781946202E+01 -0.801596895E+00 -0.874454532E-01
   H  0.773014540E+01  0.851049858E+00 -0.457215683E+00
     4
 # iter = 29500  time[fs]=29.50000
   C -0.142460723E+01  0.771178228E-01 -0.326934001E-01
   C  0.148358880E+01 -0.660588725E-01  0.479085741E-01
   H -0.816165169E+01 -0.838881505E+00 -0.902985708E-01
   H  0.806067516E+01  0.889656436E+00 -0.478221439E+00
     4
 # iter = 30000  time[fs]=30.00000
   C -0.148836733E+01  0.810297279E-01 -0.333955840E-01
   C  0.154732615E+01 -0.700097532E-01  0.505286276E-01
   H -0.850508520E+01 -0.876310768E+00 -0.931602495E-01
   H  0.839248670E+01  0.928421521E+00 -0.499309874E+00
     4
 # iter = 30500  time[fs]=30.50000
   C -0.155356767E+01  0.850199584E-01 -0.341364936E-01
   C  0.161250072E+01 -0.740400431E-01  0.531944418E-01
   H -0.884966466E+01 -0.913873697E+00 -0.960297638E-01
   H  0.872548043E+01  0.967333277E+00 -0.520474895E+00
     4
 # iter = 31000  time[fs]=31.00000
   C -0.162009178E+01  0.890828984E-01 -0.349129059E-01
   C  0.167899618E+01 -0.781440613E-01  0.559022872E-01
   H -0.919530315E+01 -0.951560520E+00 -0.989064729E-01
   H  0.905956778E+01  0.100638115E+01 -0.541711064E+00
     4
 # iter = 31500  time[fs]=31.50000
   C -0.168783477E+01  0.932134135E-01 -0.357219314E-01
   C  0.174670777E+01 -0.823166140E-01  0.586488205E-01
   H -0.954192318E+01 -0.989362502E+00 -0.101789809E+00
   H  0.939466962E+01  0.104555570E+01 -0.563013501E+00
     4
 # iter = 32000  time[fs]=32.00000
   C -0.175670207E+01  0.974068113E-01 -0.365609763E-01
   C  0.181554106E+01 -0.865529541E-01  0.614310398E-01
   H -0.988945535E+01 -0.102727181E+01 -0.104679265E+00
   H  0.973071503E+01  0.108484843E+01 -0.584377817E+00
     4
 # iter = 32500  time[fs]=32.50000
   C -0.182660838E+01  0.101658804E+00 -0.374277095E-01
   C  0.188541085E+01 -0.908487428E-01  0.642462457E-01
   H -0.102378373E+02 -0.106528138E+01 -0.107574389E+00
   H  0.100676402E+02  0.112425167E+01 -0.605800045E+00
     4
 # iter = 33000  time[fs]=33.00000
   C -0.189747662E+01  0.105965469E+00 -0.383200320E-01
   C  0.195624020E+01 -0.952000132E-01  0.670920059E-01
   H -0.105870128E+02 -0.110338482E+01 -0.110474777E+00
   H  0.104053874E+02  0.116375849E+01 -0.627276590E+00
     4
 # iter = 33500  time[fs]=33.50000
   C -0.196923705E+01  0.110323222E+00 -0.392360510E-01
   C  0.202795948E+01 -0.996031357E-01  0.699661247E-01
   H -0.109369310E+02 -0.114157637E+01 -0.113380062E+00
   H  0.107439044E+02  0.120336258E+01 -0.648804183E+00
     4
 # iter = 34000  time[fs]=34.00000
   C -0.204182652E+01  0.114728778E+00 -0.401740563E-01
   C  0.210050563E+01 -0.104054787E+00  0.728666160E-01
   H -0.112875455E+02 -0.117985073E+01 -0.116289914E+00
   H  0.110831438E+02  0.124305820E+01 -0.670379841E+00
     4
 # iter = 34500  time[fs]=34.50000
   C -0.211518767E+01  0.119179128E+00 -0.411325000E-01
   C  0.217382140E+01 -0.108551921E+00  0.757916796E-01
   H -0.116388145E+02 -0.121820312E+01 -0.119204036E+00
   H  0.114230624E+02  0.128284011E+01 -0.692000838E+00
     4
 # iter = 35000  time[fs]=35.00000
   C -0.218926839E+01  0.123671510E+00 -0.421099781E-01
   C  0.224785477E+01 -0.113091742E+00  0.787396806E-01
   H -0.119906994E+02 -0.125662913E+01 -0.122122157E+00
   H  0.117636205E+02  0.132270350E+01 -0.713664672E+00
     4
 # iter = 35500  time[fs]=35.50000
   C -0.226402120E+01  0.128203388E+00 -0.431052150E-01
   C  0.232255836E+01 -0.117671682E+00  0.817091311E-01
   H -0.123431652E+02 -0.129512472E+01 -0.125044029E+00
   H  0.121047821E+02  0.136264396E+01 -0.735369044E+00
     4
 # iter = 36000  time[fs]=36.00000
   C -0.233940281E+01  0.132772429E+00 -0.441170492E-01
   C  0.239788893E+01 -0.122289379E+00  0.846986745E-01
   H -0.126961796E+02 -0.133368619E+01 -0.127969426E+00
   H  0.124465138E+02  0.140265741E+01 -0.757111836E+00
     4
 # iter = 36500  time[fs]=36.50000
   C -0.241537363E+01  0.137376484E+00 -0.451444213E-01
   C  0.247380701E+01 -0.126942656E+00  0.877070711E-01
   H -0.130497128E+02 -0.137231012E+01 -0.130898143E+00
   H  0.127887851E+02  0.144274012E+01 -0.778891092E+00
     4
 # iter = 37000  time[fs]=37.00000
   C -0.249189744E+01  0.142013572E+00 -0.461863631E-01
   C  0.255027643E+01 -0.131629507E+00  0.907331860E-01
   H -0.134037377E+02 -0.141099333E+01 -0.133829991E+00
   H  0.131315677E+02  0.148288861E+01 -0.800705002E+00
     4
 # iter = 37500  time[fs]=37.50000
   C -0.256894101E+01  0.146681863E+00 -0.472419881E-01
   C  0.262726403E+01 -0.136348078E+00  0.937759784E-01
   H -0.137582289E+02 -0.144973292E+01 -0.136764795E+00
   H  0.134748355E+02  0.152309966E+01 -0.822551887E+00
     4
 # iter = 38000  time[fs]=38.00000
   C -0.264647382E+01  0.151379664E+00 -0.483104830E-01
   C  0.270473935E+01 -0.141096654E+00  0.968344917E-01
   H -0.141131630E+02 -0.148852615E+01 -0.139702394E+00
   H  0.138185645E+02  0.156337030E+01 -0.844430189E+00
     4
 # iter = 38500  time[fs]=38.50000
   C -0.272446777E+01  0.156105410E+00 -0.493911006E-01
   C  0.278267438E+01 -0.145873647E+00  0.999078456E-01
   H -0.144685185E+02 -0.152737052E+01 -0.142642642E+00
   H  0.141627321E+02  0.160369776E+01 -0.866338455E+00
     4
 # iter = 39000  time[fs]=39.00000
   C -0.280289699E+01  0.160857647E+00 -0.504831530E-01
   C  0.286104327E+01 -0.150677585E+00  0.102995228E+00
   H -0.148242751E+02 -0.156626368E+01 -0.145585401E+00
   H  0.145073176E+02  0.164407944E+01 -0.888275335E+00
     4
 # iter = 39500  time[fs]=39.50000
   C -0.288173756E+01  0.165635025E+00 -0.515860059E-01
   C  0.293982219E+01 -0.155507100E+00  0.106095889E+00
   H -0.151804141E+02 -0.160520343E+01 -0.148530544E+00
   H  0.148523015E+02  0.168451294E+01 -0.910239565E+00
     4
 # iter = 40000  time[fs]=40.00000
   C -0.296096739E+01  0.170436292E+00 -0.526990736E-01
   C  0.301898908E+01 -0.160360920E+00  0.109209134E+00
   H -0.155369181E+02 -0.164418773E+01 -0.151477954E+00
   H  0.151976658E+02  0.172499600E+01 -0.932229963E+00
     4
 # iter = 40500  time[fs]=40.50000
   C -0.304056601E+01  0.175260278E+00 -0.538218139E-01
   C  0.309852353E+01 -0.165237861E+00  0.112334320E+00
   H -0.158937708E+02 -0.168321467E+01 -0.154427521E+00
   H  0.155433936E+02  0.176552652E+01 -0.954245425E+00
     4
 # iter = 41000  time[fs]=41.00000
   C -0.312051444E+01  0.180105896E+00 -0.549537247E-01
   C  0.317840661E+01 -0.170136820E+00  0.115470850E+00
   H -0.162509570E+02 -0.172228246E+01 -0.157379143E+00
   H  0.158894690E+02  0.180610251E+01 -0.976284912E+00
     4
 # iter = 41500  time[fs]=41.50000
   C -0.320079505E+01  0.184972129E+00 -0.560943400E-01
   C  0.325862072E+01 -0.175056765E+00  0.118618168E+00
   H -0.166084622E+02 -0.176138941E+01 -0.160332726E+00
   H  0.162358773E+02  0.184672212E+01 -0.998347451E+00
     4
 # iter = 42000  time[fs]=42.00000
   C -0.328139144E+01  0.189858029E+00 -0.572432267E-01
   C  0.333914951E+01 -0.179996734E+00  0.121775759E+00
   H -0.169662733E+02 -0.180053395E+01 -0.163288180E+00
   H  0.165826045E+02  0.188738360E+01 -0.102043213E+01
     4
 # iter = 42500  time[fs]=42.50000
   C -0.336228834E+01  0.194762707E+00 -0.583999818E-01
   C  0.341997775E+01 -0.184955826E+00  0.124943140E+00
   H -0.173243776E+02 -0.183971459E+01 -0.166245423E+00
   H  0.169296377E+02  0.192808532E+01 -0.104253807E+01
     4
 # iter = 43000  time[fs]=43.00000
   C -0.344347149E+01  0.199685331E+00 -0.595642295E-01
   C  0.350109123E+01 -0.189933195E+00  0.128119861E+00
   H -0.176827633E+02 -0.187892993E+01 -0.169204376E+00
   H  0.172769646E+02  0.196882572E+01 -0.106466448E+01
     4
 # iter = 43500  time[fs]=43.50000
   C -0.352492760E+01  0.204625122E+00 -0.607356195E-01
   C  0.358247667E+01 -0.194928051E+00  0.131305502E+00
   H -0.180414194E+02 -0.191817865E+01 -0.172164967E+00
   H  0.176245737E+02  0.200960335E+01 -0.108681058E+01
     4
 # iter = 44000  time[fs]=44.00000
   C -0.360664423E+01  0.209581346E+00 -0.619138240E-01
   C  0.366412168E+01 -0.199939650E+00  0.134499669E+00
   H -0.184003352E+02 -0.195745951E+01 -0.175127128E+00
   H  0.179724540E+02  0.205041682E+01 -0.110897565E+01
     4
 # iter = 44500  time[fs]=44.50000
   C -0.368860973E+01  0.214553316E+00 -0.630985367E-01
   C  0.374601464E+01 -0.204967293E+00  0.137701994E+00
   H -0.187595011E+02 -0.199677134E+01 -0.178090794E+00
   H  0.183205953E+02  0.209126484E+01 -0.113115900E+01
     4
 # iter = 45000  time[fs]=45.00000
   C -0.377081318E+01  0.219540383E+00 -0.642894704E-01
   C  0.382814467E+01 -0.210010323E+00  0.140912129E+00
   H -0.191189075E+02 -0.203611301E+01 -0.181055904E+00
   H  0.186689878E+02  0.213214616E+01 -0.115335999E+01
     4
 # iter = 45500  time[fs]=45.50000
   C -0.385324434E+01  0.224541939E+00 -0.654863559E-01
   C  0.391050155E+01 -0.215068119E+00  0.144129749E+00
   H -0.194785458E+02 -0.207548348E+01 -0.184022402E+00
   H  0.190176225E+02  0.217305963E+01 -0.117557799E+01
     4
 # iter = 46000  time[fs]=46.00000
   C -0.393589359E+01  0.229557408E+00 -0.666889404E-01
   C  0.399307568E+01 -0.220140098E+00  0.147354550E+00
   H -0.198384075E+02 -0.211488174E+01 -0.186990234E+00
   H  0.193664906E+02  0.221400413E+01 -0.119781243E+01
     4
 # iter = 46500  time[fs]=46.50000
   C -0.401875187E+01  0.234586247E+00 -0.678969862E-01
   C  0.407585805E+01 -0.225225709E+00  0.150586242E+00
   H -0.201984848E+02 -0.215430685E+01 -0.189959348E+00
   H  0.197155839E+02  0.225497862E+01 -0.122006275E+01
     4
 # iter = 47000  time[fs]=47.00000
   C -0.410181068E+01  0.239627945E+00 -0.691102697E-01
   C  0.415884016E+01 -0.230324432E+00  0.153824554E+00
   H -0.205587701E+02 -0.219375791E+01 -0.192929697E+00
   H  0.200648947E+02  0.229598209E+01 -0.124232843E+01
     4
 # iter = 47500  time[fs]=47.50000
   C -0.418506197E+01  0.244682016E+00 -0.703285802E-01
   C  0.424201400E+01 -0.235435773E+00  0.157069230E+00
   H -0.209192564E+02 -0.223323406E+01 -0.195901236E+00
   H  0.204144154E+02  0.233701359E+01 -0.126460896E+01
     4
 # iter = 48000  time[fs]=48.00000
   C -0.426849817E+01  0.249748003E+00 -0.715517192E-01
   C  0.432537202E+01 -0.240559266E+00  0.160320028E+00
   H -0.212799369E+02 -0.227273449E+01 -0.198873920E+00
   H  0.207641391E+02  0.237807222E+01 -0.128690386E+01
     4
 # iter = 48500  time[fs]=48.50000
   C -0.435211214E+01  0.254825470E+00 -0.727794990E-01
   C  0.440890710E+01 -0.245694471E+00  0.163576720E+00
   H -0.216408051E+02 -0.231225842E+01 -0.201847711E+00
   H  0.211140590E+02  0.241915712E+01 -0.130921269E+01
     4
 # iter = 49000  time[fs]=49.00000
   C -0.443589710E+01  0.259914007E+00 -0.740117427E-01
   C  0.449261249E+01 -0.250840970E+00  0.166839088E+00
   H -0.220018550E+02 -0.235180511E+01 -0.204822568E+00
   H  0.214641688E+02  0.246026747E+01 -0.133153502E+01
     4
 # iter = 49500  time[fs]=49.50000
   C -0.451984667E+01  0.265013222E+00 -0.752482825E-01
   C  0.457648182E+01 -0.255998364E+00  0.170106929E+00
   H -0.223630807E+02 -0.239137387E+01 -0.207798455E+00
   H  0.218144625E+02  0.250140248E+01 -0.135387042E+01
     4
 # iter = 50000  time[fs]=50.00000
   C -0.460395479E+01  0.270122746E+00 -0.764889601E-01
   C  0.466050905E+01 -0.261166277E+00  0.173380047E+00
   H -0.227244768E+02 -0.243096402E+01 -0.210775337E+00
   H  0.221649342E+02  0.254256141E+01 -0.137621850E+01
     4
 # iter = 50500  time[fs]=50.50000
   C -0.468821572E+01  0.275242226E+00 -0.777336251E-01
   C  0.474468846E+01 -0.266344350E+00  0.176658258E+00
   H -0.230860378E+02 -0.247057491E+01 -0.213753181E+00
   H  0.225155785E+02  0.258374355E+01 -0.139857889E+01
     4
 # iter = 51000  time[fs]=51.00000
   C -0.477262402E+01  0.280371326E+00 -0.789821351E-01
   C  0.482901463E+01 -0.271532244E+00  0.179941387E+00
   H -0.234477587E+02 -0.251020594E+01 -0.216731955E+00
   H  0.228663900E+02  0.262494820E+01 -0.142095122E+01
     4
 # iter = 51500  time[fs]=51.50000
   C -0.485717453E+01  0.285509729E+00 -0.802343550E-01
   C  0.491348241E+01 -0.276729633E+00  0.183229268E+00
   H -0.238096348E+02 -0.254985651E+01 -0.219711630E+00
   H  0.232173638E+02  0.266617473E+01 -0.144333516E+01
     4
 # iter = 52000  time[fs]=52.00000
   C -0.494186233E+01  0.290657130E+00 -0.814901564E-01
   C  0.499808691E+01 -0.281936209E+00  0.186521743E+00
   H -0.241716614E+02 -0.258952607E+01 -0.222692176E+00
   H  0.235684950E+02  0.270742251E+01 -0.146573037E+01
     4
 # iter = 52500  time[fs]=52.50000
   C -0.502668275E+01  0.295813240E+00 -0.827494172E-01
   C  0.508282348E+01 -0.287151677E+00  0.189818660E+00
   H -0.245338341E+02 -0.262921408E+01 -0.225673567E+00
   H  0.239197790E+02  0.274869093E+01 -0.148813654E+01
     4
 # iter = 53000  time[fs]=53.00000
   C -0.511163137E+01  0.300977783E+00 -0.840120215E-01
   C  0.516768769E+01 -0.292375756E+00  0.193119877E+00
   H -0.248961487E+02 -0.266892003E+01 -0.228655775E+00
   H  0.242712116E+02  0.278997942E+01 -0.151055336E+01
     4
 # iter = 53500  time[fs]=53.50000
   C -0.519670395E+01  0.306150496E+00 -0.852778587E-01
   C  0.525267533E+01 -0.297608179E+00  0.196425256E+00
   H -0.252586012E+02 -0.270864341E+01 -0.231638777E+00
   H  0.246227883E+02  0.283128744E+01 -0.153298054E+01
     4
 # iter = 54000  time[fs]=54.00000
   C -0.528189646E+01  0.311331127E+00 -0.865468237E-01
   C  0.533778239E+01 -0.302848689E+00  0.199734668E+00
   H -0.256211877E+02 -0.274838377E+01 -0.234622548E+00
   H  0.249745052E+02  0.287261445E+01 -0.155541781E+01
     4
 # iter = 54500  time[fs]=54.50000
   C -0.536720507E+01  0.316519437E+00 -0.878188160E-01
   C  0.542300505E+01 -0.308097042E+00  0.203047987E+00
   H -0.259839044E+02 -0.278814063E+01 -0.237607065E+00
   H  0.253263585E+02  0.291395996E+01 -0.157786489E+01
     4
 # iter = 55000  time[fs]=55.00000
   C -0.545262612E+01  0.321715194E+00 -0.890937401E-01
   C  0.550833964E+01 -0.313353004E+00  0.206365094E+00
   H -0.263467479E+02 -0.282791358E+01 -0.240592307E+00
   H  0.256783444E+02  0.295532347E+01 -0.160032154E+01
     4
 # iter = 55500  time[fs]=55.50000
   C -0.553815610E+01  0.326918181E+00 -0.903715045E-01
   C  0.559378270E+01 -0.318616351E+00  0.209685877E+00
   H -0.267097146E+02 -0.286770218E+01 -0.243578252E+00
   H  0.260304593E+02  0.299670451E+01 -0.162278749E+01
     4
 # iter = 56000  time[fs]=56.00000
   C -0.562379167E+01  0.332128185E+00 -0.916520220E-01
   C  0.567933088E+01 -0.323886869E+00  0.213010226E+00
   H -0.270728014E+02 -0.290750604E+01 -0.246564881E+00
   H  0.263826998E+02  0.303810264E+01 -0.164526252E+01
     4
 # iter = 56500  time[fs]=56.50000
   C -0.570952965E+01  0.337345006E+00 -0.929352093E-01
   C  0.576498100E+01 -0.329164352E+00  0.216338037E+00
   H -0.274360051E+02 -0.294732476E+01 -0.249552175E+00
   H  0.267350627E+02  0.307951743E+01 -0.166774639E+01
     4
 # iter = 57000  time[fs]=57.00000
   C -0.579536697E+01  0.342568450E+00 -0.942209866E-01
   C  0.585073003E+01 -0.334448604E+00  0.219669211E+00
   H -0.277993227E+02 -0.298715798E+01 -0.252540115E+00
   H  0.270875448E+02  0.312094845E+01 -0.169023888E+01
     4
 # iter = 57500  time[fs]=57.50000
   C -0.588130071E+01  0.347798332E+00 -0.955092775E-01
   C  0.593657505E+01 -0.339739436E+00  0.223003651E+00
   H -0.281627511E+02 -0.302700533E+01 -0.255528683E+00
   H  0.274401429E+02  0.316239531E+01 -0.171273979E+01
     4
 # iter = 58000  time[fs]=58.00000
   C -0.596732807E+01  0.353034474E+00 -0.968000091E-01
   C  0.602251327E+01 -0.345036667E+00  0.226341268E+00
   H -0.285262877E+02 -0.306686647E+01 -0.258517862E+00
   H  0.277928543E+02  0.320385763E+01 -0.173524891E+01
     4
 # iter = 58500  time[fs]=58.50000
   C -0.605344637E+01  0.358276707E+00 -0.980931113E-01
   C  0.610854201E+01 -0.350340123E+00  0.229681972E+00
   H -0.288899298E+02 -0.310674106E+01 -0.261507637E+00
   H  0.281456761E+02  0.324533502E+01 -0.175776604E+01
     4
 # iter = 59000  time[fs]=59.00000
   C -0.613965303E+01  0.363524865E+00 -0.993885170E-01
   C  0.619465872E+01 -0.355649637E+00  0.233025680E+00
   H -0.292536747E+02 -0.314662879E+01 -0.264497990E+00
   H  0.284986055E+02  0.328682713E+01 -0.178029099E+01
     4
 # iter = 59500  time[fs]=59.50000
   C -0.622594560E+01  0.368778792E+00 -0.100686162E+00
   C  0.628086093E+01 -0.360965049E+00  0.236372310E+00
   H -0.296175199E+02 -0.318652934E+01 -0.267488909E+00
   H  0.288516399E+02  0.332833361E+01 -0.180282358E+01
     4
 # iter = 60000  time[fs]=60.00000
   C -0.631232170E+01  0.374038336E+00 -0.101985984E+00
   C  0.636714630E+01 -0.366286204E+00  0.239721785E+00
   H -0.299814630E+02 -0.322644241E+01 -0.270480377E+00
   H  0.292047769E+02  0.336985414E+01 -0.182536362E+01
     4
 # iter = 60500  time[fs]=60.50000
   C -0.639877906E+01  0.379303352E+00 -0.103287925E+00
   C  0.645351254E+01 -0.371612954E+00  0.243074031E+00
   H -0.303455017E+02 -0.326636772E+01 -0.273472381E+00
   H  0.295580140E+02  0.341138838E+01 -0.184791096E+01
     4
 # iter = 61000  time[fs]=61.00000
   C -0.648531549E+01  0.384573699E+00 -0.104591926E+00
   C  0.653995750E+01 -0.376945157E+00  0.246428975E+00
   H -0.307096338E+02 -0.330630498E+01 -0.276464907E+00
   H  0.299113488E+02  0.345293602E+01 -0.187046543E+01
     4
 # iter = 61500  time[fs]=61.50000
   C -0.657192890E+01  0.389849242E+00 -0.105897934E+00
   C  0.662647907E+01 -0.382282674E+00  0.249786548E+00
   H -0.310738570E+02 -0.334625394E+01 -0.279457943E+00
   H  0.302647791E+02  0.349449677E+01 -0.189302685E+01
     4
 # iter = 62000  time[fs]=62.00000
   C -0.665861726E+01  0.395129853E+00 -0.107205896E+00
   C  0.671307524E+01 -0.387625374E+00  0.253146684E+00
   H -0.314381693E+02 -0.338621431E+01 -0.282451476E+00
   H  0.306183027E+02  0.353607034E+01 -0.191559509E+01
     4
 # iter = 62500  time[fs]=62.50000
   C -0.674537864E+01  0.400415405E+00 -0.108515761E+00
   C  0.679974409E+01 -0.392973128E+00  0.256509319E+00
   H -0.318025687E+02 -0.342618586E+01 -0.285445494E+00
   H  0.309719174E+02  0.357765643E+01 -0.193816999E+01
     4
 # iter = 63000  time[fs]=63.00000
   C -0.683221116E+01  0.405705778E+00 -0.109827480E+00
   C  0.688648375E+01 -0.398325814E+00  0.259874391E+00
   H -0.321670532E+02 -0.346616834E+01 -0.288439986E+00
   H  0.313256213E+02  0.361925478E+01 -0.196075141E+01
     4
 # iter = 63500  time[fs]=63.50000
   C -0.691911304E+01  0.411000855E+00 -0.111141007E+00
   C  0.697329243E+01 -0.403683313E+00  0.263241840E+00
   H -0.325316208E+02 -0.350616152E+01 -0.291434939E+00
   H  0.316794123E+02  0.366086513E+01 -0.198333920E+01
     4
 # iter = 64000  time[fs]=64.00000
   C -0.700608252E+01  0.416300525E+00 -0.112456296E+00
   C  0.706016840E+01 -0.409045510E+00  0.266611610E+00
   H -0.328962699E+02 -0.354616516E+01 -0.294430344E+00
   H  0.320332886E+02  0.370248721E+01 -0.200593324E+01
     4
 # iter = 64500  time[fs]=64.50000
   C -0.709311794E+01  0.421604679E+00 -0.113773305E+00
   C  0.714711000E+01 -0.414412296E+00  0.269983644E+00
   H -0.332609985E+02 -0.358617904E+01 -0.297426190E+00
   H  0.323872482E+02  0.374412079E+01 -0.202853339E+01
     4
 # iter = 65000  time[fs]=65.00000
   C -0.718021770E+01  0.426913212E+00 -0.115091990E+00
   C  0.723411562E+01 -0.419783562E+00  0.273357890E+00
   H -0.336258051E+02 -0.362620296E+01 -0.300422467E+00
   H  0.327412894E+02  0.378576563E+01 -0.205113952E+01
     4
 # iter = 65500  time[fs]=65.50000
   C -0.726738023E+01  0.432226023E+00 -0.116412311E+00
   C  0.732118371E+01 -0.425159207E+00  0.276734295E+00
   H -0.339906879E+02 -0.366623670E+01 -0.303419164E+00
   H  0.330954105E+02  0.382742148E+01 -0.207375152E+01
     4
 # iter = 66000  time[fs]=66.00000
   C -0.735460404E+01  0.437543015E+00 -0.117734229E+00
   C  0.740831279E+01 -0.430539130E+00  0.280112811E+00
   H -0.343556453E+02 -0.370628006E+01 -0.306416273E+00
   H  0.334496098E+02  0.386908813E+01 -0.209636925E+01
     4
 # iter = 66500  time[fs]=66.50000
   C -0.744188768E+01  0.442864093E+00 -0.119057707E+00
   C  0.749550140E+01 -0.435923235E+00  0.283493388E+00
   H -0.347206758E+02 -0.374633285E+01 -0.309413785E+00
   H  0.338038856E+02  0.391076536E+01 -0.211899261E+01
     4
 # iter = 67000  time[fs]=67.00000
   C -0.752922975E+01  0.448189166E+00 -0.120382709E+00
   C  0.758274816E+01 -0.441311430E+00  0.286875981E+00
   H -0.350857779E+02 -0.378639487E+01 -0.312411691E+00
   H  0.341582364E+02  0.395245295E+01 -0.214162149E+01
     4
 # iter = 67500  time[fs]=67.50000
   C -0.761662890E+01  0.453518146E+00 -0.121709198E+00
   C  0.767005173E+01 -0.446703623E+00  0.290260545E+00
   H -0.354509501E+02 -0.382646595E+01 -0.315409981E+00
   H  0.345126606E+02  0.399415071E+01 -0.216425577E+01
     4
 # iter = 68000  time[fs]=68.00000
   C -0.770408383E+01  0.458850947E+00 -0.123037141E+00
   C  0.775741080E+01 -0.452099728E+00  0.293647035E+00
   H -0.358161909E+02 -0.386654591E+01 -0.318408648E+00
   H  0.348671568E+02  0.403585843E+01 -0.218689535E+01
     4
 # iter = 68500  time[fs]=68.50000
   C -0.779159327E+01  0.464187486E+00 -0.124366505E+00
   C  0.784482412E+01 -0.457499660E+00  0.297035410E+00
   H -0.361814991E+02 -0.390663457E+01 -0.321407684E+00
   H  0.352217235E+02  0.407757591E+01 -0.220954013E+01
     4
 # iter = 69000  time[fs]=69.00000
   C -0.787915601E+01  0.469527684E+00 -0.125697258E+00
   C  0.793229046E+01 -0.462903338E+00  0.300425630E+00
   H -0.365468733E+02 -0.394673177E+01 -0.324407082E+00
   H  0.355763594E+02  0.411930298E+01 -0.223219000E+01
     4
 # iter = 69500  time[fs]=69.50000
   C -0.796677086E+01  0.474871463E+00 -0.127029370E+00
   C  0.801980867E+01 -0.468310682E+00  0.303817654E+00
   H -0.369123121E+02 -0.398683733E+01 -0.327406832E+00
   H  0.359310630E+02  0.416103944E+01 -0.225484487E+01
     4
 # iter = 70000  time[fs]=70.00000
   C -0.805443669E+01  0.480218748E+00 -0.128362811E+00
   C  0.810737760E+01 -0.473721616E+00  0.307211444E+00
   H -0.372778144E+02 -0.402695112E+01 -0.330406929E+00
   H  0.362858331E+02  0.420278513E+01 -0.227750466E+01
     4
 # iter = 70500  time[fs]=70.50000
   C -0.814215238E+01  0.485569466E+00 -0.129697552E+00
   C  0.819499615E+01 -0.479136065E+00  0.310606964E+00
   H -0.376433788E+02 -0.406707296E+01 -0.333407365E+00
   H  0.366406683E+02  0.424453986E+01 -0.230016925E+01
     4
 # iter = 71000  time[fs]=71.00000
   C -0.822991687E+01  0.490923546E+00 -0.131033564E+00
   C  0.828266324E+01 -0.484553957E+00  0.314004178E+00
   H -0.380090043E+02 -0.410720271E+01 -0.336408133E+00
   H  0.369955675E+02  0.428630348E+01 -0.232283857E+01
     4
 # iter = 71500  time[fs]=71.50000
   C -0.831772911E+01  0.496280920E+00 -0.132370822E+00
   C  0.837037786E+01 -0.489975223E+00  0.317403050E+00
   H -0.383746897E+02 -0.414734023E+01 -0.339409227E+00
   H  0.373505294E+02  0.432807581E+01 -0.234551253E+01
     4
 # iter = 72000  time[fs]=72.00000
   C -0.840558811E+01  0.501641521E+00 -0.133709299E+00
   C  0.845813900E+01 -0.495399794E+00  0.320803548E+00
   H -0.387404338E+02 -0.418748537E+01 -0.342410640E+00
   H  0.377055529E+02  0.436985670E+01 -0.236819104E+01
     4
 # iter = 72500  time[fs]=72.50000
   C -0.849349289E+01  0.507005285E+00 -0.135048970E+00
   C  0.854594569E+01 -0.500827604E+00  0.324205637E+00
   H -0.391062355E+02 -0.422763799E+01 -0.345412366E+00
   H  0.380606367E+02  0.441164600E+01 -0.239087403E+01
     4
 # iter = 73000  time[fs]=73.00000
   C -0.858144250E+01  0.512372149E+00 -0.136389809E+00
   C  0.863379698E+01 -0.506258590E+00  0.327609288E+00
   H -0.394720939E+02 -0.426779797E+01 -0.348414399E+00
   H  0.384157799E+02  0.445344355E+01 -0.241356141E+01
     4
 # iter = 73500  time[fs]=73.50000
   C -0.866943603E+01  0.517742052E+00 -0.137731793E+00
   C  0.872169197E+01 -0.511692689E+00  0.331014468E+00
   H -0.398380078E+02 -0.430796517E+01 -0.351416733E+00
   H  0.387709813E+02  0.449524921E+01 -0.243625311E+01
     4
 # iter = 74000  time[fs]=74.00000
   C -0.875747259E+01  0.523114937E+00 -0.139074899E+00
   C  0.880962977E+01 -0.517129842E+00  0.334421148E+00
   H -0.402039762E+02 -0.434813946E+01 -0.354419361E+00
   H  0.391262399E+02  0.453706283E+01 -0.245894904E+01
     4
 # iter = 74500  time[fs]=74.50000
   C -0.884555131E+01  0.528490744E+00 -0.140419105E+00
   C  0.889760953E+01 -0.522569989E+00  0.337829299E+00
   H -0.405699983E+02 -0.438832072E+01 -0.357422280E+00
   H  0.394815546E+02  0.457888429E+01 -0.248164915E+01
     4
 # iter = 75000  time[fs]=75.00000
   C -0.893367137E+01  0.533869419E+00 -0.141764388E+00
   C  0.898563040E+01 -0.528013074E+00  0.341238892E+00
   H -0.409360730E+02 -0.442850883E+01 -0.360425482E+00
   H  0.398369245E+02  0.462071343E+01 -0.250435335E+01
     4
 # iter = 75500  time[fs]=75.50000
   C -0.902183194E+01  0.539250907E+00 -0.143110728E+00
   C  0.907369158E+01 -0.533459041E+00  0.344649900E+00
   H -0.413021993E+02 -0.446870367E+01 -0.363428963E+00
   H  0.401923486E+02  0.466255014E+01 -0.252706157E+01
     4
 # iter = 76000  time[fs]=76.00000
   C -0.911003223E+01  0.544635155E+00 -0.144458104E+00
   C  0.916179228E+01 -0.538907836E+00  0.348062297E+00
   H -0.416683765E+02 -0.450890513E+01 -0.366432718E+00
   H  0.405478259E+02  0.470439428E+01 -0.254977375E+01
     4
 # iter = 76500  time[fs]=76.50000
   C -0.919827149E+01  0.550022113E+00 -0.145806495E+00
   C  0.924993175E+01 -0.544359408E+00  0.351476057E+00
   H -0.420346037E+02 -0.454911310E+01 -0.369436741E+00
   H  0.409033555E+02  0.474624573E+01 -0.257248982E+01
     4
 # iter = 77000  time[fs]=77.00000
   C -0.928654895E+01  0.555411731E+00 -0.147155883E+00
   C  0.933810923E+01 -0.549813706E+00  0.354891153E+00
   H -0.424008799E+02 -0.458932746E+01 -0.372441028E+00
   H  0.412589366E+02  0.478810436E+01 -0.259520971E+01
     4
 # iter = 77500  time[fs]=77.50000
   C -0.937486391E+01  0.560803960E+00 -0.148506249E+00
   C  0.942632400E+01 -0.555270679E+00  0.358307563E+00
   H -0.427672043E+02 -0.462954812E+01 -0.375445574E+00
   H  0.416145683E+02  0.482997006E+01 -0.261793337E+01
     4
 # iter = 78000  time[fs]=78.00000
   C -0.946321565E+01  0.566198753E+00 -0.149857574E+00
   C  0.951457537E+01 -0.560730279E+00  0.361725261E+00
   H -0.431335761E+02 -0.466977496E+01 -0.378450375E+00
   H  0.419702496E+02  0.487184271E+01 -0.264066073E+01
     4
 # iter = 78500  time[fs]=78.50000
   C -0.955160349E+01  0.571596063E+00 -0.151209840E+00
   C  0.960286265E+01 -0.566192461E+00  0.365144225E+00
   H -0.434999946E+02 -0.471000789E+01 -0.381455425E+00
   H  0.423259798E+02  0.491372221E+01 -0.266339173E+01
     4
 # iter = 79000  time[fs]=79.00000
   C -0.964002676E+01  0.576995847E+00 -0.152563031E+00
   C  0.969118518E+01 -0.571657177E+00  0.368564432E+00
   H -0.438664590E+02 -0.475024681E+01 -0.384460721E+00
   H  0.426817581E+02  0.495560842E+01 -0.268612631E+01
     4
 # iter = 79500  time[fs]=79.50000
   C -0.972848481E+01  0.582398061E+00 -0.153917129E+00
   C  0.977954231E+01 -0.577124383E+00  0.371985860E+00
   H -0.442329684E+02 -0.479049162E+01 -0.387466259E+00
   H  0.430375836E+02  0.499750126E+01 -0.270886442E+01
     4
 # iter = 80000  time[fs]=80.00000
   C -0.981697702E+01  0.587802663E+00 -0.155272117E+00
   C  0.986793342E+01 -0.582594037E+00  0.375408488E+00
   H -0.445995223E+02 -0.483074223E+01 -0.390472033E+00
   H  0.433934557E+02  0.503940062E+01 -0.273160600E+01
