     4
 # iter = 25000  time[fs]=25.00000
   C -0.951749414E+00  0.552057656E-01  0.212151608E-01
   C  0.992506187E+00  0.371418157E-02 -0.728739003E-02
   H -0.526638382E+01 -0.401561702E+00  0.263085161E+00
   H  0.522981579E+01  0.481193252E+00  0.119358631E+00
     4
 # iter = 25500  time[fs]=25.50000
   C -0.993582067E+00  0.580036597E-01  0.198546357E-01
   C  0.103284399E+01  0.177675016E-02 -0.769461024E-02
   H -0.559357557E+01 -0.430021715E+00  0.274868712E+00
   H  0.554572026E+01  0.510615097E+00  0.126236674E+00
     4
 # iter = 26000  time[fs]=26.00000
   C -0.103801240E+01  0.608849786E-01  0.185218675E-01
   C  0.107577207E+01 -0.246016141E-03 -0.814504224E-02
   H -0.592343701E+01 -0.458726847E+00  0.286778605E+00
   H  0.586438332E+01  0.540304983E+00  0.133173834E+00
     4
 # iter = 26500  time[fs]=26.50000
   C -0.108483311E+01  0.638454998E-01  0.172125171E-01
   C  0.112108364E+01 -0.234969104E-02 -0.863254391E-02
   H -0.625567428E+01 -0.487650595E+00  0.298799643E+00
   H  0.618550482E+01  0.570233959E+00  0.140163669E+00
     4
 # iter = 27000  time[fs]=27.00000
   C -0.113385070E+01  0.668809615E-01  0.159228601E-01
   C  0.116858571E+01 -0.452983935E-02 -0.915188459E-02
   H -0.659003857E+01 -0.516770529E+00  0.310919186E+00
   H  0.650883004E+01  0.600377518E+00  0.147200750E+00
     4
 # iter = 27500  time[fs]=27.50000
   C -0.118488621E+01  0.699871395E-01  0.146497234E-01
   C  0.121809975E+01 -0.678208855E-02 -0.969862056E-02
   H -0.692631749E+01 -0.546067500E+00  0.323126607E+00
   H  0.683414109E+01  0.630714727E+00  0.154280451E+00
     4
 # iter = 28000  time[fs]=28.00000
   C -0.123777519E+01  0.731599092E-01  0.133904184E-01
   C  0.126946175E+01 -0.910218598E-02 -0.102689813E-01
   H -0.726432838E+01 -0.575525028E+00  0.335412898E+00
   H  0.716125023E+01  0.661227573E+00  0.161398800E+00
     4
 # iter = 28500  time[fs]=28.50000
   C -0.129236725E+01  0.763952911E-01  0.121426754E-01
   C  0.132252172E+01 -0.114860411E-01 -0.108597686E-01
   H -0.760391311E+01 -0.605128833E+00  0.347770352E+00
   H  0.748999466E+01  0.691900441E+00  0.168552359E+00
     4
 # iter = 29000  time[fs]=29.00000
   C -0.134852537E+01  0.796894827E-01  0.109045827E-01
   C  0.137714298E+01 -0.139297542E-01 -0.114682680E-01
   H -0.794493389E+01 -0.634866454E+00  0.360192334E+00
   H  0.782023236E+01  0.722719705E+00  0.175738131E+00
     4
 # iter = 29500  time[fs]=29.50000
   C -0.140612500E+01  0.830388780E-01  0.967453269E-02
   C  0.143320130E+01 -0.164296340E-01 -0.120921730E-01
   H -0.828727000E+01 -0.664726961E+00  0.372673086E+00
   H  0.815183869E+01  0.753673410E+00  0.182953489E+00
     4
 # iter = 30000  time[fs]=30.00000
   C -0.146505308E+01  0.864400778E-01  0.845117395E-02
   C  0.149058393E+01 -0.189822058E-01 -0.127295203E-01
   H -0.863081508E+01 -0.694700707E+00  0.385207584E+00
   H  0.848470375E+01  0.784751005E+00  0.190196113E+00
     4
 # iter = 30500  time[fs]=30.50000
   C -0.152520707E+01  0.898898924E-01  0.723337078E-02
   C  0.154918859E+01 -0.215842132E-01 -0.133786353E-01
   H -0.897547501E+01 -0.724779139E+00  0.397791417E+00
   H  0.881873018E+01  0.815943135E+00  0.197463950E+00
     4
 # iter = 31000  time[fs]=31.00000
   C -0.158649400E+01  0.933853398E-01  0.602016831E-02
   C  0.160892257E+01 -0.242326144E-01 -0.140380864E-01
   H -0.932116608E+01 -0.754954636E+00  0.410420693E+00
   H  0.915383130E+01  0.847241463E+00  0.204755166E+00
     4
 # iter = 31500  time[fs]=31.50000
   C -0.164882954E+01  0.969236391E-01  0.481076318E-02
   C  0.166970175E+01 -0.269245753E-01 -0.147066459E-01
   H -0.966781356E+01 -0.785220383E+00  0.423091961E+00
   H  0.948992964E+01  0.878638533E+00  0.212068124E+00
     4
 # iter = 32000  time[fs]=32.00000
   C -0.171213719E+01  0.100502202E+00  0.360447894E-02
   C  0.173144985E+01 -0.296574598E-01 -0.153832585E-01
   H -0.100153504E+02 -0.815570256E+00  0.435802145E+00
   H  0.982695573E+01  0.910127645E+00  0.219401352E+00
     4
 # iter = 32500  time[fs]=32.50000
   C -0.177634746E+01  0.104118624E+00  0.240074546E-02
   C  0.179409756E+01 -0.324288193E-01 -0.160670143E-01
   H -0.103637164E+02 -0.845998734E+00  0.448548497E+00
   H  0.101648470E+02  0.941702759E+00  0.226753521E+00
     4
 # iter = 33000  time[fs]=33.00000
   C -0.184139718E+01  0.107770671E+00  0.119908168E-02
   C  0.185758189E+01 -0.352363813E-01 -0.167571263E-01
   H -0.107128571E+02 -0.876500823E+00  0.461328546E+00
   H  0.105035469E+02  0.973358411E+00  0.234123432E+00
     4
 # iter = 33500  time[fs]=33.50000
   C -0.190722885E+01  0.111456271E+00 -0.918655953E-06
   C  0.192184550E+01 -0.380780372E-01 -0.174529119E-01
   H -0.110627231E+02 -0.907071989E+00  0.474140066E+00
   H  0.108430042E+02  0.100508964E+01  0.241509993E+00
     4
 # iter = 34000  time[fs]=34.00000
   C -0.197379007E+01  0.115173499E+00 -0.119959900E-02
   C  0.198683614E+01 -0.409518311E-01 -0.181537770E-01
   H -0.114132697E+02 -0.937708106E+00  0.486981044E+00
   H  0.111831723E+02  0.103689193E+01  0.248912211E+00
     4
 # iter = 34500  time[fs]=34.50000
   C -0.204103301E+01  0.118920570E+00 -0.239724995E-02
   C  0.205250612E+01 -0.438559483E-01 -0.188592033E-01
   H -0.117644560E+02 -0.968405405E+00  0.499849653E+00
   H  0.115240088E+02  0.106876116E+01  0.256329179E+00
     4
 # iter = 35000  time[fs]=35.00000
   C -0.210891397E+01  0.122695829E+00 -0.359411753E-02
   C  0.211881186E+01 -0.467887049E-01 -0.195687370E-01
   H -0.121162449E+02 -0.999160439E+00  0.512744230E+00
   H  0.118654748E+02  0.110069356E+01  0.263760067E+00
     4
 # iter = 35500  time[fs]=35.50000
   C -0.217739293E+01  0.126497735E+00 -0.479041019E-02
   C  0.218571346E+01 -0.497485372E-01 -0.202819796E-01
   H -0.124686020E+02 -0.102997004E+01  0.525663259E+00
   H  0.122075349E+02  0.113268566E+01  0.271204111E+00
     4
 # iter = 36000  time[fs]=36.00000
   C -0.224643322E+01  0.130324859E+00 -0.598630456E-02
   C  0.225317435E+01 -0.527339925E-01 -0.209985803E-01
   H -0.128214961E+02 -0.106083130E+01  0.538605350E+00
   H  0.125501562E+02  0.116473427E+01  0.278660612E+00
     4
 # iter = 36500  time[fs]=36.50000
   C -0.231600115E+01  0.134175873E+00 -0.718195033E-02
   C  0.232116095E+01 -0.557437203E-01 -0.217182295E-01
   H -0.131748982E+02 -0.109174153E+01  0.551569231E+00
   H  0.128933089E+02  0.119683646E+01  0.286128920E+00
     4
 # iter = 37000  time[fs]=37.00000
   C -0.238606575E+01  0.138049537E+00 -0.837747433E-02
   C  0.238964239E+01 -0.587764640E-01 -0.224406528E-01
   H -0.135287819E+02 -0.112269825E+01  0.564553729E+00
   H  0.132369650E+02  0.122898951E+01  0.293608440E+00
     4
 # iter = 37500  time[fs]=37.50000
   C -0.245659850E+01  0.141944701E+00 -0.957298395E-02
   C  0.245859023E+01 -0.618310535E-01 -0.231656067E-01
   H -0.138831224E+02 -0.115369916E+01  0.577557765E+00
   H  0.135810990E+02  0.126119091E+01  0.301098616E+00
     4
 # iter = 38000  time[fs]=38.00000
   C -0.252757308E+01  0.145860291E+00 -0.107685701E-01
   C  0.252797823E+01 -0.649063981E-01 -0.238928745E-01
   H -0.142378970E+02 -0.118474213E+01  0.590580343E+00
   H  0.139256872E+02  0.129343833E+01  0.308598935E+00
     4
 # iter = 38500  time[fs]=38.50000
   C -0.259896520E+01  0.149795305E+00 -0.119643094E-01
   C  0.259778218E+01 -0.680014805E-01 -0.246222626E-01
   H -0.145930846E+02 -0.121582519E+01  0.603620539E+00
   H  0.142707074E+02  0.132572960E+01  0.316108919E+00
     4
 # iter = 39000  time[fs]=39.00000
   C -0.267075236E+01  0.153748807E+00 -0.131602668E-01
   C  0.266797965E+01 -0.711153507E-01 -0.253535981E-01
   H -0.149486655E+02 -0.124694648E+01  0.616677497E+00
   H  0.146161391E+02  0.135806269E+01  0.323628124E+00
     4
 # iter = 39500  time[fs]=39.50000
   C -0.274291373E+01  0.157719923E+00 -0.143564964E-01
   C  0.273854988E+01 -0.742471206E-01 -0.260867256E-01
   H -0.153046215E+02 -0.127810430E+01  0.629750423E+00
   H  0.149619634E+02  0.139043574E+01  0.331156135E+00
     4
 # iter = 40000  time[fs]=40.00000
   C -0.281543000E+01  0.161707834E+00 -0.155530441E-01
   C  0.280947361E+01 -0.773959596E-01 -0.268215056E-01
   H -0.156609355E+02 -0.130929702E+01  0.642838577E+00
   H  0.153081624E+02  0.142284698E+01  0.338692564E+00
     4
 # iter = 40500  time[fs]=40.50000
   C -0.288828319E+01  0.165711775E+00 -0.167499478E-01
   C  0.288073293E+01 -0.805610895E-01 -0.275578125E-01
   H -0.160175915E+02 -0.134052316E+01  0.655941268E+00
   H  0.156547194E+02  0.145529477E+01  0.346237049E+00
     4
 # iter = 41000  time[fs]=41.00000
   C -0.296145661E+01  0.169731027E+00 -0.179472390E-01
   C  0.295231120E+01 -0.837417811E-01 -0.282955326E-01
   H -0.163745748E+02 -0.137178129E+01  0.669057854E+00
   H  0.160016190E+02  0.148777757E+01  0.353789249E+00
     4
 # iter = 41500  time[fs]=41.50000
   C -0.303493469E+01  0.173764916E+00 -0.191449438E-01
   C  0.302419291E+01 -0.869373501E-01 -0.290345632E-01
   H -0.167318713E+02 -0.140307011E+01  0.682187731E+00
   H  0.163488466E+02  0.152029392E+01  0.361348847E+00
     4
 # iter = 42000  time[fs]=42.00000
   C -0.310870292E+01  0.177812810E+00 -0.203430834E-01
   C  0.309636359E+01 -0.901471537E-01 -0.297748113E-01
   H -0.170894680E+02 -0.143438837E+01  0.695330337E+00
   H  0.166963884E+02  0.155284249E+01  0.368915543E+00
     4
 # iter = 42500  time[fs]=42.50000
   C -0.318274774E+01  0.181874112E+00 -0.215416748E-01
   C  0.316880973E+01 -0.933705877E-01 -0.305161920E-01
   H -0.174473525E+02 -0.146573490E+01  0.708485141E+00
   H  0.170442317E+02  0.158542198E+01  0.376489055E+00
     4
 # iter = 43000  time[fs]=43.00000
   C -0.325705647E+01  0.185948264E+00 -0.227407317E-01
   C  0.324151870E+01 -0.966070835E-01 -0.312586285E-01
   H -0.178055134E+02 -0.149710862E+01  0.721651648E+00
   H  0.173923643E+02  0.161803120E+01  0.384069118E+00
     4
 # iter = 43500  time[fs]=43.50000
   C -0.333161724E+01  0.190034738E+00 -0.239402645E-01
   C  0.331447866E+01 -0.998561056E-01 -0.320020503E-01
   H -0.181639398E+02 -0.152850847E+01  0.734829391E+00
   H  0.177407750E+02  0.165066902E+01  0.391655482E+00
     4
 # iter = 44000  time[fs]=44.00000
   C -0.340641895E+01  0.194133037E+00 -0.251402812E-01
   C  0.338767855E+01 -0.103117149E+00 -0.327463934E-01
   H -0.185226214E+02 -0.155993348E+01  0.748017929E+00
   H  0.180894530E+02  0.168333436E+01  0.399247911E+00
     4
 # iter = 44500  time[fs]=44.50000
   C -0.348145113E+01  0.198242691E+00 -0.263407875E-01
   C  0.346110795E+01 -0.106389737E+00 -0.334915989E-01
   H -0.188815486E+02 -0.159138273E+01  0.761216850E+00
   H  0.184383881E+02  0.171602621E+01  0.406846181E+00
     4
 # iter = 45000  time[fs]=45.00000
   C -0.355670401E+01  0.202363257E+00 -0.275417869E-01
   C  0.353475710E+01 -0.109673421E+00 -0.342376129E-01
   H -0.192407121E+02 -0.162285535E+01  0.774425761E+00
   H  0.187875709E+02  0.174874361E+01  0.414450082E+00
     4
 # iter = 45500  time[fs]=45.50000
   C -0.363216834E+01  0.206494317E+00 -0.287432817E-01
   C  0.360861681E+01 -0.112967774E+00 -0.349843860E-01
   H -0.196001034E+02 -0.165435050E+01  0.787644293E+00
   H  0.191369923E+02  0.178148567E+01  0.422059414E+00
     4
 # iter = 46000  time[fs]=46.00000
   C -0.370783546E+01  0.210635475E+00 -0.299452724E-01
   C  0.368267843E+01 -0.116272395E+00 -0.357318726E-01
   H -0.199597144E+02 -0.168586741E+01  0.800872098E+00
   H  0.194866438E+02  0.181425152E+01  0.429673988E+00
     4
 # iter = 46500  time[fs]=46.50000
   C -0.378369720E+01  0.214786356E+00 -0.311477585E-01
   C  0.375693383E+01 -0.119586903E+00 -0.364800308E-01
   H -0.203195372E+02 -0.171740533E+01  0.814108844E+00
   H  0.198365172E+02  0.184704035E+01  0.437293623E+00
     4
 # iter = 47000  time[fs]=47.00000
   C -0.385974583E+01  0.218946603E+00 -0.323507384E-01
   C  0.383137531E+01 -0.122910936E+00 -0.372288219E-01
   H -0.206795645E+02 -0.174896354E+01  0.827354219E+00
   H  0.201866048E+02  0.187985138E+01  0.444918149E+00
     4
 # iter = 47500  time[fs]=47.50000
   C -0.393597407E+01  0.223115881E+00 -0.335542095E-01
   C  0.390599561E+01 -0.126244153E+00 -0.379782101E-01
   H -0.210397893E+02 -0.178054139E+01  0.840607925E+00
   H  0.205368995E+02  0.191268388E+01  0.452547405E+00
     4
 # iter = 48000  time[fs]=48.00000
   C -0.401237505E+01  0.227293869E+00 -0.347581685E-01
   C  0.398078790E+01 -0.129586228E+00 -0.387281623E-01
   H -0.214002050E+02 -0.181213823E+01  0.853869680E+00
   H  0.208873941E+02  0.194553715E+01  0.460181235E+00
     4
 # iter = 48500  time[fs]=48.50000
   C -0.408894225E+01  0.231480264E+00 -0.359626117E-01
   C  0.405574567E+01 -0.132936854E+00 -0.394786478E-01
   H -0.217608054E+02 -0.184375345E+01  0.867139217E+00
   H  0.212380822E+02  0.197841053E+01  0.467819493E+00
     4
 # iter = 49000  time[fs]=49.00000
   C -0.416566953E+01  0.235674776E+00 -0.371675345E-01
   C  0.413086280E+01 -0.136295736E+00 -0.402296383E-01
   H -0.221215843E+02 -0.187538648E+01  0.880416280E+00
   H  0.215889574E+02  0.201130338E+01  0.475462038E+00
     4
 # iter = 49500  time[fs]=49.50000
   C -0.424255103E+01  0.239877132E+00 -0.383729321E-01
   C  0.420613347E+01 -0.139662596E+00 -0.409811072E-01
   H -0.224825362E+02 -0.190703676E+01  0.893700627E+00
   H  0.219400139E+02  0.204421509E+01  0.483108739E+00
     4
 # iter = 50000  time[fs]=50.00000
   C -0.431958122E+01  0.244087070E+00 -0.395787991E-01
   C  0.428155216E+01 -0.143037169E+00 -0.417330299E-01
   H -0.228436555E+02 -0.193870376E+01  0.906992028E+00
   H  0.222912458E+02  0.207714510E+01  0.490759466E+00
     4
 # iter = 50500  time[fs]=50.50000
   C -0.439675486E+01  0.248304340E+00 -0.407851301E-01
   C  0.435711364E+01 -0.146419201E+00 -0.424853836E-01
   H -0.232049371E+02 -0.197038699E+01  0.920290261E+00
   H  0.226426478E+02  0.211009284E+01  0.498414099E+00
     4
 # iter = 51000  time[fs]=51.00000
   C -0.447406694E+01  0.252528707E+00 -0.419919193E-01
   C  0.443281295E+01 -0.149808451E+00 -0.432381469E-01
   H -0.235663761E+02 -0.200208595E+01  0.933595117E+00
   H  0.229942147E+02  0.214305780E+01  0.506072522E+00
     4
 # iter = 51500  time[fs]=51.50000
   C -0.455151274E+01  0.256759942E+00 -0.431991604E-01
   C  0.450864536E+01 -0.153204690E+00 -0.439912998E-01
   H -0.239279676E+02 -0.203380019E+01  0.946906396E+00
   H  0.233459415E+02  0.217603947E+01  0.513734623E+00
     4
 # iter = 52000  time[fs]=52.00000
   C -0.462908774E+01  0.260997832E+00 -0.444068476E-01
   C  0.458460638E+01 -0.156607698E+00 -0.447448237E-01
   H -0.242897072E+02 -0.206552928E+01  0.960223905E+00
   H  0.236978234E+02  0.220903736E+01  0.521400296E+00
     4
 # iter = 52500  time[fs]=52.50000
   C -0.470678765E+01  0.265242168E+00 -0.456149743E-01
   C  0.466069172E+01 -0.160017266E+00 -0.454987012E-01
   H -0.246515906E+02 -0.209727278E+01  0.973547461E+00
   H  0.240498561E+02  0.224205103E+01  0.529069440E+00
     4
 # iter = 53000  time[fs]=53.00000
   C -0.478460837E+01  0.269492755E+00 -0.468235343E-01
   C  0.473689733E+01 -0.163433193E+00 -0.462529159E-01
   H -0.250136135E+02 -0.212903030E+01  0.986876890E+00
   H  0.244020350E+02  0.227508002E+01  0.536741957E+00
     4
 # iter = 53500  time[fs]=53.50000
   C -0.486254601E+01  0.273749403E+00 -0.480325210E-01
   C  0.481321931E+01 -0.166855288E+00 -0.470074525E-01
   H -0.253757722E+02 -0.216080145E+01  0.100021202E+01
   H  0.247543561E+02  0.230812391E+01  0.544417754E+00
     4
 # iter = 54000  time[fs]=54.00000
   C -0.494059685E+01  0.278011933E+00 -0.492419281E-01
   C  0.488965396E+01 -0.170283368E+00 -0.477622966E-01
   H -0.257380626E+02 -0.219258585E+01  0.101355270E+01
   H  0.251068154E+02  0.234118230E+01  0.552096741E+00
     4
 # iter = 54500  time[fs]=54.50000
   C -0.501875735E+01  0.282280171E+00 -0.504517490E-01
   C  0.496619774E+01 -0.173717257E+00 -0.485174348E-01
   H -0.261004813E+02 -0.222438315E+01  0.102689877E+01
   H  0.254594091E+02  0.237425479E+01  0.559778831E+00
     4
 # iter = 55000  time[fs]=55.00000
   C -0.509702410E+01  0.286553953E+00 -0.516619773E-01
   C  0.504284729E+01 -0.177156788E+00 -0.492728542E-01
   H -0.264630246E+02 -0.225619302E+01  0.104025008E+01
   H  0.258121335E+02  0.240734102E+01  0.567463944E+00
     4
 # iter = 55500  time[fs]=55.50000
   C -0.517539387E+01  0.290833121E+00 -0.528726065E-01
   C  0.511959937E+01 -0.180601798E+00 -0.500285430E-01
   H -0.268256893E+02 -0.228801511E+01  0.105360649E+01
   H  0.261649852E+02  0.244044062E+01  0.575151998E+00
     4
 # iter = 56000  time[fs]=56.00000
   C -0.525386357E+01  0.295117521E+00 -0.540836302E-01
   C  0.519645090E+01 -0.184052135E+00 -0.507844899E-01
   H -0.271884722E+02 -0.231984912E+01  0.106696787E+01
   H  0.265179606E+02  0.247355324E+01  0.582842919E+00
     4
 # iter = 56500  time[fs]=56.50000
   C -0.533243023E+01  0.299407010E+00 -0.552950421E-01
   C  0.527339892E+01 -0.187507650E+00 -0.515406842E-01
   H -0.275513701E+02 -0.235169473E+01  0.108033408E+01
   H  0.268710566E+02  0.250667857E+01  0.590536632E+00
     4
 # iter = 57000  time[fs]=57.00000
   C -0.541109100E+01  0.303701446E+00 -0.565068357E-01
   C  0.535044062E+01 -0.190968201E+00 -0.522971160E-01
   H -0.279143800E+02 -0.238355167E+01  0.109370500E+01
   H  0.272242701E+02  0.253981626E+01  0.598233067E+00
     4
 # iter = 57500  time[fs]=57.50000
   C -0.548984318E+01  0.308000696E+00 -0.577190049E-01
   C  0.542757327E+01 -0.194433652E+00 -0.530537757E-01
   H -0.282774992E+02 -0.241541964E+01  0.110708051E+01
   H  0.275775981E+02  0.257296603E+01  0.605932156E+00
     4
 # iter = 58000  time[fs]=58.00000
   C -0.556868416E+01  0.312304630E+00 -0.589315434E-01
   C  0.550479430E+01 -0.197903870E+00 -0.538106545E-01
   H -0.286407248E+02 -0.244729838E+01  0.112046049E+01
   H  0.279310377E+02  0.260612756E+01  0.613633834E+00
     4
 # iter = 58500  time[fs]=58.50000
   C -0.564761143E+01  0.316613125E+00 -0.601444453E-01
   C  0.558210121E+01 -0.201378731E+00 -0.545677438E-01
   H -0.290040542E+02 -0.247918762E+01  0.113384483E+01
   H  0.282845860E+02  0.263930058E+01  0.621338038E+00
     4
 # iter = 59000  time[fs]=59.00000
   C -0.572662261E+01  0.320926061E+00 -0.613577044E-01
   C  0.565949161E+01 -0.204858113E+00 -0.553250355E-01
   H -0.293674848E+02 -0.251108711E+01  0.114723342E+01
   H  0.286382405E+02  0.267248481E+01  0.629044707E+00
     4
 # iter = 59500  time[fs]=59.50000
   C -0.580571538E+01  0.325243324E+00 -0.625713148E-01
   C  0.573696321E+01 -0.208341899E+00 -0.560825222E-01
   H -0.297310142E+02 -0.254299662E+01  0.116062616E+01
   H  0.289919986E+02  0.270567998E+01  0.636753782E+00
     4
 # iter = 60000  time[fs]=60.00000
   C -0.588488754E+01  0.329564802E+00 -0.637852708E-01
   C  0.581451381E+01 -0.211829978E+00 -0.568401966E-01
   H -0.300946401E+02 -0.257491590E+01  0.117402295E+01
   H  0.293458577E+02  0.273888584E+01  0.644465207E+00
     4
 # iter = 60500  time[fs]=60.50000
   C -0.596413697E+01  0.333890391E+00 -0.649995665E-01
   C  0.589214130E+01 -0.215322240E+00 -0.575980519E-01
   H -0.304583600E+02 -0.260684473E+01  0.118742369E+01
   H  0.296998154E+02  0.277210214E+01  0.652178927E+00
     4
 # iter = 61000  time[fs]=61.00000
   C -0.604346161E+01  0.338219986E+00 -0.662141964E-01
   C  0.596984364E+01 -0.218818582E+00 -0.583560815E-01
   H -0.308221718E+02 -0.263878288E+01  0.120082829E+01
   H  0.300538696E+02  0.280532863E+01  0.659894890E+00
     4
 # iter = 61500  time[fs]=61.50000
   C -0.612285952E+01  0.342553490E+00 -0.674291548E-01
   C  0.604761887E+01 -0.222318903E+00 -0.591142793E-01
   H -0.311860735E+02 -0.267073016E+01  0.121423666E+01
   H  0.304080178E+02  0.283856510E+01  0.667613044E+00
     4
 # iter = 62000  time[fs]=62.00000
   C -0.620232879E+01  0.346890808E+00 -0.686444364E-01
   C  0.612546512E+01 -0.225823107E+00 -0.598726395E-01
   H -0.315500628E+02 -0.270268635E+01  0.122764872E+01
   H  0.307622580E+02  0.287181132E+01  0.675333341E+00
     4
 # iter = 62500  time[fs]=62.50000
   C -0.628186762E+01  0.351231846E+00 -0.698600357E-01
   C  0.620338057E+01 -0.229331100E+00 -0.606311564E-01
   H -0.319141379E+02 -0.273465126E+01  0.124106437E+01
   H  0.311165881E+02  0.290506706E+01  0.683055732E+00
     4
 # iter = 63000  time[fs]=63.00000
   C -0.636147424E+01  0.355576518E+00 -0.710759475E-01
   C  0.628136349E+01 -0.232842792E+00 -0.613898246E-01
   H -0.322782967E+02 -0.276662470E+01  0.125448354E+01
   H  0.314710060E+02  0.293833213E+01  0.690780172E+00
     4
 # iter = 63500  time[fs]=63.50000
   C -0.644114696E+01  0.359924737E+00 -0.722921666E-01
   C  0.635941217E+01 -0.236358096E+00 -0.621486393E-01
   H -0.326425375E+02 -0.279860648E+01  0.126790615E+01
   H  0.318255099E+02  0.297160632E+01  0.698506617E+00
     4
 # iter = 64000  time[fs]=64.00000
   C -0.652088417E+01  0.364276420E+00 -0.735086881E-01
   C  0.643752502E+01 -0.239876927E+00 -0.629075954E-01
   H -0.330068585E+02 -0.283059643E+01  0.128133213E+01
   H  0.321800977E+02  0.300488943E+01  0.706235023E+00
     4
 # iter = 64500  time[fs]=64.50000
   C -0.660068429E+01  0.368631488E+00 -0.747255069E-01
   C  0.651570046E+01 -0.243399206E+00 -0.636666885E-01
   H -0.333712579E+02 -0.286259436E+01  0.129476139E+01
   H  0.325347678E+02  0.303818128E+01  0.713965349E+00
     4
 # iter = 65000  time[fs]=65.00000
   C -0.668054580E+01  0.372989863E+00 -0.759426181E-01
   C  0.659393698E+01 -0.246924853E+00 -0.644259141E-01
   H -0.337357339E+02 -0.289460012E+01  0.130819388E+01
   H  0.328895183E+02  0.307148168E+01  0.721697553E+00
     4
 # iter = 65500  time[fs]=65.50000
   C -0.676046724E+01  0.377351472E+00 -0.771600170E-01
   C  0.667223314E+01 -0.250453792E+00 -0.651852679E-01
   H -0.341002851E+02 -0.292661354E+01  0.132162952E+01
   H  0.332443475E+02  0.310479045E+01  0.729431598E+00
     4
 # iter = 66000  time[fs]=66.00000
   C -0.684044721E+01  0.381716241E+00 -0.783776989E-01
   C  0.675058752E+01 -0.253985950E+00 -0.659447461E-01
   H -0.344649098E+02 -0.295863447E+01  0.133506824E+01
   H  0.335992537E+02  0.313810743E+01  0.737167445E+00
     4
 # iter = 66500  time[fs]=66.50000
   C -0.692048435E+01  0.386084101E+00 -0.795956593E-01
   C  0.682899878E+01 -0.257521256E+00 -0.667043447E-01
   H -0.348296064E+02 -0.299066275E+01  0.134850999E+01
   H  0.339542355E+02  0.317143244E+01  0.744905057E+00
     4
 # iter = 67000  time[fs]=67.00000
   C -0.700057732E+01  0.390454985E+00 -0.808138936E-01
   C  0.690746559E+01 -0.261059642E+00 -0.674640601E-01
   H -0.351943736E+02 -0.302269822E+01  0.136195469E+01
   H  0.343092912E+02  0.320476533E+01  0.752644399E+00
     4
 # iter = 67500  time[fs]=67.50000
   C -0.708072487E+01  0.394828827E+00 -0.820323974E-01
   C  0.698598669E+01 -0.264601041E+00 -0.682238887E-01
   H -0.355592098E+02 -0.305474076E+01  0.137540229E+01
   H  0.346644192E+02  0.323810593E+01  0.760385436E+00
     4
 # iter = 68000  time[fs]=68.00000
   C -0.716092575E+01  0.399205563E+00 -0.832511664E-01
   C  0.706456087E+01 -0.268145387E+00 -0.689838272E-01
   H -0.359241137E+02 -0.308679022E+01  0.138885274E+01
   H  0.350196182E+02  0.327145410E+01  0.768128135E+00
     4
 # iter = 68500  time[fs]=68.50000
   C -0.724117879E+01  0.403585133E+00 -0.844701964E-01
   C  0.714318692E+01 -0.271692620E+00 -0.697438724E-01
   H -0.362890838E+02 -0.311884647E+01  0.140230596E+01
   H  0.353748867E+02  0.330480969E+01  0.775872462E+00
     4
 # iter = 69000  time[fs]=69.00000
   C -0.732148283E+01  0.407967477E+00 -0.856894833E-01
   C  0.722186372E+01 -0.275242679E+00 -0.705040212E-01
   H -0.366541190E+02 -0.315090937E+01  0.141576192E+01
   H  0.357302234E+02  0.333817255E+01  0.783618387E+00
     4
 # iter = 69500  time[fs]=69.50000
   C -0.740183675E+01  0.412352537E+00 -0.869090230E-01
   C  0.730059014E+01 -0.278795504E+00 -0.712642706E-01
   H -0.370192179E+02 -0.318297879E+01  0.142922054E+01
   H  0.360856269E+02  0.337154254E+01  0.791365878E+00
     4
 # iter = 70000  time[fs]=70.00000
   C -0.748223947E+01  0.416740258E+00 -0.881288115E-01
   C  0.737936511E+01 -0.282351039E+00 -0.720246177E-01
   H -0.373843793E+02 -0.321505462E+01  0.144268179E+01
   H  0.364410958E+02  0.340491953E+01  0.799114906E+00
     4
 # iter = 70500  time[fs]=70.50000
   C -0.756268995E+01  0.421130585E+00 -0.893488449E-01
   C  0.745818759E+01 -0.285909230E+00 -0.727850598E-01
   H -0.377496020E+02 -0.324713673E+01  0.145614561E+01
   H  0.367966291E+02  0.343830338E+01  0.806865442E+00
     4
 # iter = 71000  time[fs]=71.00000
   C -0.764318718E+01  0.425523465E+00 -0.905691195E-01
   C  0.753705658E+01 -0.289470021E+00 -0.735455944E-01
   H -0.381148848E+02 -0.327922501E+01  0.146961196E+01
   H  0.371522253E+02  0.347169398E+01  0.814617457E+00
     4
 # iter = 71500  time[fs]=71.50000
   C -0.772373018E+01  0.429918848E+00 -0.917896314E-01
   C  0.761597110E+01 -0.293033363E+00 -0.743062188E-01
   H -0.384802265E+02 -0.331131934E+01  0.148308078E+01
   H  0.375078834E+02  0.350509119E+01  0.822370925E+00
     4
 # iter = 72000  time[fs]=72.00000
   C -0.780431799E+01  0.434316684E+00 -0.930103771E-01
   C  0.769493019E+01 -0.296599203E+00 -0.750669307E-01
   H -0.388456262E+02 -0.334341960E+01  0.149655203E+01
   H  0.378636022E+02  0.353849489E+01  0.830125818E+00
     4
 # iter = 72500  time[fs]=72.50000
   C -0.788494969E+01  0.438716926E+00 -0.942313530E-01
   C  0.777393295E+01 -0.300167493E+00 -0.758277277E-01
   H -0.392110826E+02 -0.337552571E+01  0.151002566E+01
   H  0.382193805E+02  0.357190497E+01  0.837882111E+00
     4
 # iter = 73000  time[fs]=73.00000
   C -0.796562439E+01  0.443119525E+00 -0.954525555E-01
   C  0.785297848E+01 -0.303738187E+00 -0.765886076E-01
   H -0.395765948E+02 -0.340763754E+01  0.152350163E+01
   H  0.385752173E+02  0.360532131E+01  0.845639777E+00
     4
 # iter = 73500  time[fs]=73.50000
   C -0.804634122E+01  0.447524437E+00 -0.966739812E-01
   C  0.793206592E+01 -0.307311236E+00 -0.773495683E-01
   H -0.399421618E+02 -0.343975499E+01  0.153697990E+01
   H  0.389311115E+02  0.363874379E+01  0.853398794E+00
     4
 # iter = 74000  time[fs]=74.00000
   C -0.812709933E+01  0.451931619E+00 -0.978956268E-01
   C  0.801119442E+01 -0.310886597E+00 -0.781106075E-01
   H -0.403077825E+02 -0.347187797E+01  0.155046042E+01
   H  0.392870621E+02  0.367217232E+01  0.861159137E+00
     4
 # iter = 74500  time[fs]=74.50000
   C -0.820789791E+01  0.456341025E+00 -0.991174890E-01
   C  0.809036318E+01 -0.314464226E+00 -0.788717234E-01
   H -0.406734560E+02 -0.350400639E+01  0.156394317E+01
   H  0.396430680E+02  0.370560678E+01  0.868920782E+00
     4
 # iter = 75000  time[fs]=75.00000
   C -0.828873616E+01  0.460752617E+00 -0.100339564E+00
   C  0.816957141E+01 -0.318044081E+00 -0.796329140E-01
   H -0.410391814E+02 -0.353614014E+01  0.157742808E+01
   H  0.399991283E+02  0.373904708E+01  0.876683707E+00
     4
 # iter = 75500  time[fs]=75.50000
   C -0.836961332E+01  0.465166351E+00 -0.101561850E+00
   C  0.824881833E+01 -0.321626119E+00 -0.803941775E-01
   H -0.414049577E+02 -0.356827913E+01  0.159091514E+01
   H  0.403552420E+02  0.377249310E+01  0.884447889E+00
     4
 # iter = 76000  time[fs]=76.00000
   C -0.845052862E+01  0.469582190E+00 -0.102784343E+00
   C  0.832810320E+01 -0.325210302E+00 -0.811555120E-01
   H -0.417707841E+02 -0.360042328E+01  0.160440430E+01
   H  0.407114082E+02  0.380594476E+01  0.892213309E+00
     4
 # iter = 76500  time[fs]=76.50000
   C -0.853148135E+01  0.474000095E+00 -0.104007039E+00
   C  0.840742529E+01 -0.328796590E+00 -0.819169158E-01
   H -0.421366597E+02 -0.363257250E+01  0.161789552E+01
   H  0.410676260E+02  0.383940196E+01  0.899979943E+00
     4
 # iter = 77000  time[fs]=77.00000
   C -0.861247079E+01  0.478420028E+00 -0.105229937E+00
   C  0.848678390E+01 -0.332384945E+00 -0.826783873E-01
   H -0.425025836E+02 -0.366472670E+01  0.163138877E+01
   H  0.414238944E+02  0.387286461E+01  0.907747772E+00
     4
 # iter = 77500  time[fs]=77.50000
   C -0.869349626E+01  0.482841954E+00 -0.106453033E+00
   C  0.856617834E+01 -0.335975329E+00 -0.834399249E-01
   H -0.428685551E+02 -0.369688580E+01  0.164488402E+01
   H  0.417802128E+02  0.390633261E+01  0.915516777E+00
     4
 # iter = 78000  time[fs]=78.00000
   C -0.877455708E+01  0.487265836E+00 -0.107676324E+00
   C  0.864560796E+01 -0.339567708E+00 -0.842015269E-01
   H -0.432345733E+02 -0.372904972E+01  0.165838122E+01
   H  0.421365801E+02  0.393980587E+01  0.923286937E+00
     4
 # iter = 78500  time[fs]=78.50000
   C -0.885565261E+01  0.491691640E+00 -0.108899808E+00
   C  0.872507209E+01 -0.343162046E+00 -0.849631919E-01
   H -0.436006375E+02 -0.376121838E+01  0.167188036E+01
   H  0.424929956E+02  0.397328432E+01  0.931058233E+00
     4
 # iter = 79000  time[fs]=79.00000
   C -0.893678221E+01  0.496119333E+00 -0.110123481E+00
   C  0.880457010E+01 -0.346758308E+00 -0.857249184E-01
   H -0.439667469E+02 -0.379339171E+01  0.168538139E+01
   H  0.428494585E+02  0.400676786E+01  0.938830647E+00
     4
 # iter = 79500  time[fs]=79.50000
   C -0.901794526E+01  0.500548882E+00 -0.111347341E+00
   C  0.888410140E+01 -0.350356462E+00 -0.864867050E-01
   H -0.443329007E+02 -0.382556962E+01  0.169888429E+01
   H  0.432059680E+02  0.404025642E+01  0.946604162E+00
     4
 # iter = 80000  time[fs]=80.00000
   C -0.909914116E+01  0.504980255E+00 -0.112571386E+00
   C  0.896366536E+01 -0.353956475E+00 -0.872485503E-01
   H -0.446990982E+02 -0.385775205E+01  0.171238903E+01
   H  0.435625233E+02  0.407374991E+01  0.954378759E+00
