     4
 # iter = 25000  time[fs]=25.00000
   C -0.944667385E+00 -0.236135946E-01  0.245525431E-01
   C  0.102684077E+01  0.268350647E-01 -0.829085227E-02
   H -0.527067323E+01  0.353467601E+00 -0.355628903E+00
   H  0.529957555E+01  0.259533206E+00 -0.371653784E+00
     4
 # iter = 25500  time[fs]=25.50000
   C -0.986103326E+00 -0.264716205E-01  0.269664678E-01
   C  0.106923779E+01  0.263932529E-01 -0.665581990E-02
   H -0.559969295E+01  0.373127509E+00 -0.377326718E+00
   H  0.562000314E+01  0.273713495E+00 -0.393608482E+00
     4
 # iter = 26000  time[fs]=26.00000
   C -0.102990453E+01 -0.294067275E-01  0.294360547E-01
   C  0.111399400E+01  0.260031499E-01 -0.504528168E-02
   H -0.593136082E+01  0.392968504E+00 -0.399207155E+00
   H  0.594315168E+01  0.288017164E+00 -0.415754575E+00
     4
 # iter = 26500  time[fs]=26.50000
   C -0.107588276E+01 -0.324124672E-01  0.319556983E-01
   C  0.116092148E+01  0.256611729E-01 -0.345706881E-02
   H -0.626538429E+01  0.412969778E+00 -0.421249818E+00
   H  0.626872487E+01  0.302430637E+00 -0.438071217E+00
     4
 # iter = 27000  time[fs]=27.00000
   C -0.112386313E+01 -0.354829868E-01  0.345204652E-01
   C  0.120984568E+01  0.253638773E-01 -0.188914874E-02
   H -0.660151577E+01  0.433113909E+00 -0.443437543E+00
   H  0.659647126E+01  0.316942432E+00 -0.460540762E+00
     4
 # iter = 27500  time[fs]=27.50000
   C -0.117368440E+01 -0.386129800E-01  0.371260089E-01
   C  0.126060565E+01  0.251080001E-01 -0.339645318E-03
   H -0.693954400E+01  0.453386172E+00 -0.465755754E+00
   H  0.692617578E+01  0.331542757E+00 -0.483148145E+00
     4
 # iter = 28000  time[fs]=28.00000
   C -0.122519865E+01 -0.417976398E-01  0.397684949E-01
   C  0.131305381E+01  0.248904824E-01  0.119315505E-02
   H -0.727928742E+01  0.473774006E+00 -0.488191960E+00
   H  0.725765315E+01  0.346223199E+00 -0.505880404E+00
     4
 # iter = 28500  time[fs]=28.50000
   C -0.127827079E+01 -0.450326144E-01  0.424445356E-01
   C  0.136705534E+01  0.247084791E-01  0.271080609E-02
   H -0.762058886E+01  0.494266611E+00 -0.510735383E+00
   H  0.759074273E+01  0.360976473E+00 -0.528726310E+00
     4
 # iter = 29000  time[fs]=29.00000
   C -0.133277777E+01 -0.483139648E-01  0.451511326E-01
   C  0.142248747E+01  0.245593594E-01  0.421470957E-02
   H -0.796331147E+01  0.514854632E+00 -0.533376654E+00
   H  0.792530436E+01  0.375796237E+00 -0.551676071E+00
     4
 # iter = 29500  time[fs]=29.50000
   C -0.138860769E+01 -0.516381252E-01  0.478856269E-01
   C  0.147923855E+01  0.244407002E-01  0.570612596E-02
   H -0.830733538E+01  0.535529917E+00 -0.556107581E+00
   H  0.826121508E+01  0.390676932E+00 -0.574721102E+00
     4
 # iter = 30000  time[fs]=30.00000
   C -0.144565892E+01 -0.550018667E-01  0.506456561E-01
   C  0.153720720E+01  0.243502766E-01  0.718618643E-02
   H -0.865255502E+01  0.556285313E+00 -0.578920955E+00
   H  0.859836648E+01  0.405613663E+00 -0.597853830E+00
     4
 # iter = 30500  time[fs]=30.50000
   C -0.150383920E+01 -0.584022633E-01  0.534291159E-01
   C  0.159630137E+01  0.242860492E-01  0.865590494E-02
   H -0.899887701E+01  0.577114513E+00 -0.601810405E+00
   H  0.893666250E+01  0.420602095E+00 -0.621067549E+00
     4
 # iter = 31000  time[fs]=31.00000
   C -0.156306475E+01 -0.618366613E-01  0.562341282E-01
   C  0.165643751E+01  0.242461515E-01  0.101161901E-01
   H -0.934621832E+01  0.598011928E+00 -0.624770267E+00
   H  0.927601765E+01  0.435638373E+00 -0.644356284E+00
     4
 # iter = 31500  time[fs]=31.50000
   C -0.162325951E+01 -0.653026515E-01  0.590590127E-01
   C  0.171753972E+01  0.242288759E-01  0.115678564E-01
   H -0.969450483E+01  0.618972581E+00 -0.647795490E+00
   H  0.961635553E+01  0.450719054E+00 -0.667714698E+00
     4
 # iter = 32000  time[fs]=32.00000
   C -0.168435433E+01 -0.687980437E-01  0.619022621E-01
   C  0.177953904E+01  0.242326607E-01  0.130116341E-01
   H -0.100436701E+02  0.639992018E+00 -0.670881543E+00
   H  0.995760762E+01  0.465841050E+00 -0.691137999E+00
     4
 # iter = 32500  time[fs]=32.50000
   C -0.174628632E+01 -0.723208446E-01  0.647625216E-01
   C  0.184237273E+01  0.242560771E-01  0.144481789E-01
   H -0.103936545E+02  0.661066243E+00 -0.694024351E+00
   H  0.102997122E+02  0.481001584E+00 -0.714621870E+00
     4
 # iter = 33000  time[fs]=33.00000
   C -0.180899818E+01 -0.758692372E-01  0.676385703E-01
   C  0.190598368E+01  0.242978176E-01  0.158780801E-01
   H -0.107444040E+02  0.682191653E+00 -0.717220237E+00
   H  0.106426136E+02  0.496198143E+00 -0.738162410E+00
     4
 # iter = 33500  time[fs]=33.50000
   C -0.187243771E+01 -0.794415627E-01  0.705293050E-01
   C  0.197031978E+01  0.243566847E-01  0.173018679E-01
   H -0.110958697E+02  0.703364988E+00 -0.740465866E+00
   H  0.109862611E+02  0.511428455E+00 -0.761756079E+00
     4
 # iter = 34000  time[fs]=34.00000
   C -0.193655721E+01 -0.830363050E-01  0.734337273E-01
   C  0.203533350E+01  0.244315807E-01  0.187200202E-01
   H -0.114480074E+02  0.724583292E+00 -0.763758209E+00
   H  0.113306090E+02  0.526690451E+00 -0.785399659E+00
     4
 # iter = 34500  time[fs]=34.50000
   C -0.200131310E+01 -0.866520753E-01  0.763509309E-01
   C  0.210098136E+01  0.245214984E-01  0.201329687E-01
   H -0.118007766E+02  0.745843872E+00 -0.787094506E+00
   H  0.116756154E+02  0.541982246E+00 -0.809090215E+00
     4
 # iter = 35000  time[fs]=35.00000
   C -0.206666546E+01 -0.902876005E-01  0.792800916E-01
   C  0.216722356E+01  0.246255127E-01  0.215411033E-01
   H -0.121541405E+02  0.767144273E+00 -0.810472233E+00
   H  0.120212419E+02  0.557302120E+00 -0.832825059E+00
     4
 # iter = 35500  time[fs]=35.50000
   C -0.213257768E+01 -0.939417107E-01  0.822204580E-01
   C  0.223402359E+01  0.247427729E-01  0.229447774E-01
   H -0.125080651E+02  0.788482246E+00 -0.833889078E+00
   H  0.123674536E+02  0.572648492E+00 -0.856601729E+00
     4
 # iter = 36000  time[fs]=36.00000
   C -0.219901617E+01 -0.976133299E-01  0.851713439E-01
   C  0.230134796E+01  0.248724957E-01  0.243443117E-01
   H -0.128625195E+02  0.809855727E+00 -0.857342915E+00
   H  0.127142183E+02  0.588019913E+00 -0.880417962E+00
     4
 # iter = 36500  time[fs]=36.50000
   C -0.226595000E+01 -0.101301467E+00  0.881321211E-01
   C  0.236916583E+01  0.250139590E-01  0.257399975E-01
   H -0.132174752E+02  0.831262818E+00 -0.880831789E+00
   H  0.130615062E+02  0.603415049E+00 -0.904271671E+00
     4
 # iter = 37000  time[fs]=37.00000
   C -0.233335070E+01 -0.105005206E+00  0.911022134E-01
   C  0.243744882E+01  0.251664961E-01  0.271321000E-01
   H -0.135729058E+02  0.852701769E+00 -0.904353895E+00
   H  0.134092902E+02  0.618832667E+00 -0.928160931E+00
     4
 # iter = 37500  time[fs]=37.50000
   C -0.240119201E+01 -0.108723702E+00  0.940810914E-01
   C  0.250617074E+01  0.253294912E-01  0.285208611E-01
   H -0.139287870E+02  0.874170965E+00 -0.927907563E+00
   H  0.137575448E+02  0.634271629E+00 -0.952083960E+00
     4
 # iter = 38000  time[fs]=38.00000
   C -0.246944966E+01 -0.112456172E+00  0.970682674E-01
   C  0.257530741E+01  0.255023739E-01  0.299065019E-01
   H -0.142850963E+02  0.895668909E+00 -0.951491245E+00
   H  0.141062466E+02  0.649730880E+00 -0.976039107E+00
     4
 # iter = 38500  time[fs]=38.50000
   C -0.253810120E+01 -0.116201891E+00  0.100063292E+00
   C  0.264483644E+01  0.256846161E-01  0.312892244E-01
   H -0.146418128E+02  0.917194212E+00 -0.975103507E+00
   H  0.144553741E+02  0.665209441E+00 -0.100002484E+01
     4
 # iter = 39000  time[fs]=39.00000
   C -0.260712584E+01 -0.119960185E+00  0.103065749E+00
   C  0.271473710E+01  0.258757274E-01  0.326692141E-01
   H -0.149989171E+02  0.938745586E+00 -0.998743013E+00
   H  0.148049069E+02  0.680706401E+00 -0.102403973E+01
     4
 # iter = 39500  time[fs]=39.50000
   C -0.267650428E+01 -0.123730427E+00  0.106075255E+00
   C  0.278499016E+01  0.260752525E-01  0.340466410E-01
   H -0.153563911E+02  0.960321828E+00 -0.102240852E+01
   H  0.151548262E+02  0.696220913E+00 -0.104808244E+01
     4
 # iter = 40000  time[fs]=40.00000
   C -0.274621859E+01 -0.127512036E+00  0.109091453E+00
   C  0.285557774E+01  0.262827678E-01  0.354216614E-01
   H -0.157142180E+02  0.981921819E+00 -0.104609886E+01
   H  0.155051146E+02  0.711752186E+00 -0.107215174E+01
     4
 # iter = 40500  time[fs]=40.50000
   C -0.281625208E+01 -0.131304467E+00  0.112114011E+00
   C  0.292648323E+01  0.264978787E-01  0.367944194E-01
   H -0.160723820E+02  0.100354451E+01 -0.106981296E+01
   H  0.158557556E+02  0.727299481E+00 -0.109624647E+01
     4
 # iter = 41000  time[fs]=41.00000
   C -0.288658924E+01 -0.135107214E+00  0.115142623E+00
   C  0.299769113E+01  0.267202174E-01  0.381650478E-01
   H -0.164308685E+02  0.102518893E+01 -0.109354979E+01
   H  0.162067339E+02  0.742862106E+00 -0.112036554E+01
     4
 # iter = 41500  time[fs]=41.50000
   C -0.295721555E+01 -0.138919803E+00  0.118177000E+00
   C  0.306918700E+01  0.269494403E-01  0.395336691E-01
   H -0.167896637E+02  0.104685416E+01 -0.111730841E+01
   H  0.165580352E+02  0.758439414E+00 -0.114450793E+01
     4
 # iter = 42000  time[fs]=42.00000
   C -0.302811750E+01 -0.142741791E+00  0.121216876E+00
   C  0.314095736E+01  0.271852265E-01  0.409003967E-01
   H -0.171487547E+02  0.106853934E+01 -0.114108793E+01
   H  0.169096459E+02  0.774030796E+00 -0.116867269E+01
     4
 # iter = 42500  time[fs]=42.50000
   C -0.309928242E+01 -0.146572762E+00  0.124262001E+00
   C  0.321298960E+01  0.274272756E-01  0.422653357E-01
   H -0.175081293E+02  0.109024367E+01 -0.116488749E+01
   H  0.172615536E+02  0.789635683E+00 -0.119285891E+01
     4
 # iter = 43000  time[fs]=43.00000
   C -0.317069847E+01 -0.150412327E+00  0.127312140E+00
   C  0.328527190E+01  0.276753061E-01  0.436285835E-01
   H -0.178677761E+02  0.111196637E+01 -0.118870632E+01
   H  0.176137462E+02  0.805253536E+00 -0.121706576E+01
     4
 # iter = 43500  time[fs]=43.50000
   C -0.324235455E+01 -0.154260120E+00  0.130367076E+00
   C  0.335779321E+01  0.279290542E-01  0.449902305E-01
   H -0.182276845E+02  0.113370674E+01 -0.121254367E+01
   H  0.179662125E+02  0.820883849E+00 -0.124129243E+01
     4
 # iter = 44000  time[fs]=44.00000
   C -0.331424024E+01 -0.158115798E+00  0.133426603E+00
   C  0.343054315E+01  0.281882721E-01  0.463503607E-01
   H -0.185878442E+02  0.115546411E+01 -0.123639884E+01
   H  0.183189421E+02  0.836526146E+00 -0.126553818E+01
     4
 # iter = 44500  time[fs]=44.50000
   C -0.338634575E+01 -0.161979037E+00  0.136490528E+00
   C  0.350351196E+01  0.284527269E-01  0.477090523E-01
   H -0.189482458E+02  0.117723783E+01 -0.126027116E+01
   H  0.186719249E+02  0.852179977E+00 -0.128980229E+01
     4
 # iter = 45000  time[fs]=45.00000
   C -0.345866189E+01 -0.165849533E+00  0.139558670E+00
   C  0.357669049E+01  0.287221997E-01  0.490663784E-01
   H -0.193088803E+02  0.119902731E+01 -0.128416000E+01
   H  0.190251515E+02  0.867844915E+00 -0.131408409E+01
     4
 # iter = 45500  time[fs]=45.50000
   C -0.353118000E+01 -0.169726998E+00  0.142630859E+00
   C  0.365007009E+01  0.289964841E-01  0.504224069E-01
   H -0.196697390E+02  0.122083198E+01 -0.130806478E+01
   H  0.193786131E+02  0.883520559E+00 -0.133838295E+01
     4
 # iter = 46000  time[fs]=46.00000
   C -0.360389192E+01 -0.173611161E+00  0.145706934E+00
   C  0.372364265E+01  0.292753858E-01  0.517772015E-01
   H -0.200308140E+02  0.124265130E+01 -0.133198493E+01
   H  0.197323012E+02  0.899206527E+00 -0.136269827E+01
     4
 # iter = 46500  time[fs]=46.50000
   C -0.367678995E+01 -0.177501767E+00  0.148786745E+00
   C  0.379740049E+01  0.295587212E-01  0.531308215E-01
   H -0.203920976E+02  0.126448476E+01 -0.135591992E+01
   H  0.200862078E+02  0.914902458E+00 -0.138702947E+01
     4
 # iter = 47000  time[fs]=47.00000
   C -0.374986682E+01 -0.181398573E+00  0.151870148E+00
   C  0.387133637E+01  0.298463173E-01  0.544833226E-01
   H -0.207535826E+02  0.128633187E+01 -0.137986925E+01
   H  0.204403254E+02  0.930608010E+00 -0.141137602E+01
     4
 # iter = 47500  time[fs]=47.50000
   C -0.382311568E+01 -0.185301350E+00  0.154957007E+00
   C  0.394544347E+01  0.301380102E-01  0.558347570E-01
   H -0.211152620E+02  0.130819218E+01 -0.140383243E+01
   H  0.207946468E+02  0.946322856E+00 -0.143573739E+01
     4
 # iter = 48000  time[fs]=48.00000
   C -0.389653003E+01 -0.189209881E+00  0.158047197E+00
   C  0.401971531E+01  0.304336450E-01  0.571851735E-01
   H -0.214771294E+02  0.133006525E+01 -0.142780901E+01
   H  0.211491651E+02  0.962046688E+00 -0.146011311E+01
     4
 # iter = 48500  time[fs]=48.50000
   C -0.397010372E+01 -0.193123960E+00  0.161140594E+00
   C  0.409414577E+01  0.307330753E-01  0.585346182E-01
   H -0.218391785E+02  0.135195066E+01 -0.145179855E+01
   H  0.215038739E+02  0.977779212E+00 -0.148450271E+01
     4
 # iter = 49000  time[fs]=49.00000
   C -0.404383094E+01 -0.197043393E+00  0.164237086E+00
   C  0.416872905E+01  0.310361618E-01  0.598831341E-01
   H -0.222014035E+02  0.137384801E+01 -0.147580064E+01
   H  0.218587669E+02  0.993520147E+00 -0.150890574E+01
     4
 # iter = 49500  time[fs]=49.50000
   C -0.411770616E+01 -0.200967992E+00  0.167336563E+00
   C  0.424345964E+01  0.313427730E-01  0.612307620E-01
   H -0.225637987E+02  0.139575694E+01 -0.149981489E+01
   H  0.222138383E+02  0.100926923E+01 -0.153332178E+01
     4
 # iter = 50000  time[fs]=50.00000
   C -0.419172415E+01 -0.204897584E+00  0.170438923E+00
   C  0.431833235E+01  0.316527837E-01  0.625775400E-01
   H -0.229263587E+02  0.141767708E+01 -0.152384091E+01
   H  0.225690825E+02  0.102502620E+01 -0.155775043E+01
     4
 # iter = 50500  time[fs]=50.50000
   C -0.426587993E+01 -0.208831999E+00  0.173544067E+00
   C  0.439334220E+01  0.319660751E-01  0.639235043E-01
   H -0.232890784E+02  0.143960809E+01 -0.154787836E+01
   H  0.229244941E+02  0.104079082E+01 -0.158219131E+01
     4
 # iter = 51000  time[fs]=51.00000
   C -0.434016877E+01 -0.212771078E+00  0.176651902E+00
   C  0.446848449E+01  0.322825343E-01  0.652686887E-01
   H -0.236519529E+02  0.146154964E+01 -0.157192689E+01
   H  0.232800681E+02  0.105656285E+01 -0.160664404E+01
     4
 # iter = 51500  time[fs]=51.50000
   C -0.441458617E+01 -0.216714669E+00  0.179762339E+00
   C  0.454375473E+01  0.326020539E-01  0.666131256E-01
   H -0.240149776E+02  0.148350141E+01 -0.159598617E+01
   H  0.236357995E+02  0.107234208E+01 -0.163110828E+01
     4
 # iter = 52000  time[fs]=52.00000
   C -0.448912786E+01 -0.220662628E+00  0.182875295E+00
   C  0.461914868E+01  0.329245315E-01  0.679568451E-01
   H -0.243781481E+02  0.150546312E+01 -0.162005590E+01
   H  0.239916837E+02  0.108812830E+01 -0.165558369E+01
     4
 # iter = 52500  time[fs]=52.50000
   C -0.456378976E+01 -0.224614817E+00  0.185990689E+00
   C  0.469466226E+01  0.332498700E-01  0.692998759E-01
   H -0.247414600E+02  0.152743447E+01 -0.164413575E+01
   H  0.243477162E+02  0.110392129E+01 -0.168006995E+01
     4
 # iter = 53000  time[fs]=53.00000
   C -0.463856798E+01 -0.228571103E+00  0.189108443E+00
   C  0.477029160E+01  0.335779763E-01  0.706422454E-01
   H -0.251049092E+02  0.154941519E+01 -0.166822547E+01
   H  0.247038927E+02  0.111972087E+01 -0.170456675E+01
     4
 # iter = 53500  time[fs]=53.50000
   C -0.471345882E+01 -0.232531361E+00  0.192228486E+00
   C  0.484603302E+01  0.339087619E-01  0.719839790E-01
   H -0.254684920E+02  0.157140502E+01 -0.169232476E+01
   H  0.250602093E+02  0.113552686E+01 -0.172907380E+01
     4
 # iter = 54000  time[fs]=54.00000
   C -0.478845873E+01 -0.236495470E+00  0.195350746E+00
   C  0.492188299E+01  0.342421423E-01  0.733251013E-01
   H -0.258322044E+02  0.159340370E+01 -0.171643336E+01
   H  0.254166618E+02  0.115133907E+01 -0.175359082E+01
     4
 # iter = 54500  time[fs]=54.50000
   C -0.486356434E+01 -0.240463315E+00  0.198475158E+00
   C  0.499783815E+01  0.345780368E-01  0.746656353E-01
   H -0.261960430E+02  0.161541099E+01 -0.174055102E+01
   H  0.257732467E+02  0.116715733E+01 -0.177811753E+01
     4
 # iter = 55000  time[fs]=55.00000
   C -0.493877243E+01 -0.244434787E+00  0.201601657E+00
   C  0.507389527E+01  0.349163683E-01  0.760056030E-01
   H -0.265600043E+02  0.163742667E+01 -0.176467750E+01
   H  0.261299602E+02  0.118298148E+01 -0.180265368E+01
     4
 # iter = 55500  time[fs]=55.50000
   C -0.501407989E+01 -0.248409780E+00  0.204730182E+00
   C  0.515005130E+01  0.352570629E-01  0.773450252E-01
   H -0.269240850E+02  0.165945051E+01 -0.178881257E+01
   H  0.264867990E+02  0.119881136E+01 -0.182719901E+01
     4
 # iter = 56000  time[fs]=56.00000
   C -0.508948379E+01 -0.252388192E+00  0.207860676E+00
   C  0.522630328E+01  0.356000501E-01  0.786839218E-01
   H -0.272882819E+02  0.168148230E+01 -0.181295600E+01
   H  0.268437597E+02  0.121464682E+01 -0.185175329E+01
     4
 # iter = 56500  time[fs]=56.50000
   C -0.516498129E+01 -0.256369928E+00  0.210993081E+00
   C  0.530264840E+01  0.359452623E-01  0.800223116E-01
   H -0.276525919E+02  0.170352182E+01 -0.183710757E+01
   H  0.272008391E+02  0.123048772E+01 -0.187631628E+01
     4
 # iter = 57000  time[fs]=57.00000
   C -0.524056968E+01 -0.260354894E+00  0.214127344E+00
   C  0.537908396E+01  0.362926349E-01  0.813602125E-01
   H -0.280170122E+02  0.172556889E+01 -0.186126708E+01
   H  0.275580341E+02  0.124633392E+01 -0.190088777E+01
     4
 # iter = 57500  time[fs]=57.50000
   C -0.531624637E+01 -0.264343001E+00  0.217263413E+00
   C  0.545560738E+01  0.366421058E-01  0.826976416E-01
   H -0.283815399E+02  0.174762331E+01 -0.188543434E+01
   H  0.279153418E+02  0.126218528E+01 -0.192546753E+01
     4
 # iter = 58000  time[fs]=58.00000
   C -0.539200886E+01 -0.268334164E+00  0.220401240E+00
   C  0.553221618E+01  0.369936155E-01  0.840346151E-01
   H -0.287461724E+02  0.176968491E+01 -0.190960913E+01
   H  0.282727594E+02  0.127804167E+01 -0.195005537E+01
     4
 # iter = 58500  time[fs]=58.50000
   C -0.546785478E+01 -0.272328300E+00  0.223540777E+00
   C  0.560890798E+01  0.373471069E-01  0.853711487E-01
   H -0.291109069E+02  0.179175349E+01 -0.193379129E+01
   H  0.286302841E+02  0.129390297E+01 -0.197465108E+01
     4
 # iter = 59000  time[fs]=59.00000
   C -0.554378183E+01 -0.276325332E+00  0.226681978E+00
   C  0.568568050E+01  0.377025254E-01  0.867072570E-01
   H -0.294757410E+02  0.181382891E+01 -0.195798064E+01
   H  0.289879132E+02  0.130976905E+01 -0.199925447E+01
     4
 # iter = 59500  time[fs]=59.50000
   C -0.561978780E+01 -0.280325182E+00  0.229824800E+00
   C  0.576253155E+01  0.380598183E-01  0.880429542E-01
   H -0.298406722E+02  0.183591098E+01 -0.198217700E+01
   H  0.293456443E+02  0.132563981E+01 -0.202386537E+01
     4
 # iter = 60000  time[fs]=60.00000
   C -0.569587058E+01 -0.284327778E+00  0.232969199E+00
   C  0.583945902E+01  0.384189351E-01  0.893782539E-01
   H -0.302056983E+02  0.185799955E+01 -0.200638020E+01
   H  0.297034749E+02  0.134151513E+01 -0.204848359E+01
     4
 # iter = 60500  time[fs]=60.50000
   C -0.577202814E+01 -0.288333050E+00  0.236115137E+00
   C  0.591646089E+01  0.387798272E-01  0.907131688E-01
   H -0.305708169E+02  0.188009448E+01 -0.203059009E+01
   H  0.300614026E+02  0.135739491E+01 -0.207310895E+01
     4
 # iter = 61000  time[fs]=61.00000
   C -0.584825852E+01 -0.292340930E+00  0.239262573E+00
   C  0.599353521E+01  0.391424479E-01  0.920477113E-01
   H -0.309360259E+02  0.190219561E+01 -0.205480651E+01
   H  0.304194252E+02  0.137327903E+01 -0.209774131E+01
     4
 # iter = 61500  time[fs]=61.50000
   C -0.592455984E+01 -0.296351353E+00  0.242411471E+00
   C  0.607068010E+01  0.395067523E-01  0.933818933E-01
   H -0.313013232E+02  0.192430280E+01 -0.207902932E+01
   H  0.307775404E+02  0.138916741E+01 -0.212238049E+01
     4
 # iter = 62000  time[fs]=62.00000
   C -0.600093028E+01 -0.300364256E+00  0.245561794E+00
   C  0.614789376E+01  0.398726971E-01  0.947157260E-01
   H -0.316667068E+02  0.194641592E+01 -0.210325836E+01
   H  0.311357462E+02  0.140505993E+01 -0.214702634E+01
     4
 # iter = 62500  time[fs]=62.50000
   C -0.607736811E+01 -0.304379578E+00  0.248713507E+00
   C  0.622517446E+01  0.402402406E-01  0.960492202E-01
   H -0.320321746E+02  0.196853482E+01 -0.212749350E+01
   H  0.314940404E+02  0.142095652E+01 -0.217167871E+01
     4
 # iter = 63000  time[fs]=63.00000
   C -0.615387164E+01 -0.308397262E+00  0.251866577E+00
   C  0.630252052E+01  0.406093427E-01  0.973823862E-01
   H -0.323977249E+02  0.199065940E+01 -0.215173461E+01
   H  0.318524211E+02  0.143685707E+01 -0.219633746E+01
     4
 # iter = 63500  time[fs]=63.50000
   C -0.623043925E+01 -0.312417251E+00  0.255020971E+00
   C  0.637993033E+01  0.409799647E-01  0.987152341E-01
   H -0.327633557E+02  0.201278951E+01 -0.217598155E+01
   H  0.322108863E+02  0.145276151E+01 -0.222100245E+01
     4
 # iter = 64000  time[fs]=64.00000
   C -0.630706938E+01 -0.316439490E+00  0.258176659E+00
   C  0.645740233E+01  0.413520693E-01  0.100047773E+00
   H -0.331290654E+02  0.203492504E+01 -0.220023421E+01
   H  0.325694343E+02  0.146866974E+01 -0.224567354E+01
     4
 # iter = 64500  time[fs]=64.50000
   C -0.638376052E+01 -0.320463928E+00  0.261333609E+00
   C  0.653493502E+01  0.417256206E-01  0.101380013E+00
   H -0.334948521E+02  0.205706587E+01 -0.222449244E+01
   H  0.329280632E+02  0.148458169E+01 -0.227035061E+01
     4
 # iter = 65000  time[fs]=65.00000
   C -0.646051122E+01 -0.324490513E+00  0.264491793E+00
   C  0.661252696E+01  0.421005838E-01  0.102711962E+00
   H -0.338607143E+02  0.207921189E+01 -0.224875615E+01
   H  0.332867712E+02  0.150049727E+01 -0.229503352E+01
     4
 # iter = 65500  time[fs]=65.50000
   C -0.653732007E+01 -0.328519197E+00  0.267651182E+00
   C  0.669017674E+01  0.424769253E-01  0.104043628E+00
   H -0.342266503E+02  0.210136300E+01 -0.227302521E+01
   H  0.336455568E+02  0.151641641E+01 -0.231972216E+01
     4
 # iter = 66000  time[fs]=66.00000
   C -0.661418571E+01 -0.332549931E+00  0.270811750E+00
   C  0.676788302E+01  0.428546130E-01  0.105375020E+00
   H -0.345926586E+02  0.212351909E+01 -0.229729952E+01
   H  0.340044182E+02  0.153233904E+01 -0.234441640E+01
     4
 # iter = 66500  time[fs]=66.50000
   C -0.669110684E+01 -0.336582671E+00  0.273973469E+00
   C  0.684564449E+01  0.432336154E-01  0.106706146E+00
   H -0.349587376E+02  0.214568004E+01 -0.232157896E+01
   H  0.343633539E+02  0.154826508E+01 -0.236911613E+01
     4
 # iter = 67000  time[fs]=67.00000
   C -0.676808218E+01 -0.340617373E+00  0.277136315E+00
   C  0.692345990E+01  0.436139023E-01  0.108037012E+00
   H -0.353248860E+02  0.216784578E+01 -0.234586343E+01
   H  0.347223624E+02  0.156419446E+01 -0.239382124E+01
     4
 # iter = 67500  time[fs]=67.50000
   C -0.684511052E+01 -0.344653992E+00  0.280300263E+00
   C  0.700132801E+01  0.439954446E-01  0.109367627E+00
   H -0.356911022E+02  0.219001619E+01 -0.237015283E+01
   H  0.350814421E+02  0.158012711E+01 -0.241853162E+01
     4
 # iter = 68000  time[fs]=68.00000
   C -0.692219067E+01 -0.348692488E+00  0.283465290E+00
   C  0.707924766E+01  0.443782140E-01  0.110697996E+00
   H -0.360573850E+02  0.221219119E+01 -0.239444706E+01
   H  0.354405917E+02  0.159606298E+01 -0.244324716E+01
     4
 # iter = 68500  time[fs]=68.50000
   C -0.699932149E+01 -0.352732820E+00  0.286631371E+00
   C  0.715721770E+01  0.447621832E-01  0.112028128E+00
   H -0.364237329E+02  0.223437068E+01 -0.241874603E+01
   H  0.357998097E+02  0.161200199E+01 -0.246796777E+01
     4
 # iter = 69000  time[fs]=69.00000
   C -0.707650185E+01 -0.356774950E+00  0.289798485E+00
   C  0.723523703E+01  0.451473256E-01  0.113358027E+00
   H -0.367901448E+02  0.225655459E+01 -0.244304965E+01
   H  0.361590948E+02  0.162794408E+01 -0.249269334E+01
     4
 # iter = 69500  time[fs]=69.50000
   C -0.715373070E+01 -0.360818840E+00  0.292966609E+00
   C  0.731330458E+01  0.455336158E-01  0.114687701E+00
   H -0.371566193E+02  0.227874281E+01 -0.246735782E+01
   H  0.365184456E+02  0.164388920E+01 -0.251742378E+01
     4
 # iter = 70000  time[fs]=70.00000
   C -0.723100699E+01 -0.364864453E+00  0.296135724E+00
   C  0.739141932E+01  0.459210290E-01  0.116017155E+00
   H -0.375231552E+02  0.230093527E+01 -0.249167046E+01
   H  0.368778609E+02  0.165983728E+01 -0.254215899E+01
     4
 # iter = 70500  time[fs]=70.50000
   C -0.730832971E+01 -0.368911754E+00  0.299305809E+00
   C  0.746958024E+01  0.463095410E-01  0.117346395E+00
   H -0.378897514E+02  0.232313190E+01 -0.251598748E+01
   H  0.372373395E+02  0.167578826E+01 -0.256689889E+01
     4
 # iter = 71000  time[fs]=71.00000
   C -0.738569788E+01 -0.372960708E+00  0.302476843E+00
   C  0.754778636E+01  0.466991287E-01  0.118675426E+00
   H -0.382564066E+02  0.234533260E+01 -0.254030880E+01
   H  0.375968801E+02  0.169174211E+01 -0.259164338E+01
     4
 # iter = 71500  time[fs]=71.50000
   C -0.746311057E+01 -0.377011283E+00  0.305648808E+00
   C  0.762603676E+01  0.470897695E-01  0.120004254E+00
   H -0.386231199E+02  0.236753731E+01 -0.256463435E+01
   H  0.379564816E+02  0.170769875E+01 -0.261639238E+01
     4
 # iter = 72000  time[fs]=72.00000
   C -0.754056685E+01 -0.381063445E+00  0.308821686E+00
   C  0.770433052E+01  0.474814415E-01  0.121332884E+00
   H -0.389898900E+02  0.238974595E+01 -0.258896403E+01
   H  0.383161428E+02  0.172365814E+01 -0.264114582E+01
     4
 # iter = 72500  time[fs]=72.50000
   C -0.761806583E+01 -0.385117164E+00  0.311995457E+00
   C  0.778266674E+01  0.478741235E-01  0.122661321E+00
   H -0.393567160E+02  0.241195845E+01 -0.261329779E+01
   H  0.386758627E+02  0.173962022E+01 -0.266590359E+01
     4
 # iter = 73000  time[fs]=73.00000
   C -0.769560665E+01 -0.389172408E+00  0.315170106E+00
   C  0.786104457E+01  0.482677949E-01  0.123989570E+00
   H -0.397235967E+02  0.243417473E+01 -0.263763554E+01
   H  0.390356401E+02  0.175558495E+01 -0.269066564E+01
     4
 # iter = 73500  time[fs]=73.50000
   C -0.777318847E+01 -0.393229149E+00  0.318345614E+00
   C  0.793946318E+01  0.486624358E-01  0.125317635E+00
   H -0.400905313E+02  0.245639474E+01 -0.266197721E+01
   H  0.393954740E+02  0.177155229E+01 -0.271543187E+01
     4
 # iter = 74000  time[fs]=74.00000
   C -0.785081048E+01 -0.397287357E+00  0.321521965E+00
   C  0.801792176E+01  0.490580268E-01  0.126645521E+00
   H -0.404575187E+02  0.247861840E+01 -0.268632273E+01
   H  0.397553633E+02  0.178752217E+01 -0.274020222E+01
     4
 # iter = 74500  time[fs]=74.50000
   C -0.792847188E+01 -0.401347004E+00  0.324699143E+00
   C  0.809641952E+01  0.494545491E-01  0.127973232E+00
   H -0.408245580E+02  0.250084565E+01 -0.271067204E+01
   H  0.401153072E+02  0.180349457E+01 -0.276497661E+01
     4
 # iter = 75000  time[fs]=75.00000
   C -0.800617192E+01 -0.405408064E+00  0.327877133E+00
   C  0.817495569E+01  0.498519844E-01  0.129300772E+00
   H -0.411916483E+02  0.252307643E+01 -0.273502507E+01
   H  0.404753046E+02  0.181946942E+01 -0.278975498E+01
     4
 # iter = 75500  time[fs]=75.50000
   C -0.808390983E+01 -0.409470509E+00  0.331055919E+00
   C  0.825352954E+01  0.502503149E-01  0.130628146E+00
   H -0.415587887E+02  0.254531068E+01 -0.275938175E+01
   H  0.408353545E+02  0.183544670E+01 -0.281453725E+01
     4
 # iter = 76000  time[fs]=76.00000
   C -0.816168491E+01 -0.413534314E+00  0.334235487E+00
   C  0.833214034E+01  0.506495234E-01  0.131955357E+00
   H -0.419259783E+02  0.256754833E+01 -0.278374202E+01
   H  0.411954562E+02  0.185142636E+01 -0.283932335E+01
     4
 # iter = 76500  time[fs]=76.50000
   C -0.823949643E+01 -0.417599455E+00  0.337415822E+00
   C  0.841078739E+01  0.510495932E-01  0.133282410E+00
   H -0.422932162E+02  0.258978933E+01 -0.280810582E+01
   H  0.415556086E+02  0.186740835E+01 -0.286411323E+01
     4
 # iter = 77000  time[fs]=77.00000
   C -0.831734373E+01 -0.421665906E+00  0.340596911E+00
   C  0.848947002E+01  0.514505079E-01  0.134609307E+00
   H -0.426605016E+02  0.261203362E+01 -0.283247309E+01
   H  0.419158109E+02  0.188339264E+01 -0.288890681E+01
     4
 # iter = 77500  time[fs]=77.50000
   C -0.839522613E+01 -0.425733645E+00  0.343778739E+00
   C  0.856818755E+01  0.518522516E-01  0.135936052E+00
   H -0.430278338E+02  0.263428115E+01 -0.285684378E+01
   H  0.422760623E+02  0.189937920E+01 -0.291370404E+01
     4
 # iter = 78000  time[fs]=78.00000
   C -0.847314299E+01 -0.429802647E+00  0.346961294E+00
   C  0.864693934E+01  0.522548091E-01  0.137262650E+00
   H -0.433952119E+02  0.265653186E+01 -0.288121782E+01
   H  0.426363619E+02  0.191536797E+01 -0.293850485E+01
     4
 # iter = 78500  time[fs]=78.50000
   C -0.855109367E+01 -0.433872891E+00  0.350144563E+00
   C  0.872572478E+01  0.526581652E-01  0.138589102E+00
   H -0.437626352E+02  0.267878571E+01 -0.290559516E+01
   H  0.429967090E+02  0.193135893E+01 -0.296330919E+01
     4
 # iter = 79000  time[fs]=79.00000
   C -0.862907757E+01 -0.437944355E+00  0.353328533E+00
   C  0.880454323E+01  0.530623053E-01  0.139915413E+00
   H -0.441301028E+02  0.270104263E+01 -0.292997575E+01
   H  0.433571027E+02  0.194735203E+01 -0.298811700E+01
     4
 # iter = 79500  time[fs]=79.50000
   C -0.870709407E+01 -0.442017017E+00  0.356513191E+00
   C  0.888339412E+01  0.534672153E-01  0.141241585E+00
   H -0.444976142E+02  0.272330258E+01 -0.295435953E+01
   H  0.437175422E+02  0.196334725E+01 -0.301292821E+01
     4
 # iter = 80000  time[fs]=80.00000
   C -0.878514261E+01 -0.446090857E+00  0.359698527E+00
   C  0.896227686E+01  0.538728814E-01  0.142567622E+00
   H -0.448651685E+02  0.274556551E+01 -0.297874646E+01
   H  0.440780269E+02  0.197934455E+01 -0.303774279E+01
