     4
 # iter = 25000  time[fs]=25.00000
   C -0.979226389E+00  0.363535287E-01  0.263734145E-01
   C  0.961794133E+00  0.534278403E-02 -0.280851273E-02
   H -0.525781620E+01 -0.235127427E+00  0.459144181E+00
   H  0.528282774E+01 -0.349315953E+00 -0.423575077E+00
     4
 # iter = 25500  time[fs]=25.50000
   C -0.102450952E+01  0.381321757E-01  0.266063729E-01
   C  0.100311089E+01  0.681239295E-02 -0.496981468E-03
   H -0.558587222E+01 -0.250429560E+00  0.488702989E+00
   H  0.559491806E+01 -0.369745015E+00 -0.447729172E+00
     4
 # iter = 26000  time[fs]=26.00000
   C -0.107286610E+01  0.399720734E-01  0.268723518E-01
   C  0.104750380E+01  0.824697884E-02  0.178058170E-02
   H -0.591663028E+01 -0.265863103E+00  0.518509275E+00
   H  0.590967800E+01 -0.390357398E+00 -0.472119371E+00
     4
 # iter = 26500  time[fs]=26.50000
   C -0.112403643E+01  0.418662746E-01  0.271643923E-01
   C  0.109471195E+01  0.965064171E-02  0.403130125E-02
   H -0.624979256E+01 -0.281413472E+00  0.548535874E+00
   H  0.622682441E+01 -0.411133522E+00 -0.496720501E+00
     4
 # iter = 27000  time[fs]=27.00000
   C -0.117777873E+01  0.438087078E-01  0.274767069E-01
   C  0.114449263E+01  0.110270477E-01  0.626109582E-02
   H -0.658510704E+01 -0.297068408E+00  0.578759850E+00
   H  0.654611609E+01 -0.432056779E+00 -0.521511196E+00
     4
 # iter = 27500  time[fs]=27.50000
   C -0.123387024E+01  0.457940770E-01  0.278045300E-01
   C  0.119662245E+01  0.123794414E-01  0.847483558E-02
   H -0.692235872E+01 -0.312817503E+00  0.609161664E+00
   H  0.686734598E+01 -0.453112963E+00 -0.546473173E+00
     4
 # iter = 28000  time[fs]=28.00000
   C -0.129210734E+01  0.478177677E-01  0.281439686E-01
   C  0.125089728E+01  0.137106742E-01  0.106764981E-01
   H -0.726136279E+01 -0.328651842E+00  0.639724535E+00
   H  0.719033511E+01 -0.474289828E+00 -0.571590667E+00
     4
 # iter = 28500  time[fs]=28.50000
   C -0.135230489E+01  0.498757584E-01  0.284918628E-01
   C  0.130713164E+01  0.150232402E-01  0.128693123E-01
   H -0.760195928E+01 -0.344563731E+00  0.670433946E+00
   H  0.751492782E+01 -0.495576743E+00 -0.596849989E+00
     4
 # iter = 29000  time[fs]=29.00000
   C -0.141429528E+01  0.519645423E-01  0.288456607E-01
   C  0.136515764E+01  0.163193149E-01  0.150558868E-01
   H -0.794400886E+01 -0.360546479E+00  0.701277258E+00
   H  0.784098788E+01 -0.516964422E+00 -0.622239179E+00
     4
 # iter = 29500  time[fs]=29.50000
   C -0.147792710E+01  0.540810565E-01  0.292033112E-01
   C  0.142482371E+01  0.176007934E-01  0.172383198E-01
   H -0.828738947E+01 -0.376594229E+00  0.732243396E+00
   H  0.816839548E+01 -0.538444707E+00 -0.647747730E+00
     4
 # iter = 30000  time[fs]=30.00000
   C -0.154306386E+01  0.562226210E-01  0.295631728E-01
   C  0.148599320E+01  0.188693255E-01  0.194182921E-01
   H -0.863199360E+01 -0.392701830E+00  0.763322606E+00
   H  0.849704468E+01 -0.560010390E+00 -0.673366357E+00
     4
 # iter = 30500  time[fs]=30.50000
   C -0.160958256E+01  0.583868854E-01  0.299239372E-01
   C  0.154854303E+01  0.201263486E-01  0.215971452E-01
   H -0.897772611E+01 -0.408864719E+00  0.794506249E+00
   H  0.882684141E+01 -0.581655074E+00 -0.699086818E+00
     4
 # iter = 31000  time[fs]=31.00000
   C -0.167737237E+01  0.605717832E-01  0.302845667E-01
   C  0.161236233E+01  0.213731157E-01  0.237759447E-01
   H -0.932450239E+01 -0.425078843E+00  0.825786639E+00
   H  0.915770174E+01 -0.603373053E+00 -0.724901766E+00
     4
 # iter = 31500  time[fs]=31.50000
   C -0.174633344E+01  0.627754925E-01  0.306442426E-01
   C  0.167735120E+01  0.226107213E-01  0.259555329E-01
   H -0.967224690E+01 -0.441340577E+00  0.857156911E+00
   H  0.948955052E+01 -0.625159220E+00 -0.750804617E+00
     4
 # iter = 32000  time[fs]=32.00000
   C -0.181637569E+01  0.649964024E-01  0.310023236E-01
   C  0.174341955E+01  0.238401224E-01  0.281365717E-01
   H -0.100208919E+02 -0.457646673E+00  0.888610902E+00
   H  0.982232017E+01 -0.647008980E+00 -0.776789456E+00
     4
 # iter = 32500  time[fs]=32.50000
   C -0.188741779E+01  0.672330845E-01  0.313583114E-01
   C  0.181048605E+01  0.250621584E-01  0.303195768E-01
   H -0.103703765E+02 -0.473994203E+00  0.920143066E+00
   H  0.101559498E+02 -0.668918191E+00 -0.802850943E+00
     4
 # iter = 33000  time[fs]=33.00000
   C -0.195938623E+01  0.694842687E-01  0.317118232E-01
   C  0.187847722E+01  0.262775663E-01  0.325049461E-01
   H -0.107206456E+02 -0.490380522E+00  0.951748386E+00
   H  0.104903841E+02 -0.690883101E+00 -0.828984246E+00
     4
 # iter = 33500  time[fs]=33.50000
   C -0.203221446E+01  0.717488219E-01  0.320625691E-01
   C  0.194732649E+01  0.274869953E-01  0.346929825E-01
   H -0.110716495E+02 -0.506803232E+00  0.983422316E+00
   H  0.108255732E+02 -0.712900301E+00 -0.855184974E+00
     4
 # iter = 34000  time[fs]=34.00000
   C -0.210584211E+01  0.740257308E-01  0.324103346E-01
   C  0.201697356E+01  0.286910183E-01  0.368839119E-01
   H -0.114233428E+02 -0.523260151E+00  0.101516072E+01
   H  0.111614713E+02 -0.734966687E+00 -0.881449127E+00
     4
 # iter = 34500  time[fs]=34.50000
   C -0.218021438E+01  0.763140862E-01  0.327549653E-01
   C  0.208736364E+01  0.298901421E-01  0.390778988E-01
   H -0.117756842E+02 -0.539749287E+00  0.104695983E+01
   H  0.114980369E+02 -0.757079424E+00 -0.907773053E+00
     4
 # iter = 35000  time[fs]=35.00000
   C -0.225528142E+01  0.786130703E-01  0.330963553E-01
   C  0.215844691E+01  0.310848162E-01  0.412750575E-01
   H -0.121286361E+02 -0.556268820E+00  0.107881618E+01
   H  0.118352319E+02 -0.779235914E+00 -0.934153405E+00
     4
 # iter = 35500  time[fs]=35.50000
   C -0.233099777E+01  0.809219456E-01  0.334344378E-01
   C  0.223017795E+01  0.322754404E-01  0.434754626E-01
   H -0.124821640E+02 -0.572817079E+00  0.111072663E+01
   H  0.121730213E+02 -0.801433772E+00 -0.960587109E+00
     4
 # iter = 36000  time[fs]=36.00000
   C -0.240732195E+01  0.832400449E-01  0.337691771E-01
   C  0.230251533E+01  0.334623706E-01  0.456791565E-01
   H -0.128362360E+02 -0.589392528E+00  0.114268825E+01
   H  0.125113729E+02 -0.823670801E+00 -0.987071337E+00
     4
 # iter = 36500  time[fs]=36.50000
   C -0.248421603E+01  0.855667634E-01  0.341005623E-01
   C  0.237542113E+01  0.346459250E-01  0.478861560E-01
   H -0.131908231E+02 -0.605993750E+00  0.117469836E+01
   H  0.128502572E+02 -0.845944978E+00 -0.101360348E+01
     4
 # iter = 37000  time[fs]=37.00000
   C -0.256164524E+01  0.879015514E-01  0.344286024E-01
   C  0.244886064E+01  0.358263883E-01  0.500964576E-01
   H -0.135458984E+02 -0.622619437E+00  0.120675450E+01
   H  0.131896466E+02 -0.868254429E+00 -0.104018112E+01
     4
 # iter = 37500  time[fs]=37.50000
   C -0.263957769E+01  0.902439078E-01  0.347533216E-01
   C  0.252280202E+01  0.370040161E-01  0.523100413E-01
   H -0.139014368E+02 -0.639268380E+00  0.123885437E+01
   H  0.135295160E+02 -0.890597420E+00 -0.106680204E+01
     4
 # iter = 38000  time[fs]=38.00000
   C -0.271798407E+01  0.925933754E-01  0.350747569E-01
   C  0.259721596E+01  0.381790381E-01  0.545268748E-01
   H -0.142574155E+02 -0.655939455E+00  0.127099584E+01
   H  0.138698417E+02 -0.912972343E+00 -0.109346414E+01
     4
 # iter = 38500  time[fs]=38.50000
   C -0.279683738E+01  0.949495354E-01  0.353929542E-01
   C  0.267207552E+01  0.393516612E-01  0.567469154E-01
   H -0.146138129E+02 -0.672631620E+00  0.130317695E+01
   H  0.142106020E+02 -0.935377699E+00 -0.112016552E+01
     4
 # iter = 39000  time[fs]=39.00000
   C -0.287611272E+01  0.973120038E-01  0.357079670E-01
   C  0.274735584E+01  0.405220725E-01  0.589701132E-01
   H -0.149706094E+02 -0.689343903E+00  0.133539585E+01
   H  0.145517765E+02 -0.957812097E+00 -0.114690436E+01
     4
 # iter = 39500  time[fs]=39.50000
   C -0.295578708E+01  0.996804277E-01  0.360198543E-01
   C  0.282303395E+01  0.416904411E-01  0.611964122E-01
   H -0.153277862E+02 -0.706075399E+00  0.136765085E+01
   H  0.148933463E+02 -0.980274235E+00 -0.117367900E+01
     4
 # iter = 40000  time[fs]=40.00000
   C -0.303583921E+01  0.102054482E+00  0.363286787E-01
   C  0.289908861E+01  0.428569203E-01  0.634257523E-01
   H -0.156853263E+02 -0.722825262E+00  0.139994033E+01
   H  0.152352938E+02 -0.100276290E+01 -0.120048786E+01
     4
 # iter = 40500  time[fs]=40.50000
   C -0.311624936E+01  0.104433867E+00  0.366345060E-01
   C  0.297550014E+01  0.440216494E-01  0.656580701E-01
   H -0.160432134E+02 -0.739592702E+00  0.143226281E+01
   H  0.155776023E+02 -0.102527695E+01 -0.122732949E+01
     4
 # iter = 41000  time[fs]=41.00000
   C -0.319699926E+01  0.106818306E+00  0.369374036E-01
   C  0.305225027E+01  0.451847550E-01  0.678933005E-01
   H -0.164014326E+02 -0.756376979E+00  0.146461688E+01
   H  0.159202565E+02 -0.104781533E+01 -0.125420252E+01
     4
 # iter = 41500  time[fs]=41.50000
   C -0.327807190E+01  0.109207541E+00  0.372374400E-01
   C  0.312932204E+01  0.463463527E-01  0.701313768E-01
   H -0.167599697E+02 -0.773177396E+00  0.149700125E+01
   H  0.162632419E+02 -0.107037703E+01 -0.128110564E+01
     4
 # iter = 42000  time[fs]=42.00000
   C -0.335945145E+01  0.111601334E+00  0.375346841E-01
   C  0.320669966E+01  0.475065479E-01  0.723722319E-01
   H -0.171188114E+02 -0.789993303E+00  0.152941467E+01
   H  0.166065447E+02 -0.109296111E+01 -0.130803766E+01
     4
 # iter = 42500  time[fs]=42.50000
   C -0.344112318E+01  0.113999466E+00  0.378292047E-01
   C  0.328436840E+01  0.486654370E-01  0.746157984E-01
   H -0.174779454E+02 -0.806824084E+00  0.156185598E+01
   H  0.169501523E+02 -0.111556669E+01 -0.133499743E+01
     4
 # iter = 43000  time[fs]=43.00000
   C -0.352307332E+01  0.116401728E+00  0.381210704E-01
   C  0.336231455E+01  0.498231085E-01  0.768620094E-01
   H -0.178373598E+02 -0.823669162E+00  0.159432410E+01
   H  0.172940526E+02 -0.113819295E+01 -0.136198388E+01
     4
 # iter = 43500  time[fs]=43.50000
   C -0.360528902E+01  0.118807930E+00  0.384103486E-01
   C  0.344052528E+01  0.509796433E-01  0.791107986E-01
   H -0.181970438E+02 -0.840527993E+00  0.162681800E+01
   H  0.176382341E+02 -0.116083908E+01 -0.138899600E+01
     4
 # iter = 44000  time[fs]=44.00000
   C -0.368775826E+01  0.121217893E+00  0.386971060E-01
   C  0.351898859E+01  0.521351159E-01  0.813621006E-01
   H -0.185569869E+02 -0.857400061E+00  0.165933671E+01
   H  0.179826863E+02 -0.118350436E+01 -0.141603283E+01
     4
 # iter = 44500  time[fs]=44.50000
   C -0.377046978E+01  0.123631448E+00  0.389814080E-01
   C  0.359769324E+01  0.532895948E-01  0.836158510E-01
   H -0.189171794E+02 -0.874284881E+00  0.169187931E+01
   H  0.183273989E+02 -0.120618808E+01 -0.144309347E+01
     4
 # iter = 45000  time[fs]=45.00000
   C -0.385341301E+01  0.126048440E+00  0.392633184E-01
   C  0.367662870E+01  0.544431432E-01  0.858719869E-01
   H -0.192776119E+02 -0.891181993E+00  0.172444494E+01
   H  0.186723625E+02 -0.122888957E+01 -0.147017707E+01
     4
 # iter = 45500  time[fs]=45.50000
   C -0.393657804E+01  0.128468722E+00  0.395428999E-01
   C  0.375578509E+01  0.555958194E-01  0.881304465E-01
   H -0.196382758E+02 -0.908090963E+00  0.175703278E+01
   H  0.190175680E+02 -0.125160822E+01 -0.149728281E+01
     4
 # iter = 46000  time[fs]=46.00000
   C -0.401995556E+01  0.130892155E+00  0.398202134E-01
   C  0.383515311E+01  0.567476770E-01  0.903911697E-01
   H -0.199991627E+02 -0.925011376E+00  0.178964205E+01
   H  0.193630068E+02 -0.127434342E+01 -0.152440993E+01
     4
 # iter = 46500  time[fs]=46.50000
   C -0.410353680E+01  0.133318611E+00  0.400953184E-01
   C  0.391472402E+01  0.578987660E-01  0.926540978E-01
   H -0.203602648E+02 -0.941942843E+00  0.182227202E+01
   H  0.197086708E+02 -0.129709462E+01 -0.155155770E+01
     4
 # iter = 47000  time[fs]=47.00000
   C -0.418731351E+01  0.135747967E+00  0.403682726E-01
   C  0.399448958E+01  0.590491324E-01  0.949191737E-01
   H -0.207215747E+02 -0.958884992E+00  0.185492197E+01
   H  0.200545522E+02 -0.131986126E+01 -0.157872543E+01
     4
 # iter = 47500  time[fs]=47.50000
   C -0.427127790E+01  0.138180109E+00  0.406391321E-01
   C  0.407444204E+01  0.601988190E-01  0.971863418E-01
   H -0.210830852E+02 -0.975837468E+00  0.188759126E+01
   H  0.204006438E+02 -0.134264285E+01 -0.160591246E+01
     4
 # iter = 48000  time[fs]=48.00000
   C -0.435542264E+01  0.140614929E+00  0.409079514E-01
   C  0.415457408E+01  0.613478655E-01  0.994555483E-01
   H -0.214447898E+02 -0.992799937E+00  0.192027925E+01
   H  0.207469386E+02 -0.136543890E+01 -0.163311816E+01
     4
 # iter = 48500  time[fs]=48.50000
   C -0.443974078E+01  0.143052325E+00  0.411747834E-01
   C  0.423487877E+01  0.624963088E-01  0.101726741E+00
   H -0.218066819E+02 -0.100977208E+01  0.195298533E+01
   H  0.210934300E+02 -0.138824895E+01 -0.166034195E+01
     4
 # iter = 49000  time[fs]=49.00000
   C -0.452422576E+01  0.145492200E+00  0.414396794E-01
   C  0.431534957E+01  0.636441831E-01  0.103999868E+00
   H -0.221687555E+02 -0.102675359E+01  0.198570894E+01
   H  0.214401116E+02 -0.141107256E+01 -0.168758325E+01
     4
 # iter = 49500  time[fs]=49.50000
   C -0.460887139E+01  0.147934463E+00  0.417026890E-01
   C  0.439598031E+01  0.647915205E-01  0.106274882E+00
   H -0.225310048E+02 -0.104374418E+01  0.201844952E+01
   H  0.217869774E+02 -0.143390930E+01 -0.171484152E+01
     4
 # iter = 50000  time[fs]=50.00000
   C -0.469367178E+01  0.150379027E+00  0.419638604E-01
   C  0.447676512E+01  0.659383508E-01  0.108551733E+00
   H -0.228934243E+02 -0.106074356E+01  0.205120656E+01
   H  0.221340218E+02 -0.145675878E+01 -0.174211624E+01
     4
 # iter = 50500  time[fs]=50.50000
   C -0.477862137E+01  0.152825813E+00  0.422232401E-01
   C  0.455769845E+01  0.670847018E-01  0.110830376E+00
   H -0.232560088E+02 -0.107775149E+01  0.208397956E+01
   H  0.224812392E+02 -0.147962061E+01 -0.176940693E+01
     4
 # iter = 51000  time[fs]=51.00000
   C -0.486371486E+01  0.155274740E+00  0.424808734E-01
   C  0.463877502E+01  0.682305994E-01  0.113110767E+00
   H -0.236187531E+02 -0.109476769E+01  0.211676804E+01
   H  0.228286245E+02 -0.150249443E+01 -0.179671310E+01
     4
 # iter = 51500  time[fs]=51.50000
   C -0.494894723E+01  0.157725737E+00  0.427368038E-01
   C  0.471998984E+01  0.693760681E-01  0.115392861E+00
   H -0.239816526E+02 -0.111179194E+01  0.214957156E+01
   H  0.231761725E+02 -0.152537989E+01 -0.182403432E+01
     4
 # iter = 52000  time[fs]=52.00000
   C -0.503431373E+01  0.160178733E+00  0.429910737E-01
   C  0.480133814E+01  0.705211304E-01  0.117676616E+00
   H -0.243447027E+02 -0.112882399E+01  0.218238966E+01
   H  0.235238787E+02 -0.154827666E+01 -0.185137014E+01
     4
 # iter = 52500  time[fs]=52.50000
   C -0.511980980E+01  0.162633661E+00  0.432437240E-01
   C  0.488281542E+01  0.716658077E-01  0.119961993E+00
   H -0.247078988E+02 -0.114586364E+01  0.221522195E+01
   H  0.238717383E+02 -0.157118441E+01 -0.187872015E+01
     4
 # iter = 53000  time[fs]=53.00000
   C -0.520543115E+01  0.165090459E+00  0.434947943E-01
   C  0.496441737E+01  0.728101200E-01  0.122248951E+00
   H -0.250712369E+02 -0.116291066E+01  0.224806801E+01
   H  0.242197470E+02 -0.159410283E+01 -0.190608397E+01
     4
 # iter = 53500  time[fs]=53.50000
   C -0.529117365E+01  0.167549067E+00  0.437443229E-01
   C  0.504613989E+01  0.739540860E-01  0.124537452E+00
   H -0.254347130E+02 -0.117996485E+01  0.228092748E+01
   H  0.245679007E+02 -0.161703165E+01 -0.193346120E+01
     4
 # iter = 54000  time[fs]=54.00000
   C -0.537703339E+01  0.170009426E+00  0.439923471E-01
   C  0.512797908E+01  0.750977234E-01  0.126827460E+00
   H -0.257983231E+02 -0.119702602E+01  0.231379997E+01
   H  0.249161952E+02 -0.163997056E+01 -0.196085149E+01
     4
 # iter = 54500  time[fs]=54.50000
   C -0.546300663E+01  0.172471482E+00  0.442389026E-01
   C  0.520993122E+01  0.762410485E-01  0.129118938E+00
   H -0.261620635E+02 -0.121409397E+01  0.234668514E+01
   H  0.252646268E+02 -0.166291930E+01 -0.198825448E+01
     4
 # iter = 55000  time[fs]=55.00000
   C -0.554908981E+01  0.174935183E+00  0.444840242E-01
   C  0.529199275E+01  0.773840771E-01  0.131411853E+00
   H -0.265259308E+02 -0.123116854E+01  0.237958266E+01
   H  0.256131918E+02 -0.168587761E+01 -0.201566984E+01
     4
 # iter = 55500  time[fs]=55.50000
   C -0.563527953E+01  0.177400479E+00  0.447277457E-01
   C  0.537416028E+01  0.785268236E-01  0.133706170E+00
   H -0.268899215E+02 -0.124824955E+01  0.241249220E+01
   H  0.259618865E+02 -0.170884524E+01 -0.204309724E+01
     4
 # iter = 56000  time[fs]=56.00000
   C -0.572157253E+01  0.179867322E+00  0.449700996E-01
   C  0.545643058E+01  0.796693020E-01  0.136001857E+00
   H -0.272540324E+02 -0.126533682E+01  0.244541344E+01
   H  0.263107077E+02 -0.173182195E+01 -0.207053639E+01
     4
 # iter = 56500  time[fs]=56.50000
   C -0.580796570E+01  0.182335667E+00  0.452111175E-01
   C  0.553880054E+01  0.808115251E-01  0.138298882E+00
   H -0.276182603E+02 -0.128243021E+01  0.247834609E+01
   H  0.266596519E+02 -0.175480751E+01 -0.209798697E+01
     4
 # iter = 57000  time[fs]=57.00000
   C -0.589445606E+01  0.184805471E+00  0.454508299E-01
   C  0.562126720E+01  0.819535054E-01  0.140597216E+00
   H -0.279826021E+02 -0.129952955E+01  0.251128985E+01
   H  0.270087161E+02 -0.177780169E+01 -0.212544870E+01
     4
 # iter = 57500  time[fs]=57.50000
   C -0.598104078E+01  0.187276691E+00  0.456892664E-01
   C  0.570382772E+01  0.830952542E-01  0.142896829E+00
   H -0.283470551E+02 -0.131663470E+01  0.254424446E+01
   H  0.273578973E+02 -0.180080429E+01 -0.215292130E+01
     4
 # iter = 58000  time[fs]=58.00000
   C -0.606771711E+01  0.189749287E+00  0.459264557E-01
   C  0.578647939E+01  0.842367825E-01  0.145197691E+00
   H -0.287116163E+02 -0.133374552E+01  0.257720965E+01
   H  0.277071924E+02 -0.182381509E+01 -0.218040452E+01
     4
 # iter = 58500  time[fs]=58.50000
   C -0.615448246E+01  0.192223221E+00  0.461624257E-01
   C  0.586921960E+01  0.853781008E-01  0.147499776E+00
   H -0.290762832E+02 -0.135086187E+01  0.261018515E+01
   H  0.280565987E+02 -0.184683389E+01 -0.220789808E+01
     4
 # iter = 59000  time[fs]=59.00000
   C -0.624133430E+01  0.194698457E+00  0.463972032E-01
   C  0.595204585E+01  0.865192186E-01  0.149803056E+00
   H -0.294410530E+02 -0.136798361E+01  0.264317071E+01
   H  0.284061134E+02 -0.186986052E+01 -0.223540175E+01
     4
 # iter = 59500  time[fs]=59.50000
   C -0.632827023E+01  0.197174959E+00  0.466308144E-01
   C  0.603495575E+01  0.876601453E-01  0.152107505E+00
   H -0.298059234E+02 -0.138511063E+01  0.267616611E+01
   H  0.287557340E+02 -0.189289477E+01 -0.226291529E+01
     4
 # iter = 60000  time[fs]=60.00000
   C -0.641528795E+01  0.199652692E+00  0.468632845E-01
   C  0.611794700E+01  0.888008896E-01  0.154413099E+00
   H -0.301708918E+02 -0.140224278E+01  0.270917110E+01
   H  0.291054580E+02 -0.191593647E+01 -0.229043846E+01
     4
 # iter = 60500  time[fs]=60.50000
   C -0.650238524E+01  0.202131626E+00  0.470946381E-01
   C  0.620101740E+01  0.899414598E-01  0.156719812E+00
   H -0.305359560E+02 -0.141937997E+01  0.274218547E+01
   H  0.294552828E+02 -0.193898545E+01 -0.231797104E+01
     4
 # iter = 61000  time[fs]=61.00000
   C -0.658955997E+01  0.204611727E+00  0.473248991E-01
   C  0.628416481E+01  0.910818636E-01  0.159027621E+00
   H -0.309011137E+02 -0.143652207E+01  0.277520900E+01
   H  0.298052062E+02 -0.196204154E+01 -0.234551282E+01
     4
 # iter = 61500  time[fs]=61.50000
   C -0.667681009E+01  0.207092967E+00  0.475540905E-01
   C  0.636738720E+01  0.922221087E-01  0.161336503E+00
   H -0.312663628E+02 -0.145366897E+01  0.280824148E+01
   H  0.301552259E+02 -0.198510459E+01 -0.237306358E+01
     4
 # iter = 62000  time[fs]=62.00000
   C -0.676413363E+01  0.209575316E+00  0.477822347E-01
   C  0.645068261E+01  0.933622020E-01  0.163646435E+00
   H -0.316317012E+02 -0.147082056E+01  0.284128271E+01
   H  0.305053397E+02 -0.200817443E+01 -0.240062314E+01
     4
 # iter = 62500  time[fs]=62.50000
   C -0.685152871E+01  0.212058747E+00  0.480093534E-01
   C  0.653404916E+01  0.945021502E-01  0.165957396E+00
   H -0.319971268E+02 -0.148797674E+01  0.287433250E+01
   H  0.308555454E+02 -0.203125091E+01 -0.242819130E+01
     4
 # iter = 63000  time[fs]=63.00000
   C -0.693899348E+01  0.214543232E+00  0.482354678E-01
   C  0.661748503E+01  0.956419598E-01  0.168269365E+00
   H -0.323626376E+02 -0.150513741E+01  0.290739066E+01
   H  0.312058411E+02 -0.205433390E+01 -0.245576786E+01
     4
 # iter = 63500  time[fs]=63.50000
   C -0.702652620E+01  0.217028746E+00  0.484605984E-01
   C  0.670098846E+01  0.967816367E-01  0.170582320E+00
   H -0.327282319E+02 -0.152230247E+01  0.294045700E+01
   H  0.315562247E+02 -0.207742325E+01 -0.248335265E+01
     4
 # iter = 64000  time[fs]=64.00000
   C -0.711412517E+01  0.219515263E+00  0.486847650E-01
   C  0.678455777E+01  0.979211867E-01  0.172896243E+00
   H -0.330939078E+02 -0.153947183E+01  0.297353136E+01
   H  0.319066943E+02 -0.210051882E+01 -0.251094548E+01
     4
 # iter = 64500  time[fs]=64.50000
   C -0.720178877E+01  0.222002760E+00  0.489079870E-01
   C  0.686819135E+01  0.990606152E-01  0.175211114E+00
   H -0.334596635E+02 -0.155664540E+01  0.300661356E+01
   H  0.322572481E+02 -0.212362049E+01 -0.253854620E+01
     4
 # iter = 65000  time[fs]=65.00000
   C -0.728951542E+01  0.224491214E+00  0.491302832E-01
   C  0.695188761E+01  0.100199928E+00  0.177526914E+00
   H -0.338254972E+02 -0.157382309E+01  0.303970343E+01
   H  0.326078843E+02 -0.214672811E+01 -0.256615464E+01
     4
 # iter = 65500  time[fs]=65.50000
   C -0.737730360E+01  0.226980602E+00  0.493516718E-01
   C  0.703564506E+01  0.101339129E+00  0.179843625E+00
   H -0.341914074E+02 -0.159100481E+01  0.307280082E+01
   H  0.329586012E+02 -0.216984158E+01 -0.259377063E+01
     4
 # iter = 66000  time[fs]=66.00000
   C -0.746515185E+01  0.229470902E+00  0.495721705E-01
   C  0.711946223E+01  0.102478223E+00  0.182161229E+00
   H -0.345573925E+02 -0.160819048E+01  0.310590557E+01
   H  0.333093970E+02 -0.219296078E+01 -0.262139402E+01
     4
 # iter = 66500  time[fs]=66.50000
   C -0.755305875E+01  0.231962094E+00  0.497917966E-01
   C  0.720333772E+01  0.103617216E+00  0.184479709E+00
   H -0.349234508E+02 -0.162538002E+01  0.313901753E+01
   H  0.336602701E+02 -0.221608557E+01 -0.264902466E+01
     4
 # iter = 67000  time[fs]=67.00000
   C -0.764102294E+01  0.234454158E+00  0.500105669E-01
   C  0.728727017E+01  0.104756111E+00  0.186799048E+00
   H -0.352895809E+02 -0.164257335E+01  0.317213655E+01
   H  0.340112190E+02 -0.223921586E+01 -0.267666241E+01
     4
 # iter = 67500  time[fs]=67.50000
   C -0.772904310E+01  0.236947073E+00  0.502284976E-01
   C  0.737125825E+01  0.105894912E+00  0.189119230E+00
   H -0.356557813E+02 -0.165977041E+01  0.320526250E+01
   H  0.343622421E+02 -0.226235153E+01 -0.270430713E+01
     4
 # iter = 68000  time[fs]=68.00000
   C -0.781711795E+01  0.239440822E+00  0.504456046E-01
   C  0.745530072E+01  0.107033623E+00  0.191440239E+00
   H -0.360220506E+02 -0.167697110E+01  0.323839524E+01
   H  0.347133380E+02 -0.228549248E+01 -0.273195867E+01
     4
 # iter = 68500  time[fs]=68.50000
   C -0.790524626E+01  0.241935385E+00  0.506619033E-01
   C  0.753939633E+01  0.108172248E+00  0.193762059E+00
   H -0.363883874E+02 -0.169417537E+01  0.327153464E+01
   H  0.350645051E+02 -0.230863860E+01 -0.275961690E+01
     4
 # iter = 69000  time[fs]=69.00000
   C -0.799342684E+01  0.244430746E+00  0.508774087E-01
   C  0.762354390E+01  0.109310791E+00  0.196084676E+00
   H -0.367547904E+02 -0.171138314E+01  0.330468055E+01
   H  0.354157420E+02 -0.233178980E+01 -0.278728170E+01
     4
 # iter = 69500  time[fs]=69.50000
   C -0.808165854E+01  0.246926887E+00  0.510921355E-01
   C  0.770774228E+01  0.110449255E+00  0.198408075E+00
   H -0.371212582E+02 -0.172859435E+01  0.333783287E+01
   H  0.357670475E+02 -0.235494597E+01 -0.281495293E+01
     4
 # iter = 70000  time[fs]=70.00000
   C -0.816994023E+01  0.249423792E+00  0.513060978E-01
   C  0.779199036E+01  0.111587643E+00  0.200732242E+00
   H -0.374877897E+02 -0.174580893E+01  0.337099147E+01
   H  0.361184202E+02 -0.237810702E+01 -0.284263049E+01
     4
 # iter = 70500  time[fs]=70.50000
   C -0.825827085E+01  0.251921444E+00  0.515193096E-01
   C  0.787628707E+01  0.112725958E+00  0.203057163E+00
   H -0.378543837E+02 -0.176302682E+01  0.340415622E+01
   H  0.364698588E+02 -0.240127287E+01 -0.287031424E+01
     4
 # iter = 71000  time[fs]=71.00000
   C -0.834664933E+01  0.254419828E+00  0.517317842E-01
   C  0.796063136E+01  0.113864203E+00  0.205382824E+00
   H -0.382210388E+02 -0.178024795E+01  0.343732702E+01
   H  0.368213621E+02 -0.242444341E+01 -0.289800408E+01
     4
 # iter = 71500  time[fs]=71.50000
   C -0.843507466E+01  0.256918930E+00  0.519435349E-01
   C  0.804502223E+01  0.115002382E+00  0.207709212E+00
   H -0.385877540E+02 -0.179747228E+01  0.347050376E+01
   H  0.371729288E+02 -0.244761857E+01 -0.292569989E+01
     4
 # iter = 72000  time[fs]=72.00000
   C -0.852354587E+01  0.259418734E+00  0.521545744E-01
   C  0.812945868E+01  0.116140496E+00  0.210036314E+00
   H -0.389545281E+02 -0.181469973E+01  0.350368631E+01
   H  0.375245578E+02 -0.247079826E+01 -0.295340156E+01
     4
 # iter = 72500  time[fs]=72.50000
   C -0.861206200E+01  0.261919226E+00  0.523649152E-01
   C  0.821393979E+01  0.117278549E+00  0.212364119E+00
   H -0.393213601E+02 -0.183193025E+01  0.353687459E+01
   H  0.378762480E+02 -0.249398240E+01 -0.298110899E+01
     4
 # iter = 73000  time[fs]=73.00000
   C -0.870062212E+01  0.264420392E+00  0.525745695E-01
   C  0.829846462E+01  0.118416542E+00  0.214692613E+00
   H -0.396882489E+02 -0.184916379E+01  0.357006848E+01
   H  0.382279981E+02 -0.251717090E+01 -0.300882207E+01
     4
 # iter = 73500  time[fs]=73.50000
   C -0.878922535E+01  0.266922220E+00  0.527835491E-01
   C  0.838303229E+01  0.119554479E+00  0.217021785E+00
   H -0.400551934E+02 -0.186640029E+01  0.360326788E+01
   H  0.385798072E+02 -0.254036370E+01 -0.303654070E+01
     4
 # iter = 74000  time[fs]=74.00000
   C -0.887787080E+01  0.269424696E+00  0.529918656E-01
   C  0.846764193E+01  0.120692361E+00  0.219351623E+00
   H -0.404221927E+02 -0.188363970E+01  0.363647271E+01
   H  0.389316741E+02 -0.256356071E+01 -0.306426479E+01
     4
 # iter = 74500  time[fs]=74.50000
   C -0.896655763E+01  0.271927808E+00  0.531995302E-01
   C  0.855229269E+01  0.121830191E+00  0.221682116E+00
   H -0.407892458E+02 -0.190088197E+01  0.366968285E+01
   H  0.392835979E+02 -0.258676186E+01 -0.309199423E+01
     4
 # iter = 75000  time[fs]=75.00000
   C -0.905528504E+01  0.274431543E+00  0.534065539E-01
   C  0.863698378E+01  0.122967970E+00  0.224013253E+00
   H -0.411563517E+02 -0.191812705E+01  0.370289822E+01
   H  0.396355775E+02 -0.260996708E+01 -0.311972895E+01
     4
 # iter = 75500  time[fs]=75.50000
   C -0.914405221E+01  0.276935890E+00  0.536129474E-01
   C  0.872171438E+01  0.124105702E+00  0.226345024E+00
   H -0.415235095E+02 -0.193537490E+01  0.373611874E+01
   H  0.399876119E+02 -0.263317630E+01 -0.314746884E+01
     4
 # iter = 76000  time[fs]=76.00000
   C -0.923285838E+01  0.279440837E+00  0.538187213E-01
   C  0.880648374E+01  0.125243387E+00  0.228677417E+00
   H -0.418907183E+02 -0.195262546E+01  0.376934430E+01
   H  0.403397003E+02 -0.265638945E+01 -0.317521382E+01
     4
 # iter = 76500  time[fs]=76.50000
   C -0.932170279E+01  0.281946373E+00  0.540238856E-01
   C  0.889129110E+01  0.126381028E+00  0.231010423E+00
   H -0.422579772E+02 -0.196987869E+01  0.380257483E+01
   H  0.406918417E+02 -0.267960646E+01 -0.320296380E+01
     4
 # iter = 77000  time[fs]=77.00000
   C -0.941058472E+01  0.284452486E+00  0.542284504E-01
   C  0.897613575E+01  0.127518626E+00  0.233344031E+00
   H -0.426252853E+02 -0.198713454E+01  0.383581025E+01
   H  0.410440352E+02 -0.270282728E+01 -0.323071870E+01
     4
 # iter = 77500  time[fs]=77.50000
   C -0.949950346E+01  0.286959168E+00  0.544324254E-01
   C  0.906101697E+01  0.128656183E+00  0.235678232E+00
   H -0.429926420E+02 -0.200439297E+01  0.386905046E+01
   H  0.413962798E+02 -0.272605183E+01 -0.325847844E+01
     4
 # iter = 78000  time[fs]=78.00000
   C -0.958845831E+01  0.289466406E+00  0.546358201E-01
   C  0.914593408E+01  0.129793701E+00  0.238013016E+00
   H -0.433600462E+02 -0.202165394E+01  0.390229540E+01
   H  0.417485749E+02 -0.274928005E+01 -0.328624293E+01
     4
 # iter = 78500  time[fs]=78.50000
   C -0.967744861E+01  0.291974191E+00  0.548386437E-01
   C  0.923088641E+01  0.130931181E+00  0.240348375E+00
   H -0.437274972E+02 -0.203891741E+01  0.393554498E+01
   H  0.421009194E+02 -0.277251190E+01 -0.331401211E+01
     4
 # iter = 79000  time[fs]=79.00000
   C -0.976647371E+01  0.294482514E+00  0.550409054E-01
   C  0.931587331E+01  0.132068625E+00  0.242684298E+00
   H -0.440949943E+02 -0.205618334E+01  0.396879913E+01
   H  0.424533127E+02 -0.279574729E+01 -0.334178589E+01
     4
 # iter = 79500  time[fs]=79.50000
   C -0.985553296E+01  0.296991365E+00  0.552426139E-01
   C  0.940089415E+01  0.133206034E+00  0.245020777E+00
   H -0.444625367E+02 -0.207345168E+01  0.400205778E+01
   H  0.428057538E+02 -0.281898619E+01 -0.336956420E+01
     4
 # iter = 80000  time[fs]=80.00000
   C -0.994462575E+01  0.299500734E+00  0.554437779E-01
   C  0.948594831E+01  0.134343410E+00  0.247357804E+00
   H -0.448301236E+02 -0.209072240E+01  0.403532085E+01
   H  0.431582421E+02 -0.284222853E+01 -0.339734697E+01
