     4
 # iter = 25000  time[fs]=25.00000
   C -0.995553120E+00  0.414697078E-01  0.252614326E-01
   C  0.960339411E+00  0.391304578E-01 -0.206615036E-01
   H -0.526595975E+01  0.335829623E+00  0.317473483E+00
   H  0.528394588E+01  0.179742510E+00 -0.243448119E-01
     4
 # iter = 25500  time[fs]=25.50000
   C -0.104056329E+01  0.416784538E-01  0.255971048E-01
   C  0.100024288E+01  0.395094195E-01 -0.207457694E-01
   H -0.559916451E+01  0.354896463E+00  0.337323763E+00
   H  0.560026368E+01  0.189190846E+00 -0.256643008E-01
     4
 # iter = 26000  time[fs]=26.00000
   C -0.108830500E+01  0.418792898E-01  0.259875938E-01
   C  0.104287868E+01  0.398777923E-01 -0.208971689E-01
   H -0.593508532E+01  0.374118462E+00  0.357338648E+00
   H  0.591928823E+01  0.198706013E+00 -0.270005936E-01
     4
 # iter = 26500  time[fs]=26.50000
   C -0.113855507E+01  0.420728991E-01  0.264268206E-01
   C  0.108802256E+01  0.402369559E-01 -0.211082089E-01
   H -0.627341836E+01  0.393477935E+00  0.377499552E+00
   H  0.624072820E+01  0.208280934E+00 -0.283520706E-01
     4
 # iter = 27000  time[fs]=27.00000
   C -0.119110564E+01  0.422598529E-01  0.269093652E-01
   C  0.113546593E+01  0.405880755E-01 -0.213722857E-01
   H -0.661390717E+01  0.412960057E+00  0.397790843E+00
   H  0.656433596E+01  0.217909602E+00 -0.297173085E-01
     4
 # iter = 27500  time[fs]=27.50000
   C -0.124576491E+01  0.424406397E-01  0.274304293E-01
   C  0.118501650E+01  0.409321370E-01 -0.216835996E-01
   H -0.695633343E+01  0.432552276E+00  0.418199256E+00
   H  0.688989938E+01  0.227586874E+00 -0.310950562E-01
     4
 # iter = 28000  time[fs]=28.00000
   C -0.130235713E+01  0.426156865E-01  0.279857851E-01
   C  0.123649813E+01  0.412699767E-01 -0.220370686E-01
   H -0.730050984E+01  0.452243869E+00  0.438713437E+00
   H  0.721723545E+01  0.237308311E+00 -0.324842117E-01
     4
 # iter = 28500  time[fs]=28.50000
   C -0.136072201E+01  0.427853722E-01  0.285717183E-01
   C  0.128975031E+01  0.416023065E-01 -0.224282437E-01
   H -0.764627460E+01  0.472025608E+00  0.459323598E+00
   H  0.754618528E+01  0.247070057E+00 -0.338838021E-01
     4
 # iter = 29000  time[fs]=29.00000
   C -0.142071389E+01  0.429500369E-01  0.291849706E-01
   C  0.134462722E+01  0.419297338E-01 -0.228532305E-01
   H -0.799348701E+01  0.491889491E+00  0.480021242E+00
   H  0.787661005E+01  0.256868739E+00 -0.352929660E-01
     4
 # iter = 29500  time[fs]=29.50000
   C -0.148220072E+01  0.431099891E-01  0.298226854E-01
   C  0.140099671E+01  0.422527793E-01 -0.233086174E-01
   H -0.834202400E+01  0.511828535E+00  0.500798946E+00
   H  0.820838787E+01  0.266701393E+00 -0.367109383E-01
     4
 # iter = 30000  time[fs]=30.00000
   C -0.154506294E+01  0.432655101E-01  0.304823577E-01
   C  0.145873916E+01  0.425718908E-01 -0.237914127E-01
   H -0.869177735E+01  0.531836612E+00  0.521650189E+00
   H  0.854141109E+01  0.276565395E+00 -0.381370374E-01
     4
 # iter = 30500  time[fs]=30.50000
   C -0.160919238E+01  0.434168582E-01  0.311617882E-01
   C  0.151774640E+01  0.428874552E-01 -0.242989880E-01
   H -0.904265141E+01  0.551908311E+00  0.542569211E+00
   H  0.887558427E+01  0.286458416E+00 -0.395706541E-01
     4
 # iter = 31000  time[fs]=31.00000
   C -0.167449120E+01  0.435642708E-01  0.318590437E-01
   C  0.157792058E+01  0.431998081E-01 -0.248290297E-01
   H -0.939456122E+01  0.572038835E+00  0.563550901E+00
   H  0.921082236E+01  0.296378376E+00 -0.410112424E-01
     4
 # iter = 31500  time[fs]=31.50000
   C -0.174087085E+01  0.437079674E-01  0.325724220E-01
   C  0.163917320E+01  0.435092416E-01 -0.253794968E-01
   H -0.974743104E+01  0.592223909E+00  0.584590703E+00
   H  0.954704928E+01  0.306323411E+00 -0.424583112E-01
     4
 # iter = 32000  time[fs]=32.00000
   C -0.180825116E+01  0.438481509E-01  0.333004212E-01
   C  0.170142411E+01  0.438160113E-01 -0.259485843E-01
   H -0.101011930E+02  0.612459706E+00  0.605684537E+00
   H  0.988419674E+01  0.316291845E+00 -0.439114178E-01
     4
 # iter = 32500  time[fs]=32.50000
   C -0.187655947E+01  0.439850096E-01  0.340417130E-01
   C  0.176460070E+01  0.441203417E-01 -0.265346919E-01
   H -0.104557862E+02  0.632742790E+00  0.626828738E+00
   H  0.102222032E+02  0.326282162E+00 -0.453701615E-01
     4
 # iter = 33000  time[fs]=33.00000
   C -0.194572983E+01  0.441187181E-01  0.347951203E-01
   C  0.182863709E+01  0.444224307E-01 -0.271363974E-01
   H -0.108111555E+02  0.653070060E+00  0.648019999E+00
   H  0.105610129E+02  0.336292993E+00 -0.468341791E-01
     4
 # iter = 33500  time[fs]=33.50000
   C -0.201570235E+01  0.442494388E-01  0.355595975E-01
   C  0.189347343E+01  0.447224534E-01 -0.277524330E-01
   H -0.111672513E+02  0.673438712E+00  0.669255330E+00
   H  0.109005755E+02  0.346323088E+00 -0.483031404E-01
     4
 # iter = 34000  time[fs]=34.00000
   C -0.208642252E+01  0.443773229E-01  0.363342133E-01
   C  0.195905527E+01  0.450205657E-01 -0.283816664E-01
   H -0.115240283E+02  0.693846201E+00  0.690532012E+00
   H  0.112408451E+02  0.356371313E+00 -0.497767442E-01
     4
 # iter = 34500  time[fs]=34.50000
   C -0.215784066E+01  0.445025114E-01  0.371181362E-01
   C  0.202533302E+01  0.453169063E-01 -0.290230828E-01
   H -0.118814454E+02  0.714290207E+00  0.711847573E+00
   H  0.115817796E+02  0.366436627E+00 -0.512547154E-01
     4
 # iter = 35000  time[fs]=35.00000
   C -0.222991146E+01  0.446251356E-01  0.379106222E-01
   C  0.209226141E+01  0.456115996E-01 -0.296757711E-01
   H -0.122394650E+02  0.734768614E+00  0.733199753E+00
   H  0.119233409E+02  0.376518079E+00 -0.527368018E-01
     4
 # iter = 35500  time[fs]=35.50000
   C -0.230259348E+01  0.447453184E-01  0.387110040E-01
   C  0.215979906E+01  0.459047572E-01 -0.303389107E-01
   H -0.125980528E+02  0.755279484E+00  0.754586485E+00
   H  0.122654938E+02  0.386614795E+00 -0.542227721E-01
     4
 # iter = 36000  time[fs]=36.00000
   C -0.237584879E+01  0.448631744E-01  0.395186814E-01
   C  0.222790810E+01  0.461964798E-01 -0.310117612E-01
   H -0.129571772E+02  0.775821038E+00  0.776005870E+00
   H  0.126082060E+02  0.396725967E+00 -0.557124134E-01
     4
 # iter = 36500  time[fs]=36.50000
   C -0.244964259E+01  0.449788110E-01  0.403331136E-01
   C  0.229655381E+01  0.464868583E-01 -0.316936524E-01
   H -0.133168092E+02  0.796391640E+00  0.797456162E+00
   H  0.129514478E+02  0.406850854E+00 -0.572055295E-01
     4
 # iter = 37000  time[fs]=37.00000
   C -0.252394294E+01  0.450923288E-01  0.411538118E-01
   C  0.236570430E+01  0.467759753E-01 -0.323839766E-01
   H -0.136769220E+02  0.816989780E+00  0.818935751E+00
   H  0.132951917E+02  0.416988767E+00 -0.587019391E-01
     4
 # iter = 37500  time[fs]=37.50000
   C -0.259872044E+01  0.452038221E-01  0.419803338E-01
   C  0.243533022E+01  0.470639058E-01 -0.330821815E-01
   H -0.140374910E+02  0.837614063E+00  0.840443148E+00
   H  0.136394123E+02  0.427139068E+00 -0.602014744E-01
     4
 # iter = 38000  time[fs]=38.00000
   C -0.267394800E+01  0.453133793E-01  0.428122781E-01
   C  0.250540454E+01  0.473507182E-01 -0.337877638E-01
   H -0.143984933E+02  0.858263198E+00  0.861976977E+00
   H  0.139840861E+02  0.437301167E+00 -0.617039801E-01
     4
 # iter = 38500  time[fs]=38.50000
   C -0.274960063E+01  0.454210835E-01  0.436492799E-01
   C  0.257590232E+01  0.476364751E-01 -0.345002640E-01
   H -0.147599076E+02  0.878935988E+00  0.883535958E+00
   H  0.143291913E+02  0.447474513E+00 -0.632093116E-01
     4
 # iter = 39000  time[fs]=39.00000
   C -0.282565522E+01  0.455270130E-01  0.444910065E-01
   C  0.264680051E+01  0.479212340E-01 -0.352192620E-01
   H -0.151217144E+02  0.899631318E+00  0.905118904E+00
   H  0.146747075E+02  0.457658593E+00 -0.647173346E-01
     4
 # iter = 39500  time[fs]=39.50000
   C -0.290209038E+01  0.456312412E-01  0.453371544E-01
   C  0.271807777E+01  0.482050474E-01 -0.359443723E-01
   H -0.154838953E+02  0.920348151E+00  0.926724709E+00
   H  0.150206159E+02  0.467852929E+00 -0.662279241E-01
     4
 # iter = 40000  time[fs]=40.00000
   C -0.297888629E+01  0.457338374E-01  0.461874460E-01
   C  0.278971432E+01  0.484879641E-01 -0.366752411E-01
   H -0.158464331E+02  0.941085522E+00  0.948352343E+00
   H  0.153668987E+02  0.478057074E+00 -0.677409631E-01
     4
 # iter = 40500  time[fs]=40.50000
   C -0.305602453E+01  0.458348670E-01  0.470416267E-01
   C  0.286169180E+01  0.487700288E-01 -0.374115428E-01
   H -0.162093120E+02  0.961842526E+00  0.970000841E+00
   H  0.157135394E+02  0.488270609E+00 -0.692563427E-01
     4
 # iter = 41000  time[fs]=41.00000
   C -0.313348801E+01  0.459343915E-01  0.478994630E-01
   C  0.293399315E+01  0.490512830E-01 -0.381529772E-01
   H -0.165725170E+02  0.982618319E+00  0.991669303E+00
   H  0.160605227E+02  0.498493141E+00 -0.707739607E-01
     4
 # iter = 41500  time[fs]=41.50000
   C -0.321126079E+01  0.460324692E-01  0.487607400E-01
   C  0.300660248E+01  0.493317652E-01 -0.388992671E-01
   H -0.169360342E+02  0.100341211E+01  0.101335689E+01
   H  0.164078340E+02  0.508724302E+00 -0.722937213E-01
     4
 # iter = 42000  time[fs]=42.00000
   C -0.328932803E+01  0.461291550E-01  0.496252598E-01
   C  0.307950499E+01  0.496115111E-01 -0.396501560E-01
   H -0.172998505E+02  0.102422315E+01  0.103506280E+01
   H  0.167554597E+02  0.518963747E+00 -0.738155350E-01
     4
 # iter = 42500  time[fs]=42.50000
   C -0.336767586E+01  0.462245011E-01  0.504928397E-01
   C  0.315268685E+01  0.498905538E-01 -0.404054064E-01
   H -0.176639536E+02  0.104505076E+01  0.105678629E+01
   H  0.171033871E+02  0.529211148E+00 -0.753393172E-01
     4
 # iter = 43000  time[fs]=43.00000
   C -0.344629134E+01  0.463185568E-01  0.513633108E-01
   C  0.322613515E+01  0.501689245E-01 -0.411647979E-01
   H -0.180283320E+02  0.106589426E+01  0.107852667E+01
   H  0.174516042E+02  0.539466200E+00 -0.768649888E-01
     4
 # iter = 43500  time[fs]=43.50000
   C -0.352516234E+01  0.464113686E-01  0.522365171E-01
   C  0.329983782E+01  0.504466520E-01 -0.419281254E-01
   H -0.183929747E+02  0.108675304E+01  0.110028328E+01
   H  0.178000997E+02  0.549728612E+00 -0.783924749E-01
     4
 # iter = 44000  time[fs]=44.00000
   C -0.360427753E+01  0.465029810E-01  0.531123135E-01
   C  0.337378353E+01  0.507237634E-01 -0.426951983E-01
   H -0.187578716E+02  0.110762653E+01  0.112205550E+01
   H  0.181488629E+02  0.559998112E+00 -0.799217053E-01
     4
 # iter = 44500  time[fs]=44.50000
   C -0.368362625E+01  0.465934360E-01  0.539905656E-01
   C  0.344796169E+01  0.510002840E-01 -0.434658388E-01
   H -0.191230129E+02  0.112851416E+01  0.114384274E+01
   H  0.184978837E+02  0.570274440E+00 -0.814526134E-01
     4
 # iter = 45000  time[fs]=45.00000
   C -0.376319850E+01  0.466827734E-01  0.548711485E-01
   C  0.352236231E+01  0.512762375E-01 -0.442398810E-01
   H -0.194883897E+02  0.114941543E+01  0.116564444E+01
   H  0.188471527E+02  0.580557353E+00 -0.829851366E-01
     4
 # iter = 45500  time[fs]=45.50000
   C -0.384298490E+01  0.467710314E-01  0.557539456E-01
   C  0.359697605E+01  0.515516464E-01 -0.450171698E-01
   H -0.198539931E+02  0.117032983E+01  0.118746008E+01
   H  0.191966608E+02  0.590846617E+00 -0.845192153E-01
     4
 # iter = 46000  time[fs]=46.00000
   C -0.392297661E+01  0.468582459E-01  0.566388485E-01
   C  0.367179408E+01  0.518265315E-01 -0.457975601E-01
   H -0.202198151E+02  0.119125691E+01  0.120928918E+01
   H  0.195463995E+02  0.601142014E+00 -0.860547935E-01
     4
 # iter = 46500  time[fs]=46.50000
   C -0.400316530E+01  0.469444513E-01  0.575257560E-01
   C  0.374680813E+01  0.521009127E-01 -0.465809159E-01
   H -0.205858479E+02  0.121219622E+01  0.123113125E+01
   H  0.198963607E+02  0.611443335E+00 -0.875918179E-01
     4
 # iter = 47000  time[fs]=47.00000
   C -0.408354312E+01  0.470296805E-01  0.584145735E-01
   C  0.382201035E+01  0.523748086E-01 -0.473671096E-01
   H -0.209520842E+02  0.123314734E+01  0.125298585E+01
   H  0.202465368E+02  0.621750382E+00 -0.891302381E-01
     4
 # iter = 47500  time[fs]=47.50000
   C -0.416410266E+01  0.471139645E-01  0.593052123E-01
   C  0.389739338E+01  0.526482368E-01 -0.481560215E-01
   H -0.213185170E+02  0.125410988E+01  0.127485256E+01
   H  0.205969205E+02  0.632062967E+00 -0.906700060E-01
     4
 # iter = 48000  time[fs]=48.00000
   C -0.424483693E+01  0.471973332E-01  0.601975896E-01
   C  0.397295024E+01  0.529212140E-01 -0.489475389E-01
   H -0.216851397E+02  0.127508346E+01  0.129673098E+01
   H  0.209475048E+02  0.642380909E+00 -0.922110762E-01
     4
 # iter = 48500  time[fs]=48.50000
   C -0.432573931E+01  0.472798150E-01  0.610916277E-01
   C  0.404867434E+01  0.531937559E-01 -0.497415558E-01
   H -0.220519461E+02  0.129606771E+01  0.131862073E+01
   H  0.212982833E+02  0.652704040E+00 -0.937534053E-01
     4
 # iter = 49000  time[fs]=49.00000
   C -0.440680354E+01  0.473614370E-01  0.619872534E-01
   C  0.412455944E+01  0.534658775E-01 -0.505379724E-01
   H -0.224189301E+02  0.131706230E+01  0.134052143E+01
   H  0.216492496E+02  0.663032195E+00 -0.952969523E-01
     4
 # iter = 49500  time[fs]=49.50000
   C -0.448802369E+01  0.474422252E-01  0.628843983E-01
   C  0.420059963E+01  0.537375928E-01 -0.513366943E-01
   H -0.227860861E+02  0.133806690E+01  0.136243275E+01
   H  0.220003977E+02  0.673365220E+00 -0.968416779E-01
     4
 # iter = 50000  time[fs]=50.00000
   C -0.456939414E+01  0.475222044E-01  0.637829978E-01
   C  0.427678932E+01  0.540089154E-01 -0.521376326E-01
   H -0.231534087E+02  0.135908121E+01  0.138435435E+01
   H  0.223517220E+02  0.683702967E+00 -0.983875446E-01
     4
 # iter = 50500  time[fs]=50.50000
   C -0.465090956E+01  0.476013983E-01  0.646829912E-01
   C  0.435312319E+01  0.542798580E-01 -0.529407032E-01
   H -0.235208925E+02  0.138010491E+01  0.140628591E+01
   H  0.227032171E+02  0.694045294E+00 -0.999345169E-01
     4
 # iter = 51000  time[fs]=51.00000
   C -0.473256488E+01  0.476798297E-01  0.655843212E-01
   C  0.442959621E+01  0.545504326E-01 -0.537458267E-01
   H -0.238885329E+02  0.140113774E+01  0.142822715E+01
   H  0.230548778E+02  0.704392066E+00 -0.101482561E+00
     4
 # iter = 51500  time[fs]=51.50000
   C -0.481435528E+01  0.477575202E-01  0.664869337E-01
   C  0.450620356E+01  0.548206510E-01 -0.545529276E-01
   H -0.242563249E+02  0.142217941E+01  0.145017776E+01
   H  0.234066991E+02  0.714743155E+00 -0.103031644E+00
     4
 # iter = 52000  time[fs]=52.00000
   C -0.489627620E+01  0.478344909E-01  0.673907777E-01
   C  0.458294071E+01  0.550905240E-01 -0.553619347E-01
   H -0.246242641E+02  0.144322968E+01  0.147213747E+01
   H  0.237586762E+02  0.725098435E+00 -0.104581735E+00
     4
 # iter = 52500  time[fs]=52.50000
   C -0.497832329E+01  0.479107616E-01  0.682958051E-01
   C  0.465980331E+01  0.553600622E-01 -0.561727803E-01
   H -0.249923462E+02  0.146428828E+01  0.149410603E+01
   H  0.241108048E+02  0.735457789E+00 -0.106132804E+00
     4
 # iter = 53000  time[fs]=53.00000
   C -0.506049238E+01  0.479863517E-01  0.692019702E-01
   C  0.473678724E+01  0.556292755E-01 -0.569854002E-01
   H -0.253605671E+02  0.148535500E+01  0.151608317E+01
   H  0.244630804E+02  0.745821103E+00 -0.107684823E+00
     4
 # iter = 53500  time[fs]=53.50000
   C -0.514277953E+01  0.480612795E-01  0.701092299E-01
   C  0.481388856E+01  0.558981736E-01 -0.577997332E-01
   H -0.257289228E+02  0.150642959E+01  0.153806866E+01
   H  0.248154988E+02  0.756188268E+00 -0.109237765E+00
     4
 # iter = 54000  time[fs]=54.00000
   C -0.522518098E+01  0.481355627E-01  0.710175431E-01
   C  0.489110351E+01  0.561667656E-01 -0.586157214E-01
   H -0.260974095E+02  0.152751185E+01  0.156006227E+01
   H  0.251680562E+02  0.766559181E+00 -0.110791603E+00
     4
 # iter = 54500  time[fs]=54.50000
   C -0.530769312E+01  0.482092184E-01  0.719268713E-01
   C  0.496842852E+01  0.564350602E-01 -0.594333097E-01
   H -0.264660237E+02  0.154860156E+01  0.158206376E+01
   H  0.255207486E+02  0.776933739E+00 -0.112346313E+00
     4
 # iter = 55000  time[fs]=55.00000
   C -0.539031253E+01  0.482822629E-01  0.728371774E-01
   C  0.504586016E+01  0.567030657E-01 -0.602524454E-01
   H -0.268347618E+02  0.156969852E+01  0.160407294E+01
   H  0.258735725E+02  0.787311848E+00 -0.113901871E+00
     4
 # iter = 55500  time[fs]=55.50000
   C -0.547303591E+01  0.483547119E-01  0.737484267E-01
   C  0.512339517E+01  0.569707902E-01 -0.610730784E-01
   H -0.272036204E+02  0.159080254E+01  0.162608960E+01
   H  0.262265242E+02  0.797693414E+00 -0.115458253E+00
     4
 # iter = 56000  time[fs]=56.00000
   C -0.555586014E+01  0.484265807E-01  0.746605858E-01
   C  0.520103044E+01  0.572382414E-01 -0.618951611E-01
   H -0.275725964E+02  0.161191343E+01  0.164811353E+01
   H  0.265796005E+02  0.808078349E+00 -0.117015438E+00
     4
 # iter = 56500  time[fs]=56.50000
   C -0.563878221E+01  0.484978838E-01  0.755736231E-01
   C  0.527876296E+01  0.575054266E-01 -0.627186478E-01
   H -0.279416868E+02  0.163303103E+01  0.167014456E+01
   H  0.269327981E+02  0.818466567E+00 -0.118573405E+00
     4
 # iter = 57000  time[fs]=57.00000
   C -0.572179924E+01  0.485686352E-01  0.764875086E-01
   C  0.535658988E+01  0.577723528E-01 -0.635434950E-01
   H -0.283108884E+02  0.165415515E+01  0.169218249E+01
   H  0.272861139E+02  0.828857986E+00 -0.120132132E+00
     4
 # iter = 57500  time[fs]=57.50000
   C -0.580490850E+01  0.486388485E-01  0.774022137E-01
   C  0.543450846E+01  0.580390269E-01 -0.643696613E-01
   H -0.286801986E+02  0.167528563E+01  0.171422717E+01
   H  0.276395448E+02  0.839252526E+00 -0.121691601E+00
     4
 # iter = 58000  time[fs]=58.00000
   C -0.588810733E+01  0.487085367E-01  0.783177110E-01
   C  0.551251607E+01  0.583054553E-01 -0.651971068E-01
   H -0.290496145E+02  0.169642231E+01  0.173627840E+01
   H  0.279930879E+02  0.849650111E+00 -0.123251792E+00
     4
 # iter = 58500  time[fs]=58.50000
   C -0.597139321E+01  0.487777125E-01  0.792339746E-01
   C  0.559061021E+01  0.585716444E-01 -0.660257935E-01
   H -0.294191335E+02  0.171756505E+01  0.175833604E+01
   H  0.283467406E+02  0.860050668E+00 -0.124812687E+00
     4
 # iter = 59000  time[fs]=59.00000
   C -0.605476372E+01  0.488463878E-01  0.801509795E-01
   C  0.566878845E+01  0.588376001E-01 -0.668556852E-01
   H -0.297887530E+02  0.173871369E+01  0.178039993E+01
   H  0.287005001E+02  0.870454124E+00 -0.126374270E+00
     4
 # iter = 59500  time[fs]=59.50000
   C -0.613821653E+01  0.489145746E-01  0.810687022E-01
   C  0.574704848E+01  0.591033282E-01 -0.676867469E-01
   H -0.301584707E+02  0.175986809E+01  0.180246992E+01
   H  0.290543637E+02  0.880860413E+00 -0.127936522E+00
     4
 # iter = 60000  time[fs]=60.00000
   C -0.622174940E+01  0.489822841E-01  0.819871199E-01
   C  0.582538807E+01  0.593688342E-01 -0.685189453E-01
   H -0.305282842E+02  0.178102812E+01  0.182454586E+01
   H  0.294083291E+02  0.891269467E+00 -0.129499428E+00
     4
 # iter = 60500  time[fs]=60.50000
   C -0.630536019E+01  0.490495272E-01  0.829062110E-01
   C  0.590380510E+01  0.596341237E-01 -0.693522483E-01
   H -0.308981911E+02  0.180219364E+01  0.184662762E+01
   H  0.297623939E+02  0.901681223E+00 -0.131062972E+00
     4
 # iter = 61000  time[fs]=61.00000
   C -0.638904682E+01  0.491163146E-01  0.838259548E-01
   C  0.598229749E+01  0.598992017E-01 -0.701866253E-01
   H -0.312681892E+02  0.182336453E+01  0.186871505E+01
   H  0.301165556E+02  0.912095619E+00 -0.132627139E+00
     4
 # iter = 61500  time[fs]=61.50000
   C -0.647280732E+01  0.491826563E-01  0.847463315E-01
   C  0.606086328E+01  0.601640732E-01 -0.710220468E-01
   H -0.316382766E+02  0.184454067E+01  0.189080803E+01
   H  0.304708121E+02  0.922512596E+00 -0.134191914E+00
     4
 # iter = 62000  time[fs]=62.00000
   C -0.655663977E+01  0.492485624E-01  0.856673220E-01
   C  0.613950057E+01  0.604287430E-01 -0.718584845E-01
   H -0.320084510E+02  0.186572192E+01  0.191290643E+01
   H  0.308251612E+02  0.932932097E+00 -0.135757284E+00
     4
 # iter = 62500  time[fs]=62.50000
   C -0.664054234E+01  0.493140423E-01  0.865889083E-01
   C  0.621820752E+01  0.606932158E-01 -0.726959112E-01
   H -0.323787106E+02  0.188690819E+01  0.193501013E+01
   H  0.311796008E+02  0.943354064E+00 -0.137323234E+00
     4
 # iter = 63000  time[fs]=63.00000
   C -0.672451324E+01  0.493791053E-01  0.875110729E-01
   C  0.629698238E+01  0.609574960E-01 -0.735343007E-01
   H -0.327490534E+02  0.190809936E+01  0.195711902E+01
   H  0.315341289E+02  0.953778446E+00 -0.138889752E+00
     4
 # iter = 63500  time[fs]=63.50000
   C -0.680855079E+01  0.494437604E-01  0.884337991E-01
   C  0.637582345E+01  0.612215881E-01 -0.743736280E-01
   H -0.331194775E+02  0.192929532E+01  0.197923297E+01
   H  0.318887435E+02  0.964205188E+00 -0.140456825E+00
     4
 # iter = 64000  time[fs]=64.00000
   C -0.689265333E+01  0.495080162E-01  0.893570709E-01
   C  0.645472908E+01  0.614854961E-01 -0.752138689E-01
   H -0.334899812E+02  0.195049597E+01  0.200135188E+01
   H  0.322434427E+02  0.974634242E+00 -0.142024440E+00
     4
 # iter = 64500  time[fs]=64.50000
   C -0.697681928E+01  0.495718812E-01  0.902808729E-01
   C  0.653369771E+01  0.617492241E-01 -0.760550000E-01
   H -0.338605628E+02  0.197170121E+01  0.202347565E+01
   H  0.325982248E+02  0.985065558E+00 -0.143592586E+00
     4
 # iter = 65000  time[fs]=65.00000
   C -0.706104710E+01  0.496353634E-01  0.912051903E-01
   C  0.661272781E+01  0.620127761E-01 -0.768969990E-01
   H -0.342312205E+02  0.199291094E+01  0.204560416E+01
   H  0.329530878E+02  0.995499089E+00 -0.145161250E+00
     4
 # iter = 65500  time[fs]=65.50000
   C -0.714533532E+01  0.496984708E-01  0.921300088E-01
   C  0.669181792E+01  0.622761557E-01 -0.777398442E-01
   H -0.346019528E+02  0.201412507E+01  0.206773732E+01
   H  0.333080302E+02  0.100593479E+01 -0.146730423E+00
     4
 # iter = 66000  time[fs]=66.00000
   C -0.722968252E+01  0.497612110E-01  0.930553150E-01
   C  0.677096661E+01  0.625393667E-01 -0.785835150E-01
   H -0.349727581E+02  0.203534350E+01  0.208987503E+01
   H  0.336630503E+02  0.101637261E+01 -0.148300093E+00
     4
 # iter = 66500  time[fs]=66.50000
   C -0.731408732E+01  0.498235915E-01  0.939810956E-01
   C  0.685017251E+01  0.628024126E-01 -0.794279911E-01
   H -0.353436348E+02  0.205656614E+01  0.211201720E+01
   H  0.340181464E+02  0.102681252E+01 -0.149870250E+00
     4
 # iter = 67000  time[fs]=67.00000
   C -0.739854839E+01  0.498856194E-01  0.949073380E-01
   C  0.692943431E+01  0.630652968E-01 -0.802732532E-01
   H -0.357145815E+02  0.207779292E+01  0.213416374E+01
   H  0.343733170E+02  0.103725447E+01 -0.151440883E+00
     4
 # iter = 67500  time[fs]=67.50000
   C -0.748306445E+01  0.499473017E-01  0.958340301E-01
   C  0.700875073E+01  0.633280227E-01 -0.811192826E-01
   H -0.360855968E+02  0.209902375E+01  0.215631455E+01
   H  0.347285606E+02  0.104769841E+01 -0.153011983E+00
     4
 # iter = 68000  time[fs]=68.00000
   C -0.756763425E+01  0.500086453E-01  0.967611601E-01
   C  0.708812053E+01  0.635905935E-01 -0.819660613E-01
   H -0.364566792E+02  0.212025854E+01  0.217846956E+01
   H  0.350838757E+02  0.105814432E+01 -0.154583540E+00
     4
 # iter = 68500  time[fs]=68.50000
   C -0.765225659E+01  0.500696566E-01  0.976887168E-01
   C  0.716754252E+01  0.638530123E-01 -0.828135719E-01
   H -0.368278274E+02  0.214149722E+01  0.220062868E+01
   H  0.354392608E+02  0.106859214E+01 -0.156155545E+00
     4
 # iter = 69000  time[fs]=69.00000
   C -0.773693030E+01  0.501303422E-01  0.986166894E-01
   C  0.724701554E+01  0.641152821E-01 -0.836617976E-01
   H -0.371990402E+02  0.216273972E+01  0.222279183E+01
   H  0.357947147E+02  0.107904186E+01 -0.157727990E+00
     4
 # iter = 69500  time[fs]=69.50000
   C -0.782165428E+01  0.501907081E-01  0.995450673E-01
   C  0.732653846E+01  0.643774059E-01 -0.845107220E-01
   H -0.375703162E+02  0.218398595E+01  0.224495893E+01
   H  0.361502359E+02  0.108949341E+01 -0.159300865E+00
     4
 # iter = 70000  time[fs]=70.00000
   C -0.790642741E+01  0.502507605E-01  0.100473840E+00
   C  0.740611022E+01  0.646393865E-01 -0.853603294E-01
   H -0.379416542E+02  0.220523585E+01  0.226712990E+01
   H  0.365058232E+02  0.109994679E+01 -0.160874161E+00
     4
 # iter = 70500  time[fs]=70.50000
   C -0.799124866E+01  0.503105053E-01  0.101402999E+00
   C  0.748572976E+01  0.649012267E-01 -0.862106047E-01
   H -0.383130531E+02  0.222648935E+01  0.228930468E+01
   H  0.368614752E+02  0.111040194E+01 -0.162447872E+00
     4
 # iter = 71000  time[fs]=71.00000
   C -0.807611699E+01  0.503699481E-01  0.102332534E+00
   C  0.756539606E+01  0.651629292E-01 -0.870615331E-01
   H -0.386845116E+02  0.224774637E+01  0.231148319E+01
   H  0.372171908E+02  0.112085884E+01 -0.164021988E+00
     4
 # iter = 71500  time[fs]=71.50000
   C -0.816103142E+01  0.504290944E-01  0.103262436E+00
   C  0.764510813E+01  0.654244966E-01 -0.879131003E-01
   H -0.390560287E+02  0.226900687E+01  0.233366535E+01
   H  0.375729688E+02  0.113131745E+01 -0.165596502E+00
     4
 # iter = 72000  time[fs]=72.00000
   C -0.824599099E+01  0.504879498E-01  0.104192696E+00
   C  0.772486504E+01  0.656859314E-01 -0.887652926E-01
   H -0.394276032E+02  0.229027076E+01  0.235585111E+01
   H  0.379288080E+02  0.114177775E+01 -0.167171407E+00
     4
 # iter = 72500  time[fs]=72.50000
   C -0.833099477E+01  0.505465194E-01  0.105123306E+00
   C  0.780466584E+01  0.659472361E-01 -0.896180966E-01
   H -0.397992340E+02  0.231153799E+01  0.237804040E+01
   H  0.382847072E+02  0.115223970E+01 -0.168746695E+00
     4
 # iter = 73000  time[fs]=73.00000
   C -0.841604185E+01  0.506048084E-01  0.106054257E+00
   C  0.788450964E+01  0.662084131E-01 -0.904714994E-01
   H -0.401709202E+02  0.233280849E+01  0.240023315E+01
   H  0.386406654E+02  0.116270327E+01 -0.170322360E+00
     4
 # iter = 73500  time[fs]=73.50000
   C -0.850113135E+01  0.506628218E-01  0.106985542E+00
   C  0.796439557E+01  0.664694647E-01 -0.913254884E-01
   H -0.405426608E+02  0.235408222E+01  0.242242929E+01
   H  0.389966815E+02  0.117316844E+01 -0.171898393E+00
     4
 # iter = 74000  time[fs]=74.00000
   C -0.858626244E+01  0.507205643E-01  0.107917154E+00
   C  0.804432279E+01  0.667303932E-01 -0.921800515E-01
   H -0.409144547E+02  0.237535910E+01  0.244462878E+01
   H  0.393527545E+02  0.118363517E+01 -0.173474789E+00
     4
 # iter = 74500  time[fs]=74.50000
   C -0.867143428E+01  0.507780408E-01  0.108849083E+00
   C  0.812429048E+01  0.669912008E-01 -0.930351768E-01
   H -0.412863009E+02  0.239663909E+01  0.246683154E+01
   H  0.397088833E+02  0.119410344E+01 -0.175051541E+00
     4
 # iter = 75000  time[fs]=75.00000
   C -0.875664607E+01  0.508352558E-01  0.109781325E+00
   C  0.820429783E+01  0.672518896E-01 -0.938908530E-01
   H -0.416581987E+02  0.241792213E+01  0.248903753E+01
   H  0.400650669E+02  0.120457322E+01 -0.176628643E+00
     4
 # iter = 75500  time[fs]=75.50000
   C -0.884189703E+01  0.508922139E-01  0.110713870E+00
   C  0.828434408E+01  0.675124618E-01 -0.947470690E-01
   H -0.420301470E+02  0.243920817E+01  0.251124669E+01
   H  0.404213045E+02  0.121504449E+01 -0.178206088E+00
     4
 # iter = 76000  time[fs]=76.00000
   C -0.892718641E+01  0.509489193E-01  0.111646714E+00
   C  0.836442847E+01  0.677729193E-01 -0.956038139E-01
   H -0.424021450E+02  0.246049716E+01  0.253345895E+01
   H  0.407775950E+02  0.122551722E+01 -0.179783870E+00
     4
 # iter = 76500  time[fs]=76.50000
   C -0.901251347E+01  0.510053764E-01  0.112579849E+00
   C  0.844455027E+01  0.680332641E-01 -0.964610773E-01
   H -0.427741918E+02  0.248178904E+01  0.255567428E+01
   H  0.411339376E+02  0.123599138E+01 -0.181361984E+00
     4
 # iter = 77000  time[fs]=77.00000
   C -0.909787750E+01  0.510615892E-01  0.113513269E+00
   C  0.852470878E+01  0.682934983E-01 -0.973188491E-01
   H -0.431462866E+02  0.250308377E+01  0.257789261E+01
   H  0.414903314E+02  0.124646696E+01 -0.182940423E+00
     4
 # iter = 77500  time[fs]=77.50000
   C -0.918327780E+01  0.511175620E-01  0.114446967E+00
   C  0.860490330E+01  0.685536235E-01 -0.981771194E-01
   H -0.435184285E+02  0.252438130E+01  0.260011389E+01
   H  0.418467754E+02  0.125694392E+01 -0.184519183E+00
     4
 # iter = 78000  time[fs]=78.00000
   C -0.926871371E+01  0.511732986E-01  0.115380939E+00
   C  0.868513316E+01  0.688136418E-01 -0.990358786E-01
   H -0.438906168E+02  0.254568158E+01  0.262233809E+01
   H  0.422032689E+02  0.126742226E+01 -0.186098257E+00
     4
 # iter = 78500  time[fs]=78.50000
   C -0.935418455E+01  0.512288028E-01  0.116315177E+00
   C  0.876539771E+01  0.690735548E-01 -0.998951174E-01
   H -0.442628508E+02  0.256698457E+01  0.264456514E+01
   H  0.425598110E+02  0.127790193E+01 -0.187677641E+00
     4
 # iter = 79000  time[fs]=79.00000
   C -0.943968969E+01  0.512840784E-01  0.117249678E+00
   C  0.884569631E+01  0.693333643E-01 -0.100754827E+00
   H -0.446351295E+02  0.258829022E+01  0.266679500E+01
   H  0.429164010E+02  0.128838293E+01 -0.189257329E+00
     4
 # iter = 79500  time[fs]=79.50000
   C -0.952522852E+01  0.513391292E-01  0.118184434E+00
   C  0.892602834E+01  0.695930720E-01 -0.101614998E+00
   H -0.450074524E+02  0.260959849E+01  0.268902763E+01
   H  0.432730380E+02  0.129886522E+01 -0.190837316E+00
     4
 # iter = 80000  time[fs]=80.00000
   C -0.961080041E+01  0.513939587E-01  0.119119442E+00
   C  0.900639321E+01  0.698526796E-01 -0.102475622E+00
   H -0.453798187E+02  0.263090934E+01  0.271126298E+01
   H  0.436297213E+02  0.130934880E+01 -0.192417598E+00
