     4
 # iter = 25000  time[fs]=25.00000
   C -0.100997583E+01  0.614872698E-02 -0.285720798E-02
   C  0.958955807E+00 -0.426409120E-01 -0.929315031E-02
   H -0.539630477E+01  0.593014509E+00  0.825630600E-01
   H  0.529425261E+01 -0.420191419E+00 -0.379529052E+00
     4
 # iter = 25500  time[fs]=25.50000
   C -0.105670215E+01  0.465103489E-02 -0.242114757E-02
   C  0.998782442E+00 -0.421829551E-01 -0.755412679E-02
   H -0.572589129E+01  0.628871116E+00  0.888549535E-01
   H  0.560923298E+01 -0.444621212E+00 -0.401935505E+00
     4
 # iter = 26000  time[fs]=26.00000
   C -0.110800588E+01  0.324636888E-02 -0.197208346E-02
   C  0.104318107E+01 -0.418256252E-01 -0.581626556E-02
   H -0.605805347E+01  0.665036034E+00  0.951995793E-01
   H  0.592685406E+01 -0.469268105E+00 -0.424536787E+00
     4
 # iter = 26500  time[fs]=26.50000
   C -0.116349221E+01  0.191921558E-02 -0.151415820E-02
   C  0.109175722E+01 -0.415525336E-01 -0.407666260E-02
   H -0.639251353E+01  0.701475687E+00  0.101591299E+00
   H  0.624683407E+01 -0.494109026E+00 -0.447312399E+00
     4
 # iter = 27000  time[fs]=27.00000
   C -0.122278617E+01  0.656289316E-03 -0.105068627E-02
   C  0.114413622E+01 -0.413496652E-01 -0.233305239E-02
   H -0.672903601E+01  0.738161783E+00  0.108025342E+00
   H  0.656893370E+01 -0.519124436E+00 -0.470244980E+00
     4
 # iter = 27500  time[fs]=27.50000
   C -0.128553810E+01 -0.553631109E-03 -0.584268247E-03
   C  0.119996874E+01 -0.412051841E-01 -0.583731171E-03
   H -0.706741961E+01  0.775070249E+00  0.114497635E+00
   H  0.689294801E+01 -0.544297640E+00 -0.493319696E+00
     4
 # iter = 28000  time[fs]=28.00000
   C -0.135142647E+01 -0.171992923E-02 -0.116908542E-03
   C  0.125893351E+01 -0.411091836E-01  0.117253225E-02
   H -0.740749094E+01  0.812180429E+00  0.121004672E+00
   H  0.721870020E+01 -0.569614255E+00 -0.516523763E+00
     4
 # iter = 28500  time[fs]=28.50000
   C -0.142015852E+01 -0.285039784E-02  0.349874388E-03
   C  0.132073804E+01 -0.410534220E-01  0.293658458E-02
   H -0.774909962E+01  0.849474456E+00  0.127543414E+00
   H  0.754603670E+01 -0.595061807E+00 -0.539846081E+00
     4
 # iter = 29000  time[fs]=29.00000
   C -0.149146966E+01 -0.395147944E-02  0.814950922E-03
   C  0.138511801E+01 -0.410310684E-01  0.470896791E-02
   H -0.809211437E+01  0.886936775E+00  0.134111209E+00
   H  0.787482330E+01 -0.620629398E+00 -0.563276946E+00
     4
 # iter = 29500  time[fs]=29.50000
   C -0.156512195E+01 -0.502848588E-02  0.127749804E-02
   C  0.145183568E+01 -0.410364725E-01  0.648998819E-02
   H -0.843641993E+01  0.924553750E+00  0.140705728E+00
   H  0.820494203E+01 -0.646307455E+00 -0.586807827E+00
     4
 # iter = 30000  time[fs]=30.00000
   C -0.164090214E+01 -0.608579115E-02  0.173693163E-02
   C  0.152067801E+01 -0.410649637E-01  0.827977195E-02
   H -0.878191458E+01  0.962313365E+00  0.147324916E+00
   H  0.853628866E+01 -0.672087520E+00 -0.610431175E+00
     4
 # iter = 30500  time[fs]=30.50000
   C -0.171861946E+01 -0.712699605E-02  0.219285190E-02
   C  0.159145443E+01 -0.411126795E-01  0.100783119E-01
   H -0.912850811E+01  0.100020497E+01  0.153966949E+00
   H  0.886877067E+01 -0.697962084E+00 -0.634140284E+00
     4
 # iter = 31000  time[fs]=31.00000
   C -0.179810343E+01 -0.815506644E-02  0.264500005E-02
   C  0.166399464E+01 -0.411764220E-01  0.118855032E-01
   H -0.947612014E+01  0.103821908E+01  0.160630201E+00
   H  0.920230554E+01 -0.723924445E+00 -0.657929161E+00
     4
 # iter = 31500  time[fs]=31.50000
   C -0.187920175E+01 -0.917244779E-02  0.309322414E-02
   C  0.173814649E+01 -0.412535391E-01  0.137011712E-01
   H -0.982467874E+01  0.107634721E+01  0.167313215E+00
   H  0.953681940E+01 -0.749968603E+00 -0.681792432E+00
     4
 # iter = 32000  time[fs]=32.00000
   C -0.196177825E+01 -0.101811594E-01  0.353745257E-02
   C  0.181377398E+01 -0.413418266E-01  0.155250932E-01
   H -0.101741193E+02  0.111458174E+01  0.174014682E+00
   H  0.987224584E+01 -0.776089155E+00 -0.705725257E+00
     4
 # iter = 32500  time[fs]=32.50000
   C -0.204571109E+01 -0.111828714E-01  0.397767351E-02
   C  0.189075540E+01 -0.414394480E-01  0.173570150E-01
   H -0.105243836E+02  0.115291580E+01  0.180733420E+00
   H  0.102085249E+02 -0.802281227E+00 -0.729723260E+00
     4
 # iter = 33000  time[fs]=33.00000
   C -0.213089115E+01 -0.121789676E-01  0.441391908E-02
   C  0.196898175E+01 -0.415448696E-01  0.191966628E-01
   H -0.108754190E+02  0.119134318E+01  0.187468359E+00
   H  0.105456024E+02 -0.828540400E+00 -0.753782473E+00
     4
 # iter = 33500  time[fs]=33.50000
   C -0.221722048E+01 -0.131705966E-01  0.484625315E-02
   C  0.204835521E+01 -0.416568070E-01  0.210437529E-01
   H -0.112271776E+02  0.122985823E+01  0.194218527E+00
   H  0.108834291E+02 -0.854862657E+00 -0.777899283E+00
     4
 # iter = 34000  time[fs]=34.00000
   C -0.230461106E+01 -0.141587134E-01  0.527476213E-02
   C  0.212878788E+01 -0.417741819E-01  0.228979979E-01
   H -0.115796159E+02  0.126845580E+01  0.200983037E+00
   H  0.112219602E+02 -0.881244336E+00 -0.802070394E+00
     4
 # iter = 34500  time[fs]=34.50000
   C -0.239298364E+01 -0.151441134E-01  0.569954782E-02
   C  0.221020059E+01 -0.418960866E-01  0.247591121E-01
   H -0.119326943E+02  0.130713120E+01  0.207761079E+00
   H  0.115611546E+02 -0.907682087E+00 -0.826292787E+00
     4
 # iter = 35000  time[fs]=35.00000
   C -0.248226670E+01 -0.161274601E-01  0.612072216E-02
   C  0.229252194E+01 -0.420217548E-01  0.266268147E-01
   H -0.122863763E+02  0.134588012E+01  0.214551910E+00
   H  0.119009749E+02 -0.934172841E+00 -0.850563693E+00
     4
 # iter = 35500  time[fs]=35.50000
   C -0.257239559E+01 -0.171093072E-01  0.653840309E-02
   C  0.237568735E+01 -0.421505386E-01  0.285008320E-01
   H -0.126406286E+02  0.138469862E+01  0.221354848E+00
   H  0.122413867E+02 -0.960713774E+00 -0.874880562E+00
     4
 # iter = 36000  time[fs]=36.00000
   C -0.266331175E+01 -0.180901180E-01  0.695271161E-02
   C  0.245963835E+01 -0.422818885E-01  0.303808997E-01
   H -0.129954206E+02  0.142358305E+01  0.228169264E+00
   H  0.125823582E+02 -0.987302286E+00 -0.899241045E+00
     4
 # iter = 36500  time[fs]=36.50000
   C -0.275496201E+01 -0.190702796E-01  0.736376948E-02
   C  0.254432186E+01 -0.424153376E-01  0.322667633E-01
   H -0.133507239E+02  0.146253006E+01  0.234994578E+00
   H  0.129238603E+02 -0.101393597E+01 -0.923642969E+00
     4
 # iter = 37000  time[fs]=37.00000
   C -0.284729804E+01 -0.200501161E-01  0.777169762E-02
   C  0.262968960E+01 -0.425504882E-01  0.341581789E-01
   H -0.137065124E+02  0.150153654E+01  0.241830252E+00
   H  0.132658660E+02 -0.104061262E+01 -0.948084321E+00
     4
 # iter = 37500  time[fs]=37.50000
   C -0.294027577E+01 -0.210298986E-01  0.817661486E-02
   C  0.271569757E+01 -0.426870015E-01  0.360549135E-01
   H -0.140627620E+02  0.154059961E+01  0.248675790E+00
   H  0.136083503E+02 -0.106733015E+01 -0.972563232E+00
     4
 # iter = 38000  time[fs]=38.00000
   C -0.303385496E+01 -0.220098536E-01  0.857863714E-02
   C  0.280230561E+01 -0.428245876E-01  0.379567449E-01
   H -0.144194502E+02  0.157971661E+01  0.255530727E+00
   H  0.139512900E+02 -0.109408666E+01 -0.997077967E+00
     4
 # iter = 38500  time[fs]=38.50000
   C -0.312799880E+01 -0.229901704E-01  0.897787691E-02
   C  0.288947696E+01 -0.429629989E-01  0.398634618E-01
   H -0.147765562E+02  0.161888505E+01  0.262394636E+00
   H  0.142946636E+02 -0.112088037E+01 -0.102162691E+01
     4
 # iter = 39000  time[fs]=39.00000
   C -0.322267354E+01 -0.239710068E-01  0.937444274E-02
   C  0.297717793E+01 -0.431020230E-01  0.417748631E-01
   H -0.151340607E+02  0.165810261E+01  0.269267112E+00
   H  0.146384509E+02 -0.114770961E+01 -0.104620854E+01
     4
 # iter = 39500  time[fs]=39.50000
   C -0.331784819E+01 -0.249524940E-01  0.976843911E-02
   C  0.306537759E+01 -0.432414781E-01  0.436907581E-01
   H -0.154919455E+02  0.169736713E+01  0.276147784E+00
   H  0.149826334E+02 -0.117457283E+01 -0.107082146E+01
     4
 # iter = 40000  time[fs]=40.00000
   C -0.341349425E+01 -0.259347406E-01  0.101599663E-01
   C  0.315404747E+01 -0.433812080E-01  0.456109656E-01
   H -0.158501937E+02  0.173667659E+01  0.283036299E+00
   H  0.153271934E+02 -0.120146858E+01 -0.109546435E+01
     4
 # iter = 40500  time[fs]=40.50000
   C -0.350958543E+01 -0.269178363E-01  0.105491203E-01
   C  0.324316134E+01 -0.435210788E-01  0.475353137E-01
   H -0.162087897E+02  0.177602909E+01  0.289932330E+00
   H  0.156721148E+02 -0.122839550E+01 -0.112013596E+01
     4
 # iter = 41000  time[fs]=41.00000
   C -0.360609749E+01 -0.279018546E-01  0.109359929E-01
   C  0.333269501E+01 -0.436609754E-01  0.494636394E-01
   H -0.165677185E+02  0.181542287E+01  0.296835568E+00
   H  0.160173822E+02 -0.125535231E+01 -0.114483513E+01
     4
 # iter = 41500  time[fs]=41.50000
   C -0.370300800E+01 -0.288868551E-01  0.113206718E-01
   C  0.342262606E+01 -0.438007993E-01  0.513957881E-01
   H -0.169269664E+02  0.185485626E+01  0.303745726E+00
   H  0.163629811E+02 -0.128233781E+01 -0.116956077E+01
     4
 # iter = 42000  time[fs]=42.00000
   C -0.380029617E+01 -0.298728860E-01  0.117032407E-01
   C  0.351293378E+01 -0.439404657E-01  0.533316130E-01
   H -0.172865203E+02  0.189432769E+01  0.310662530E+00
   H  0.167088982E+02 -0.130935088E+01 -0.119431185E+01
     4
 # iter = 42500  time[fs]=42.50000
   C -0.389794275E+01 -0.308599854E-01  0.120837792E-01
   C  0.360359893E+01 -0.440799022E-01  0.552709750E-01
   H -0.176463681E+02  0.193383569E+01  0.317585725E+00
   H  0.170551207E+02 -0.133639046E+01 -0.121908740E+01
     4
 # iter = 43000  time[fs]=43.00000
   C -0.399592983E+01 -0.318481829E-01  0.124623635E-01
   C  0.369460365E+01 -0.442190467E-01  0.572137419E-01
   H -0.180064980E+02  0.197337886E+01  0.324515070E+00
   H  0.174016367E+02 -0.136345553E+01 -0.124388651E+01
     4
 # iter = 43500  time[fs]=43.50000
   C -0.409424075E+01 -0.328375010E-01  0.128390659E-01
   C  0.378593131E+01 -0.443578462E-01  0.591597883E-01
   H -0.183668994E+02  0.201295589E+01  0.331450335E+00
   H  0.177484350E+02 -0.139054516E+01 -0.126870832E+01
     4
 # iter = 44000  time[fs]=44.00000
   C -0.419286001E+01 -0.338279561E-01  0.132139555E-01
   C  0.387756643E+01 -0.444962556E-01  0.611089951E-01
   H -0.187275620E+02  0.205256555E+01  0.338391306E+00
   H  0.180955049E+02 -0.141765846E+01 -0.129355200E+01
     4
 # iter = 44500  time[fs]=44.50000
   C -0.429177312E+01 -0.348195590E-01  0.135870978E-01
   C  0.396949456E+01 -0.446342366E-01  0.630612492E-01
   H -0.190884761E+02  0.209220666E+01  0.345337779E+00
   H  0.184428363E+02 -0.144479457E+01 -0.131841678E+01
     4
 # iter = 45000  time[fs]=45.00000
   C -0.439096656E+01 -0.358123166E-01  0.139585556E-01
   C  0.406170222E+01 -0.447717568E-01  0.650164429E-01
   H -0.194496325E+02  0.213187812E+01  0.352289561E+00
   H  0.187904199E+02 -0.147195270E+01 -0.134330193E+01
     4
 # iter = 45500  time[fs]=45.50000
   C -0.449042768E+01 -0.368062317E-01  0.143283885E-01
   C  0.415417677E+01 -0.449087890E-01  0.669744738E-01
   H -0.198110225E+02  0.217157886E+01  0.359246469E+00
   H  0.191382465E+02 -0.149913209E+01 -0.136820676E+01
     4
 # iter = 46000  time[fs]=46.00000
   C -0.459014464E+01 -0.378013038E-01  0.146966533E-01
   C  0.424690640E+01 -0.450453103E-01  0.689352447E-01
   H -0.201726380E+02  0.221130790E+01  0.366208330E+00
   H  0.194863077E+02 -0.152633202E+01 -0.139313060E+01
     4
 # iter = 46500  time[fs]=46.50000
   C -0.469010633E+01 -0.387975298E-01  0.150634042E-01
   C  0.433988002E+01 -0.451813021E-01  0.708986628E-01
   H -0.205344712E+02  0.225106429E+01  0.373174977E+00
   H  0.198345953E+02 -0.155355179E+01 -0.141807283E+01
     4
 # iter = 47000  time[fs]=47.00000
   C -0.479030232E+01 -0.397949043E-01  0.154286928E-01
   C  0.443308723E+01 -0.453167490E-01  0.728646399E-01
   H -0.208965147E+02  0.229084712E+01  0.380146256E+00
   H  0.201831018E+02 -0.158079078E+01 -0.144303285E+01
     4
 # iter = 47500  time[fs]=47.50000
   C -0.489072281E+01 -0.407934200E-01  0.157925685E-01
   C  0.452651826E+01 -0.454516383E-01  0.748330917E-01
   H -0.212587615E+02  0.233065554E+01  0.387122016E+00
   H  0.205318199E+02 -0.160804834E+01 -0.146801009E+01
     4
 # iter = 48000  time[fs]=48.00000
   C -0.499135859E+01 -0.417930677E-01  0.161550781E-01
   C  0.462016391E+01 -0.455859605E-01  0.768039380E-01
   H -0.216212048E+02  0.237048873E+01  0.394102116E+00
   H  0.208807425E+02 -0.163532390E+01 -0.149300401E+01
     4
 # iter = 48500  time[fs]=48.50000
   C -0.509220096E+01 -0.427938373E-01  0.165162666E-01
   C  0.471401550E+01 -0.457197078E-01  0.787771023E-01
   H -0.219838384E+02  0.241034592E+01  0.401086420E+00
   H  0.212298631E+02 -0.166261690E+01 -0.151801410E+01
     4
 # iter = 49000  time[fs]=49.00000
   C -0.519324175E+01 -0.437957171E-01  0.168761769E-01
   C  0.480806489E+01 -0.458528747E-01  0.807525115E-01
   H -0.223466561E+02  0.245022636E+01  0.408074799E+00
   H  0.215791754E+02 -0.168992679E+01 -0.154303987E+01
     4
 # iter = 49500  time[fs]=49.50000
   C -0.529447323E+01 -0.447986946E-01  0.172348497E-01
   C  0.490230435E+01 -0.459854574E-01  0.827300957E-01
   H -0.227096523E+02  0.249012935E+01  0.415067130E+00
   H  0.219286734E+02 -0.171725307E+01 -0.156808084E+01
     4
 # iter = 50000  time[fs]=50.00000
   C -0.539588810E+01 -0.458027567E-01  0.175923243E-01
   C  0.499672661E+01 -0.461174535E-01  0.847097883E-01
   H -0.230728213E+02  0.253005422E+01  0.422063295E+00
   H  0.222783514E+02 -0.174459525E+01 -0.159313656E+01
     4
 # iter = 50500  time[fs]=50.50000
   C -0.549747945E+01 -0.468078896E-01  0.179486380E-01
   C  0.509132478E+01 -0.462488620E-01  0.866915254E-01
   H -0.234361580E+02  0.257000032E+01  0.429063182E+00
   H  0.226282040E+02 -0.177195285E+01 -0.161820661E+01
     4
 # iter = 51000  time[fs]=51.00000
   C -0.559924076E+01 -0.478140789E-01  0.183038266E-01
   C  0.518609236E+01 -0.463796830E-01  0.886752461E-01
   H -0.237996574E+02  0.260996703E+01  0.436066683E+00
   H  0.229782259E+02 -0.179932545E+01 -0.164329057E+01
     4
 # iter = 51500  time[fs]=51.50000
   C -0.570116584E+01 -0.488213099E-01  0.186579243E-01
   C  0.528102316E+01 -0.465099177E-01  0.906608918E-01
   H -0.241633146E+02  0.264995376E+01  0.443073696E+00
   H  0.233284121E+02 -0.182671260E+01 -0.166838806E+01
     4
 # iter = 52000  time[fs]=52.00000
   C -0.580324882E+01 -0.498295676E-01  0.190109639E-01
   C  0.537611134E+01 -0.466395680E-01  0.926484067E-01
   H -0.245271250E+02  0.268995995E+01  0.450084122E+00
   H  0.236787579E+02 -0.185411390E+01 -0.169349869E+01
     4
 # iter = 52500  time[fs]=52.50000
   C -0.590548415E+01 -0.508388368E-01  0.193629767E-01
   C  0.547135134E+01 -0.467686367E-01  0.946377371E-01
   H -0.248910843E+02  0.272998505E+01  0.457097865E+00
   H  0.240292587E+02 -0.188152896E+01 -0.171862211E+01
     4
 # iter = 53000  time[fs]=53.00000
   C -0.600786653E+01 -0.518491023E-01  0.197139928E-01
   C  0.556673791E+01 -0.468971271E-01  0.966288317E-01
   H -0.252551883E+02  0.277002855E+01  0.464114837E+00
   H  0.243799101E+02 -0.190895739E+01 -0.174375796E+01
     4
 # iter = 53500  time[fs]=53.50000
   C -0.611039094E+01 -0.528603486E-01  0.200640410E-01
   C  0.566226602E+01 -0.470250432E-01  0.986216411E-01
   H -0.256194329E+02  0.281008995E+01  0.471134949E+00
   H  0.247307080E+02 -0.193639885E+01 -0.176890592E+01
     4
 # iter = 54000  time[fs]=54.00000
   C -0.621305261E+01 -0.538725604E-01  0.204131490E-01
   C  0.575793092E+01 -0.471523895E-01  0.100616118E+00
   H -0.259838142E+02  0.285016877E+01  0.478158118E+00
   H  0.250816483E+02 -0.196385298E+01 -0.179406566E+01
     4
 # iter = 54500  time[fs]=54.50000
   C -0.631584699E+01 -0.548857223E-01  0.207613434E-01
   C  0.585372806E+01 -0.472791708E-01  0.102612217E+00
   H -0.263483286E+02  0.289026455E+01  0.485184265E+00
   H  0.254327272E+02 -0.199131945E+01 -0.181923688E+01
     4
 # iter = 55000  time[fs]=55.00000
   C -0.641876975E+01 -0.558998189E-01  0.211086494E-01
   C  0.594965314E+01 -0.474053922E-01  0.104609895E+00
   H -0.267129724E+02  0.293037685E+01  0.492213311E+00
   H  0.257839409E+02 -0.201879794E+01 -0.184441928E+01
     4
 # iter = 55500  time[fs]=55.50000
   C -0.652181676E+01 -0.569148351E-01  0.214550917E-01
   C  0.604570203E+01 -0.475310593E-01  0.106609109E+00
   H -0.270777424E+02  0.297050524E+01  0.499245184E+00
   H  0.261352860E+02 -0.204628815E+01 -0.186961258E+01
     4
 # iter = 56000  time[fs]=56.00000
   C -0.662498408E+01 -0.579307558E-01  0.218006937E-01
   C  0.614187081E+01 -0.476561778E-01  0.108609820E+00
   H -0.274426351E+02  0.301064933E+01  0.506279811E+00
   H  0.264867589E+02 -0.207378977E+01 -0.189481651E+01
     4
 # iter = 56500  time[fs]=56.50000
   C -0.672826796E+01 -0.589475660E-01  0.221454780E-01
   C  0.623815573E+01 -0.477807536E-01  0.110611988E+00
   H -0.278076474E+02  0.305080871E+01  0.513317124E+00
   H  0.268383564E+02 -0.210130253E+01 -0.192003081E+01
     4
 # iter = 57000  time[fs]=57.00000
   C -0.683166481E+01 -0.599652510E-01  0.224894663E-01
   C  0.633455322E+01 -0.479047929E-01  0.112615576E+00
   H -0.281727763E+02  0.309098301E+01  0.520357058E+00
   H  0.271900754E+02 -0.212882615E+01 -0.194525521E+01
     4
 # iter = 57500  time[fs]=57.50000
   C -0.693517120E+01 -0.609837962E-01  0.228326795E-01
   C  0.643105985E+01 -0.480283019E-01  0.114620548E+00
   H -0.285380188E+02  0.313117186E+01  0.527399548E+00
   H  0.275419127E+02 -0.215636036E+01 -0.197048948E+01
     4
 # iter = 58000  time[fs]=58.00000
   C -0.703878385E+01 -0.620031873E-01  0.231751377E-01
   C  0.652767235E+01 -0.481512870E-01  0.116626870E+00
   H -0.289033722E+02  0.317137492E+01  0.534444533E+00
   H  0.278938656E+02 -0.218390491E+01 -0.199573338E+01
     4
 # iter = 58500  time[fs]=58.50000
   C -0.714249962E+01 -0.630234100E-01  0.235168602E-01
   C  0.662438760E+01 -0.482737545E-01  0.118634509E+00
   H -0.292688337E+02  0.321159184E+01  0.541491954E+00
   H  0.282459310E+02 -0.221145955E+01 -0.202098669E+01
     4
 # iter = 59000  time[fs]=59.00000
   C -0.724631550E+01 -0.640444503E-01  0.238578657E-01
   C  0.672120259E+01 -0.483957111E-01  0.120643431E+00
   H -0.296344007E+02  0.325182230E+01  0.548541753E+00
   H  0.285981064E+02 -0.223902406E+01 -0.204624917E+01
     4
 # iter = 59500  time[fs]=59.50000
   C -0.735022863E+01 -0.650662947E-01  0.241981722E-01
   C  0.681811446E+01 -0.485171631E-01  0.122653607E+00
   H -0.300000707E+02  0.329206598E+01  0.555593877E+00
   H  0.289503891E+02 -0.226659819E+01 -0.207152064E+01
     4
 # iter = 60000  time[fs]=60.00000
   C -0.745423623E+01 -0.660889295E-01  0.245377969E-01
   C  0.691512046E+01 -0.486381173E-01  0.124665006E+00
   H -0.303658412E+02  0.333232258E+01  0.562648271E+00
   H  0.293027765E+02 -0.229418173E+01 -0.209680087E+01
     4
 # iter = 60500  time[fs]=60.50000
   C -0.755833566E+01 -0.671123415E-01  0.248767566E-01
   C  0.701221795E+01 -0.487585800E-01  0.126677599E+00
   H -0.307317100E+02  0.337259180E+01  0.569704885E+00
   H  0.296552663E+02 -0.232177447E+01 -0.212208967E+01
     4
 # iter = 61000  time[fs]=61.00000
   C -0.766252439E+01 -0.681365177E-01  0.252150674E-01
   C  0.710940440E+01 -0.488785580E-01  0.128691359E+00
   H -0.310976746E+02  0.341287337E+01  0.576763668E+00
   H  0.300078560E+02 -0.234937619E+01 -0.214738686E+01
     4
 # iter = 61500  time[fs]=61.50000
   C -0.776679997E+01 -0.691614452E-01  0.255527448E-01
   C  0.720667738E+01 -0.489980577E-01  0.130706259E+00
   H -0.314637331E+02  0.345316701E+01  0.583824572E+00
   H  0.303605434E+02 -0.237698671E+01 -0.217269224E+01
     4
 # iter = 62000  time[fs]=62.00000
   C -0.787116007E+01 -0.701871116E-01  0.258898038E-01
   C  0.730403455E+01 -0.491170856E-01  0.132722272E+00
   H -0.318298831E+02  0.349347244E+01  0.590887552E+00
   H  0.307133263E+02 -0.240460583E+01 -0.219800564E+01
     4
 # iter = 62500  time[fs]=62.50000
   C -0.797560244E+01 -0.712135045E-01  0.262262590E-01
   C  0.740147367E+01 -0.492356481E-01  0.134739374E+00
   H -0.321961227E+02  0.353378943E+01  0.597952562E+00
   H  0.310662025E+02 -0.243223335E+01 -0.222332689E+01
     4
 # iter = 63000  time[fs]=63.00000
   C -0.808012491E+01 -0.722406119E-01  0.265621242E-01
   C  0.749899260E+01 -0.493537518E-01  0.136757540E+00
   H -0.325624499E+02  0.357411770E+01  0.605019558E+00
   H  0.314191700E+02 -0.245986911E+01 -0.224865581E+01
     4
 # iter = 63500  time[fs]=63.50000
   C -0.818472541E+01 -0.732684218E-01  0.268974131E-01
   C  0.759658924E+01 -0.494714029E-01  0.138776747E+00
   H -0.329288628E+02  0.361445704E+01  0.612088500E+00
   H  0.317722268E+02 -0.248751292E+01 -0.227399225E+01
     4
 # iter = 64000  time[fs]=64.00000
   C -0.828940192E+01 -0.742969227E-01  0.272321387E-01
   C  0.769426161E+01 -0.495886078E-01  0.140796972E+00
   H -0.332953595E+02  0.365480720E+01  0.619159345E+00
   H  0.321253710E+02 -0.251516462E+01 -0.229933605E+01
     4
 # iter = 64500  time[fs]=64.50000
   C -0.839415253E+01 -0.753261033E-01  0.275663137E-01
   C  0.779200779E+01 -0.497053727E-01  0.142818192E+00
   H -0.336619383E+02  0.369516796E+01  0.626232055E+00
   H  0.324786006E+02 -0.254282404E+01 -0.232468706E+01
     4
 # iter = 65000  time[fs]=65.00000
   C -0.849897538E+01 -0.763559523E-01  0.278999503E-01
   C  0.788982592E+01 -0.498217037E-01  0.144840387E+00
   H -0.340285974E+02  0.373553910E+01  0.633306591E+00
   H  0.328319140E+02 -0.257049103E+01 -0.235004513E+01
     4
 # iter = 65500  time[fs]=65.50000
   C -0.860386867E+01 -0.773864588E-01  0.282330604E-01
   C  0.798771422E+01 -0.499376071E-01  0.146863536E+00
   H -0.343953351E+02  0.377592041E+01  0.640382915E+00
   H  0.331853093E+02 -0.259816542E+01 -0.237541012E+01
     4
 # iter = 66000  time[fs]=66.00000
   C -0.870883069E+01 -0.784176123E-01  0.285656553E-01
   C  0.808567097E+01 -0.500530887E-01  0.148887620E+00
   H -0.347621498E+02  0.381631168E+01  0.647460993E+00
   H  0.335387849E+02 -0.262584708E+01 -0.240078188E+01
     4
 # iter = 66500  time[fs]=66.50000
   C -0.881385976E+01 -0.794494021E-01  0.288977463E-01
   C  0.818369452E+01 -0.501681545E-01  0.150912617E+00
   H -0.351290399E+02  0.385671271E+01  0.654540790E+00
   H  0.338923390E+02 -0.265353586E+01 -0.242616030E+01
     4
 # iter = 67000  time[fs]=67.00000
   C -0.891895429E+01 -0.804818180E-01  0.292293440E-01
   C  0.828178326E+01 -0.502828104E-01  0.152938511E+00
   H -0.354960039E+02  0.389712332E+01  0.661622270E+00
   H  0.342459702E+02 -0.268123161E+01 -0.245154522E+01
     4
 # iter = 67500  time[fs]=67.50000
   C -0.902411272E+01 -0.815148500E-01  0.295604590E-01
   C  0.837993565E+01 -0.503970621E-01  0.154965282E+00
   H -0.358630404E+02  0.393754330E+01  0.668705402E+00
   H  0.345996768E+02 -0.270893420E+01 -0.247693654E+01
     4
 # iter = 68000  time[fs]=68.00000
   C -0.912933356E+01 -0.825484882E-01  0.298911012E-01
   C  0.847815019E+01 -0.505109155E-01  0.156992913E+00
   H -0.362301477E+02  0.397797249E+01  0.675790153E+00
   H  0.349534574E+02 -0.273664350E+01 -0.250233412E+01
     4
 # iter = 68500  time[fs]=68.50000
   C -0.923461537E+01 -0.835827231E-01  0.302212805E-01
   C  0.857642546E+01 -0.506243760E-01  0.159021386E+00
   H -0.365973247E+02  0.401841070E+01  0.682876493E+00
   H  0.353073105E+02 -0.276435937E+01 -0.252773785E+01
     4
 # iter = 69000  time[fs]=69.00000
   C -0.933995674E+01 -0.846175451E-01  0.305510063E-01
   C  0.867476006E+01 -0.507374492E-01  0.161050686E+00
   H -0.369645698E+02  0.405885777E+01  0.689964391E+00
   H  0.356612347E+02 -0.279208170E+01 -0.255314760E+01
     4
 # iter = 69500  time[fs]=69.50000
   C -0.944535634E+01 -0.856529450E-01  0.308802880E-01
   C  0.877315263E+01 -0.508501406E-01  0.163080795E+00
   H -0.373318818E+02  0.409931352E+01  0.697053819E+00
   H  0.360152286E+02 -0.281981037E+01 -0.257856328E+01
     4
 # iter = 70000  time[fs]=70.00000
   C -0.955081284E+01 -0.866889138E-01  0.312091343E-01
   C  0.887160189E+01 -0.509624554E-01  0.165111699E+00
   H -0.376992594E+02  0.413977779E+01  0.704144747E+00
   H  0.363692909E+02 -0.284754524E+01 -0.260398476E+01
     4
 # iter = 70500  time[fs]=70.50000
   C -0.965632500E+01 -0.877254426E-01  0.315375540E-01
   C  0.897010657E+01 -0.510743991E-01  0.167143382E+00
   H -0.380667014E+02  0.418025043E+01  0.711237148E+00
   H  0.367234203E+02 -0.287528622E+01 -0.262941194E+01
     4
 # iter = 71000  time[fs]=71.00000
   C -0.976189158E+01 -0.887625228E-01  0.318655556E-01
   C  0.906866546E+01 -0.511859767E-01  0.169175828E+00
   H -0.384342066E+02  0.422073127E+01  0.718330995E+00
   H  0.370776155E+02 -0.290303318E+01 -0.265484472E+01
     4
 # iter = 71500  time[fs]=71.50000
   C -0.986751141E+01 -0.898001459E-01  0.321931471E-01
   C  0.916727737E+01 -0.512971933E-01  0.171209025E+00
   H -0.388017737E+02  0.426122019E+01  0.725426262E+00
   H  0.374318753E+02 -0.293078602E+01 -0.268028300E+01
     4
 # iter = 72000  time[fs]=72.00000
   C -0.997318335E+01 -0.908383035E-01  0.325203366E-01
   C  0.926594117E+01 -0.514080541E-01  0.173242957E+00
   H -0.391694016E+02  0.430171701E+01  0.732522923E+00
   H  0.377861985E+02 -0.295854464E+01 -0.270572667E+01
     4
 # iter = 72500  time[fs]=72.50000
   C -0.100789063E+02 -0.918769875E-01  0.328471317E-01
   C  0.936465575E+01 -0.515185639E-01  0.175277611E+00
   H -0.395370893E+02  0.434222162E+01  0.739620954E+00
   H  0.381405840E+02 -0.298630892E+01 -0.273117564E+01
     4
 # iter = 73000  time[fs]=73.00000
   C -0.101846791E+02 -0.929161900E-01  0.331735399E-01
   C  0.946342004E+01 -0.516287275E-01  0.177312974E+00
   H -0.399048356E+02  0.438273386E+01  0.746720331E+00
   H  0.384950306E+02 -0.301407878E+01 -0.275662983E+01
     4
 # iter = 73500  time[fs]=73.50000
   C -0.102905008E+02 -0.939559031E-01  0.334995686E-01
   C  0.956223300E+01 -0.517385498E-01  0.179349033E+00
   H -0.402726395E+02  0.442325360E+01  0.753821030E+00
   H  0.388495373E+02 -0.304185411E+01 -0.278208913E+01
     4
 # iter = 74000  time[fs]=74.00000
   C -0.103963704E+02 -0.949961191E-01  0.338252249E-01
   C  0.966109363E+01 -0.518480354E-01  0.181385776E+00
   H -0.406404999E+02  0.446378072E+01  0.760923027E+00
   H  0.392041029E+02 -0.306963482E+01 -0.280755347E+01
     4
 # iter = 74500  time[fs]=74.50000
   C -0.105022869E+02 -0.960368307E-01  0.341505156E-01
   C  0.976000094E+01 -0.519571890E-01  0.183423189E+00
   H -0.410084159E+02  0.450431509E+01  0.768026302E+00
   H  0.395587264E+02 -0.309742081E+01 -0.283302274E+01
     4
 # iter = 75000  time[fs]=75.00000
   C -0.106082493E+02 -0.970780303E-01  0.344754474E-01
   C  0.985895400E+01 -0.520660150E-01  0.185461262E+00
   H -0.413763865E+02  0.454485658E+01  0.775130832E+00
   H  0.399134068E+02 -0.312521200E+01 -0.285849688E+01
     4
 # iter = 75500  time[fs]=75.50000
   C -0.107142567E+02 -0.981197110E-01  0.348000269E-01
   C  0.995795188E+01 -0.521745180E-01  0.187499983E+00
   H -0.417444108E+02  0.458540507E+01  0.782236595E+00
   H  0.402681432E+02 -0.315300830E+01 -0.288397580E+01
     4
 # iter = 76000  time[fs]=76.00000
   C -0.108203082E+02 -0.991618655E-01  0.351242605E-01
   C  0.100569937E+02 -0.522827022E-01  0.189539340E+00
   H -0.421124877E+02  0.462596045E+01  0.789343572E+00
   H  0.406229345E+02 -0.318080962E+01 -0.290945942E+01
     4
 # iter = 76500  time[fs]=76.50000
   C -0.109264030E+02 -0.100204487E+00  0.354481542E-01
   C  0.101560786E+02 -0.523905721E-01  0.191579322E+00
   H -0.424806165E+02  0.466652260E+01  0.796451742E+00
   H  0.409777799E+02 -0.320861588E+01 -0.293494765E+01
     4
 # iter = 77000  time[fs]=77.00000
   C -0.110325402E+02 -0.101247569E+00  0.357717142E-01
   C  0.102552057E+02 -0.524981317E-01  0.193619919E+00
   H -0.428487962E+02  0.470709140E+01  0.803561085E+00
   H  0.413326784E+02 -0.323642699E+01 -0.296044044E+01
     4
 # iter = 77500  time[fs]=77.50000
   C -0.111387190E+02 -0.102291104E+00  0.360949463E-01
   C  0.103543742E+02 -0.526053853E-01  0.195661121E+00
   H -0.432170261E+02  0.474766675E+01  0.810671583E+00
   H  0.416876291E+02 -0.326424289E+01 -0.298593769E+01
     4
 # iter = 78000  time[fs]=78.00000
   C -0.112449386E+02 -0.103335087E+00  0.364178563E-01
   C  0.104535833E+02 -0.527123370E-01  0.197702917E+00
   H -0.435853051E+02  0.478824855E+01  0.817783217E+00
   H  0.420426311E+02 -0.329206348E+01 -0.301143935E+01
     4
 # iter = 78500  time[fs]=78.50000
   C -0.113511981E+02 -0.104379510E+00  0.367404496E-01
   C  0.105528323E+02 -0.528189907E-01  0.199745297E+00
   H -0.439536327E+02  0.482883669E+01  0.824895968E+00
   H  0.423976837E+02 -0.331988870E+01 -0.303694533E+01
     4
 # iter = 79000  time[fs]=79.00000
   C -0.114574970E+02 -0.105424368E+00  0.370627318E-01
   C  0.106521204E+02 -0.529253504E-01  0.201788251E+00
   H -0.443220079E+02  0.486943106E+01  0.832009818E+00
   H  0.427527859E+02 -0.334771847E+01 -0.306245557E+01
     4
 # iter = 79500  time[fs]=79.50000
   C -0.115638344E+02 -0.106469655E+00  0.373847081E-01
   C  0.107514468E+02 -0.530314199E-01  0.203831771E+00
   H -0.446904299E+02  0.491003157E+01  0.839124751E+00
   H  0.431079371E+02 -0.337555271E+01 -0.308797001E+01
     4
 # iter = 80000  time[fs]=80.00000
   C -0.116702096E+02 -0.107515364E+00  0.377063837E-01
   C  0.108508109E+02 -0.531372031E-01  0.205875847E+00
   H -0.450588981E+02  0.495063812E+01  0.846240749E+00
   H  0.434631363E+02 -0.340339137E+01 -0.311348857E+01
