     4
 # iter = 25000  time[fs]=25.00000
   C -0.100914742E+01  0.226949666E-01 -0.416227243E-01
   C  0.101870987E+01 -0.332571804E-02  0.656767073E-01
   H -0.531686054E+01  0.226423004E+00  0.716503560E+00
   H  0.534517732E+01 -0.153598233E+00 -0.757273068E+00
     4
 # iter = 25500  time[fs]=25.50000
   C -0.105720339E+01  0.224112876E-01 -0.441602073E-01
   C  0.106340740E+01 -0.317559041E-02  0.718363235E-01
   H -0.564815899E+01  0.240546600E+00  0.764289273E+00
   H  0.566228887E+01 -0.163815226E+00 -0.806559801E+00
     4
 # iter = 26000  time[fs]=26.00000
   C -0.110670186E+01  0.221413869E-01 -0.467961528E-01
   C  0.110954878E+01 -0.304147563E-02  0.780967569E-01
   H -0.598204858E+01  0.254781714E+00  0.812466204E+00
   H  0.598197527E+01 -0.174116920E+00 -0.856266008E+00
     4
 # iter = 26500  time[fs]=26.50000
   C -0.115752338E+01  0.218832479E-01 -0.495239467E-01
   C  0.115701375E+01 -0.292109290E-02  0.844513378E-01
   H -0.631824376E+01  0.269116331E+00  0.860991499E+00
   H  0.630396089E+01 -0.184494475E+00 -0.906348167E+00
     4
 # iter = 27000  time[fs]=27.00000
   C -0.120955969E+01  0.216351615E-01 -0.523374565E-01
   C  0.120569344E+01 -0.281251195E-02  0.908938559E-01
   H -0.665650252E+01  0.283540240E+00  0.909828877E+00
   H  0.662801086E+01 -0.194940330E+00 -0.956769067E+00
     4
 # iter = 27500  time[fs]=27.50000
   C -0.126271284E+01  0.213956790E-01 -0.552310027E-01
   C  0.125548948E+01 -0.271409767E-02  0.974185427E-01
   H -0.699661816E+01  0.298044690E+00  0.958947362E+00
   H  0.695392365E+01 -0.205447974E+00 -0.100749666E+01
     4
 # iter = 28000  time[fs]=28.00000
   C -0.131689430E+01  0.211635723E-01 -0.581993325E-01
   C  0.130631302E+01 -0.262446302E-02  0.104020051E+00
   H -0.733841282E+01  0.312622132E+00  0.100832031E+01
   H  0.728152511E+01 -0.216011763E+00 -0.105850316E+01
     4
 # iter = 28500  time[fs]=28.50000
   C -0.137202406E+01  0.209377988E-01 -0.612375922E-01
   C  0.135808384E+01 -0.254242910E-02  0.110693429E+00
   H -0.768173249E+01  0.327266009E+00  0.105792464E+01
   H  0.761066384E+01 -0.226626778E+00 -0.110976435E+01
     4
 # iter = 29000  time[fs]=29.00000
   C -0.142802980E+01  0.207174719E-01 -0.643413000E-01
   C  0.141072945E+01 -0.246699182E-02  0.117434103E+00
   H -0.802644297E+01  0.341970599E+00  0.110774026E+01
   H  0.794120749E+01 -0.237288704E+00 -0.116125897E+01
     4
 # iter = 29500  time[fs]=29.50000
   C -0.148484609E+01  0.205018367E-01 -0.675063196E-01
   C  0.146418435E+01 -0.239729384E-02  0.124237841E+00
   H -0.837242667E+01  0.356730871E+00  0.115774952E+01
   H  0.827303971E+01 -0.247993743E+00 -0.121296828E+01
     4
 # iter = 30000  time[fs]=30.00000
   C -0.154241371E+01  0.202902487E-01 -0.707288340E-01
   C  0.151838923E+01 -0.233260132E-02  0.131100740E+00
   H -0.871958005E+01  0.371542390E+00  0.120793689E+01
   H  0.860605775E+01 -0.258738527E+00 -0.126487568E+01
     4
 # iter = 30500  time[fs]=30.50000
   C -0.160067897E+01  0.200821566E-01 -0.740053207E-01
   C  0.157329037E+01 -0.227228441E-02  0.138019191E+00
   H -0.906781145E+01  0.386401218E+00  0.125828862E+01
   H  0.894017041E+01 -0.269520066E+00 -0.131696641E+01
     4
 # iter = 31000  time[fs]=31.00000
   C -0.165959312E+01  0.198770879E-01 -0.773325280E-01
   C  0.162883899E+01 -0.221580112E-02  0.144989863E+00
   H -0.941703939E+01  0.401303852E+00  0.130879247E+01
   H  0.927529643E+01 -0.280335687E+00 -0.136922726E+01
     4
 # iter = 31500  time[fs]=31.50000
   C -0.171911186E+01  0.196746366E-01 -0.807074529E-01
   C  0.168499081E+01 -0.216268378E-02  0.152009679E+00
   H -0.976719116E+01  0.416247155E+00  0.135943750E+01
   H  0.961136312E+01 -0.291182995E+00 -0.142164639E+01
     4
 # iter = 32000  time[fs]=32.00000
   C -0.177919486E+01  0.194744529E-01 -0.841273204E-01
   C  0.174170548E+01 -0.211252775E-02  0.159075791E+00
   H -0.101182016E+02  0.431228314E+00  0.141021390E+01
   H  0.994830519E+01 -0.302059834E+00 -0.147421315E+01
     4
 # iter = 32500  time[fs]=32.50000
   C -0.183980532E+01  0.192762350E-01 -0.875895643E-01
   C  0.179894624E+01 -0.206498201E-02  0.166185566E+00
   H -0.104700120E+02  0.446244793E+00  0.146111286E+01
   H  0.102860638E+02 -0.312964259E+00 -0.152691791E+01
     4
 # iter = 33000  time[fs]=33.00000
   C -0.190090965E+01  0.190797218E-01 -0.910918095E-01
   C  0.185667951E+01 -0.201974127E-02  0.173336568E+00
   H -0.108225695E+02  0.461294300E+00  0.151212638E+01
   H  0.106245858E+02 -0.323894509E+00 -0.157975193E+01
     4
 # iter = 33500  time[fs]=33.50000
   C -0.196247709E+01  0.188846869E-01 -0.946318560E-01
   C  0.191487457E+01 -0.197653931E-02  0.180526536E+00
   H -0.111758262E+02  0.476374755E+00  0.156324725E+01
   H  0.109638229E+02 -0.334848981E+00 -0.163270728E+01
     4
 # iter = 34000  time[fs]=34.00000
   C -0.202447946E+01  0.186909336E-01 -0.982076637E-01
   C  0.197350326E+01 -0.193514344E-02  0.187753377E+00
   H -0.115297386E+02  0.491484270E+00  0.161446889E+01
   H  0.113037312E+02 -0.345826220E+00 -0.168577674E+01
     4
 # iter = 34500  time[fs]=34.50000
   C -0.208689090E+01  0.184982908E-01 -0.101817339E+00
   C  0.203253976E+01 -0.189534973E-02  0.195015144E+00
   H -0.118842671E+02  0.506621119E+00  0.166578531E+01
   H  0.116442707E+02 -0.356824891E+00 -0.173895368E+01
     4
 # iter = 35000  time[fs]=35.00000
   C -0.214968761E+01  0.183066091E-01 -0.105459123E+00
   C  0.209196030E+01 -0.185697909E-02  0.202310030E+00
   H -0.122393754E+02  0.521783725E+00  0.171719104E+01
   H  0.119854049E+02 -0.367843777E+00 -0.179223206E+01
     4
 # iter = 35500  time[fs]=35.50000
   C -0.221284769E+01  0.181157581E-01 -0.109131379E+00
   C  0.215174302E+01 -0.181987388E-02  0.209636353E+00
   H -0.125950305E+02  0.536970643E+00  0.176868106E+01
   H  0.123271001E+02 -0.378881757E+00 -0.184560631E+01
     4
 # iter = 36000  time[fs]=36.00000
   C -0.227635092E+01  0.179256234E-01 -0.112832584E+00
   C  0.221186774E+01 -0.178389501E-02  0.216992548E+00
   H -0.129512020E+02  0.552180545E+00  0.182025076E+01
   H  0.126693255E+02 -0.389937802E+00 -0.189907130E+01
     4
 # iter = 36500  time[fs]=36.50000
   C -0.234017863E+01  0.177361050E-01 -0.116561317E+00
   C  0.227231581E+01 -0.174891954E-02  0.224377152E+00
   H -0.133078618E+02  0.567412207E+00  0.187189590E+01
   H  0.130120528E+02 -0.401010961E+00 -0.195262232E+01
     4
 # iter = 37000  time[fs]=37.00000
   C -0.240431354E+01  0.175471149E-01 -0.120316254E+00
   C  0.233306998E+01 -0.171483856E-02  0.231788805E+00
   H -0.136649842E+02  0.582664500E+00  0.192361256E+01
   H  0.133552557E+02 -0.412100357E+00 -0.200625498E+01
     4
 # iter = 37500  time[fs]=37.50000
   C -0.246873963E+01  0.173585758E-01 -0.124096156E+00
   C  0.239411429E+01 -0.168155540E-02  0.239226231E+00
   H -0.140225453E+02  0.597936379E+00  0.197539711E+01
   H  0.136989101E+02 -0.423205178E+00 -0.205996525E+01
     4
 # iter = 38000  time[fs]=38.00000
   C -0.253344204E+01  0.171704196E-01 -0.127899867E+00
   C  0.245543389E+01 -0.164898412E-02  0.246688241E+00
   H -0.143805232E+02  0.613226878E+00  0.202724622E+01
   H  0.140429934E+02 -0.434324669E+00 -0.211374937E+01
     4
 # iter = 38500  time[fs]=38.50000
   C -0.259840695E+01  0.169825862E-01 -0.131726301E+00
   C  0.251701501E+01 -0.161704817E-02  0.254173718E+00
   H -0.147388973E+02  0.628535098E+00  0.207915675E+01
   H  0.143874849E+02 -0.445458132E+00 -0.216760384E+01
     4
 # iter = 39000  time[fs]=39.00000
   C -0.266362151E+01  0.167950226E-01 -0.135574444E+00
   C  0.257884481E+01 -0.158567923E-02  0.261681618E+00
   H -0.150976488E+02  0.643860204E+00  0.213112582E+01
   H  0.147323652E+02 -0.456604914E+00 -0.222152542E+01
     4
 # iter = 39500  time[fs]=39.50000
   C -0.272907373E+01  0.166076820E-01 -0.139443343E+00
   C  0.264091135E+01 -0.155481627E-02  0.269210960E+00
   H -0.154567598E+02  0.659201417E+00  0.218315073E+01
   H  0.150776162E+02 -0.467764408E+00 -0.227551106E+01
     4
 # iter = 40000  time[fs]=40.00000
   C -0.279475243E+01  0.164205230E-01 -0.143332103E+00
   C  0.270320347E+01 -0.152440464E-02  0.276760822E+00
   H -0.158162140E+02  0.674558012E+00  0.223522897E+01
   H  0.154232211E+02 -0.478936047E+00 -0.232955795E+01
     4
 # iter = 40500  time[fs]=40.50000
   C -0.286064716E+01  0.162335089E-01 -0.147239884E+00
   C  0.276571075E+01 -0.149439538E-02  0.284330339E+00
   H -0.161759959E+02  0.689929310E+00  0.228735818E+01
   H  0.157691643E+02 -0.490119300E+00 -0.238366342E+01
     4
 # iter = 41000  time[fs]=41.00000
   C -0.292674816E+01  0.160466074E-01 -0.151165894E+00
   C  0.282842344E+01 -0.146474451E-02  0.291918697E+00
   H -0.165360913E+02  0.705314677E+00  0.233953617E+01
   H  0.161154309E+02 -0.501313670E+00 -0.243782499E+01
     4
 # iter = 41500  time[fs]=41.50000
   C -0.299304625E+01  0.158597895E-01 -0.155109389E+00
   C  0.289133243E+01 -0.143541253E-02  0.299525126E+00
   H -0.168964865E+02  0.720713518E+00  0.239176088E+01
   H  0.164620073E+02 -0.512518693E+00 -0.249204034E+01
     4
 # iter = 42000  time[fs]=42.00000
   C -0.305953286E+01  0.156730299E-01 -0.159069665E+00
   C  0.295442913E+01 -0.140636388E-02  0.307148904E+00
   H -0.172571690E+02  0.736125274E+00  0.244403037E+01
   H  0.168088805E+02 -0.523733930E+00 -0.254630727E+01
     4
 # iter = 42500  time[fs]=42.50000
   C -0.312619993E+01  0.154863059E-01 -0.163046060E+00
   C  0.301770553E+01 -0.137756651E-02  0.314789347E+00
   H -0.176181270E+02  0.751549422E+00  0.249634283E+01
   H  0.171560383E+02 -0.534958971E+00 -0.260062373E+01
     4
 # iter = 43000  time[fs]=43.00000
   C -0.319303988E+01  0.152995975E-01 -0.167037947E+00
   C  0.308115406E+01 -0.134899153E-02  0.322445810E+00
   H -0.179793494E+02  0.766985469E+00  0.254869654E+01
   H  0.175034694E+02 -0.546193428E+00 -0.265498777E+01
     4
 # iter = 43500  time[fs]=43.50000
   C -0.326004559E+01  0.151128869E-01 -0.171044736E+00
   C  0.314476763E+01 -0.132061284E-02  0.330117684E+00
   H -0.183408255E+02  0.782432948E+00  0.260108991E+01
   H  0.178511630E+02 -0.557436937E+00 -0.270939758E+01
     4
 # iter = 44000  time[fs]=44.00000
   C -0.332721033E+01  0.149261583E-01 -0.175065866E+00
   C  0.320853954E+01 -0.129240686E-02  0.337804391E+00
   H -0.187025456E+02  0.797891423E+00  0.265352140E+01
   H  0.181991090E+02 -0.568689154E+00 -0.276385142E+01
     4
 # iter = 44500  time[fs]=44.50000
   C -0.339452780E+01  0.147393979E-01 -0.179100807E+00
   C  0.327246348E+01 -0.126435225E-02  0.345505384E+00
   H -0.190645004E+02  0.813360481E+00  0.270598960E+01
   H  0.185472978E+02 -0.579949754E+00 -0.281834766E+01
     4
 # iter = 45000  time[fs]=45.00000
   C -0.346199200E+01  0.145525933E-01 -0.183149057E+00
   C  0.333653351E+01 -0.123642968E-02  0.353220146E+00
   H -0.194266811E+02  0.828839729E+00  0.275849315E+01
   H  0.188957203E+02 -0.591218430E+00 -0.287288477E+01
     4
 # iter = 45500  time[fs]=45.50000
   C -0.352959730E+01  0.143657335E-01 -0.187210139E+00
   C  0.340074400E+01 -0.120862165E-02  0.360948185E+00
   H -0.197890792E+02  0.844328799E+00  0.281103076E+01
   H  0.192443681E+02 -0.602494891E+00 -0.292746129E+01
     4
 # iter = 46000  time[fs]=46.00000
   C -0.359733837E+01  0.141788089E-01 -0.191283601E+00
   C  0.346508963E+01 -0.118091229E-02  0.368689034E+00
   H -0.201516871E+02  0.859827340E+00  0.286360122E+01
   H  0.195932330E+02 -0.613778861E+00 -0.298207582E+01
     4
 # iter = 46500  time[fs]=46.50000
   C -0.366521016E+01  0.139918109E-01 -0.195369014E+00
   C  0.352956538E+01 -0.115328719E-02  0.376442252E+00
   H -0.205144972E+02  0.875335021E+00  0.291620339E+01
   H  0.199423073E+02 -0.625070080E+00 -0.303672707E+01
     4
 # iter = 47000  time[fs]=47.00000
   C -0.373320789E+01  0.138047321E-01 -0.199465969E+00
   C  0.359416648E+01 -0.112573326E-02  0.384207415E+00
   H -0.208775024E+02  0.890851527E+00  0.296883618E+01
   H  0.202915839E+02 -0.636368299E+00 -0.309141378E+01
     4
 # iter = 47500  time[fs]=47.50000
   C -0.380132703E+01  0.136175658E-01 -0.203574078E+00
   C  0.365888842E+01 -0.109823862E-02  0.391984124E+00
   H -0.212406961E+02  0.906376559E+00  0.302149855E+01
   H  0.206410557E+02 -0.647673284E+00 -0.314613477E+01
     4
 # iter = 48000  time[fs]=48.00000
   C -0.386956327E+01  0.134303063E-01 -0.207692971E+00
   C  0.372372691E+01 -0.107079248E-02  0.399771997E+00
   H -0.216040719E+02  0.921909833E+00  0.307418951E+01
   H  0.209907163E+02 -0.658984810E+00 -0.320088892E+01
     4
 # iter = 48500  time[fs]=48.50000
   C -0.393791254E+01  0.132429485E-01 -0.211822295E+00
   C  0.378867788E+01 -0.104338501E-02  0.407570670E+00
   H -0.219676237E+02  0.937451080E+00  0.312690814E+01
   H  0.213405595E+02 -0.670302665E+00 -0.325567515E+01
     4
 # iter = 49000  time[fs]=49.00000
   C -0.400637096E+01  0.130554880E-01 -0.215961715E+00
   C  0.385373748E+01 -0.101600729E-02  0.415379797E+00
   H -0.223313458E+02  0.953000041E+00  0.317965353E+01
   H  0.216905792E+02 -0.681626645E+00 -0.331049244E+01
     4
 # iter = 49500  time[fs]=49.50000
   C -0.407493483E+01  0.128679210E-01 -0.220110911E+00
   C  0.391890203E+01 -0.988651173E-03  0.423199047E+00
   H -0.226952327E+02  0.968556472E+00  0.323242485E+01
   H  0.220407698E+02 -0.692956558E+00 -0.336533983E+01
     4
 # iter = 50000  time[fs]=50.00000
   C -0.414360065E+01  0.126802441E-01 -0.224269577E+00
   C  0.398416802E+01 -0.961309283E-03  0.431028104E+00
   H -0.230592792E+02  0.984120140E+00  0.328522128E+01
   H  0.223911260E+02 -0.704292219E+00 -0.342021638E+01
     4
 # iter = 50500  time[fs]=50.50000
   C -0.421236508E+01  0.124924547E-01 -0.228437420E+00
   C  0.404953214E+01 -0.933974886E-03  0.438866666E+00
   H -0.234234803E+02  0.999690822E+00  0.333804205E+01
   H  0.227416425E+02 -0.715633452E+00 -0.347512120E+01
     4
 # iter = 51000  time[fs]=51.00000
   C -0.428122491E+01  0.123045502E-01 -0.232614161E+00
   C  0.411499119E+01 -0.906641859E-03  0.446714446E+00
   H -0.237878313E+02  0.101526830E+01  0.339088643E+01
   H  0.230923146E+02 -0.726980089E+00 -0.353005346E+01
     4
 # iter = 51500  time[fs]=51.50000
   C -0.435017713E+01  0.121165287E-01 -0.236799535E+00
   C  0.418054217E+01 -0.879304629E-03  0.454571168E+00
   H -0.241523275E+02  0.103085238E+01  0.344375371E+01
   H  0.234431375E+02 -0.738331970E+00 -0.358501234E+01
     4
 # iter = 52000  time[fs]=52.00000
   C -0.441921882E+01  0.119283884E-01 -0.240993284E+00
   C  0.424618218E+01 -0.851958128E-03  0.462436567E+00
   H -0.245169647E+02  0.104644287E+01  0.349664322E+01
   H  0.237941068E+02 -0.749688942E+00 -0.363999707E+01
     4
 # iter = 52500  time[fs]=52.50000
   C -0.448834723E+01  0.117401281E-01 -0.245195165E+00
   C  0.431190846E+01 -0.824597742E-03  0.470310391E+00
   H -0.248817388E+02  0.106203957E+01  0.354955431E+01
   H  0.241452181E+02 -0.761050856E+00 -0.369500690E+01
     4
 # iter = 53000  time[fs]=53.00000
   C -0.455755969E+01  0.115517466E-01 -0.249404943E+00
   C  0.437771838E+01 -0.797219280E-03  0.478192399E+00
   H -0.252466457E+02  0.107764231E+01  0.360248637E+01
   H  0.244964674E+02 -0.772417573E+00 -0.375004114E+01
     4
 # iter = 53500  time[fs]=53.50000
   C -0.462685369E+01  0.113632431E-01 -0.253622394E+00
   C  0.444360941E+01 -0.769818929E-03  0.486082358E+00
   H -0.256116817E+02  0.109325092E+01  0.365543880E+01
   H  0.248478507E+02 -0.783788958E+00 -0.380509909E+01
     4
 # iter = 54000  time[fs]=54.00000
   C -0.469622680E+01  0.111746170E-01 -0.257847303E+00
   C  0.450957915E+01 -0.742393228E-03  0.493980045E+00
   H -0.259768431E+02  0.110886524E+01  0.370841105E+01
   H  0.251993643E+02 -0.795164882E+00 -0.386018010E+01
     4
 # iter = 54500  time[fs]=54.50000
   C -0.476567670E+01  0.109858678E-01 -0.262079462E+00
   C  0.457562529E+01 -0.714939034E-03  0.501885248E+00
   H -0.263421264E+02  0.112448510E+01  0.376140257E+01
   H  0.255510045E+02 -0.806545220E+00 -0.391528356E+01
     4
 # iter = 55000  time[fs]=55.00000
   C -0.483520118E+01  0.107969953E-01 -0.266318674E+00
   C  0.464174562E+01 -0.687453496E-03  0.509797761E+00
   H -0.267075284E+02  0.114011037E+01  0.381441283E+01
   H  0.259027680E+02 -0.817929854E+00 -0.397040885E+01
     4
 # iter = 55500  time[fs]=55.50000
   C -0.490479810E+01  0.106079995E-01 -0.270564747E+00
   C  0.470793802E+01 -0.659934032E-03  0.517717387E+00
   H -0.270730457E+02  0.115574089E+01  0.386744134E+01
   H  0.262546514E+02 -0.829318669E+00 -0.402555541E+01
     4
 # iter = 56000  time[fs]=56.00000
   C -0.497446544E+01  0.104188804E-01 -0.274817500E+00
   C  0.477420047E+01 -0.632378306E-03  0.525643936E+00
   H -0.274386753E+02  0.117137652E+01  0.392048761E+01
   H  0.266066515E+02 -0.840711555E+00 -0.408072268E+01
     4
 # iter = 56500  time[fs]=56.50000
   C -0.504420122E+01  0.102296382E-01 -0.279076756E+00
   C  0.484053100E+01 -0.604784205E-03  0.533577228E+00
   H -0.278044142E+02  0.118701714E+01  0.397355119E+01
   H  0.269587652E+02 -0.852108408E+00 -0.413591011E+01
     4
 # iter = 57000  time[fs]=57.00000
   C -0.511400358E+01  0.100402732E-01 -0.283342345E+00
   C  0.490692776E+01 -0.577149823E-03  0.541517088E+00
   H -0.281702597E+02  0.120266261E+01  0.402663163E+01
   H  0.273109897E+02 -0.863509126E+00 -0.419111722E+01
     4
 # iter = 57500  time[fs]=57.50000
   C -0.518387072E+01  0.985078592E-02 -0.287614105E+00
   C  0.497338895E+01 -0.549473444E-03  0.549463345E+00
   H -0.285362089E+02  0.121831282E+01  0.407972851E+01
   H  0.276633220E+02 -0.874913610E+00 -0.424634348E+01
     4
 # iter = 58000  time[fs]=58.00000
   C -0.525380088E+01  0.966117675E-02 -0.291891879E+00
   C  0.503991284E+01 -0.521753526E-03  0.557415839E+00
   H -0.289022592E+02  0.123396763E+01  0.413284141E+01
   H  0.280157594E+02 -0.886321767E+00 -0.430158844E+01
     4
 # iter = 58500  time[fs]=58.50000
   C -0.532379243E+01  0.947144631E-02 -0.296175515E+00
   C  0.510649778E+01 -0.493988686E-03  0.565374413E+00
   H -0.292684081E+02  0.124962695E+01  0.418596993E+01
   H  0.283682994E+02 -0.897733507E+00 -0.435685164E+01
     4
 # iter = 59000  time[fs]=59.00000
   C -0.539384374E+01  0.928159529E-02 -0.300464869E+00
   C  0.517314216E+01 -0.466177689E-03  0.573338917E+00
   H -0.296346532E+02  0.126529065E+01  0.423911370E+01
   H  0.287209393E+02 -0.909148741E+00 -0.441213263E+01
     4
 # iter = 59500  time[fs]=59.50000
   C -0.546395327E+01  0.909162440E-02 -0.304759800E+00
   C  0.523984446E+01 -0.438319432E-03  0.581309206E+00
   H -0.300009920E+02  0.128095863E+01  0.429227234E+01
   H  0.290736768E+02 -0.920567387E+00 -0.446743098E+01
     4
 # iter = 60000  time[fs]=60.00000
   C -0.553411955E+01  0.890153444E-02 -0.309060173E+00
   C  0.530660319E+01 -0.410412940E-03  0.589285139E+00
   H -0.303674224E+02  0.129663080E+01  0.434544551E+01
   H  0.294265095E+02 -0.931989362E+00 -0.452274630E+01
     4
 # iter = 60500  time[fs]=60.50000
   C -0.560434115E+01  0.871132625E-02 -0.313365856E+00
   C  0.537341694E+01 -0.382457349E-03  0.597266581E+00
   H -0.307339421E+02  0.131230704E+01  0.439863285E+01
   H  0.297794351E+02 -0.943414589E+00 -0.457807817E+01
     4
 # iter = 61000  time[fs]=61.00000
   C -0.567461668E+01  0.852100070E-02 -0.317676725E+00
   C  0.544028434E+01 -0.354451900E-03  0.605253403E+00
   H -0.311005490E+02  0.132798728E+01  0.445183405E+01
   H  0.301324515E+02 -0.954842991E+00 -0.463342622E+01
     4
 # iter = 61500  time[fs]=61.50000
   C -0.574494482E+01  0.833055872E-02 -0.321992658E+00
   C  0.550720405E+01 -0.326395932E-03  0.613245479E+00
   H -0.314672411E+02  0.134367140E+01  0.450504877E+01
   H  0.304855565E+02 -0.966274497E+00 -0.468879008E+01
     4
 # iter = 62000  time[fs]=62.00000
   C -0.581532430E+01  0.814000126E-02 -0.326313537E+00
   C  0.557417481E+01 -0.298288873E-03  0.621242686E+00
   H -0.318340165E+02  0.135935933E+01  0.455827672E+01
   H  0.308387482E+02 -0.977709035E+00 -0.474416939E+01
     4
 # iter = 62500  time[fs]=62.50000
   C -0.588575386E+01  0.794932931E-02 -0.330639248E+00
   C  0.564119540E+01 -0.270130230E-03  0.629244907E+00
   H -0.322008732E+02  0.137505098E+01  0.461151760E+01
   H  0.311920244E+02 -0.989146537E+00 -0.479956381E+01
     4
 # iter = 63000  time[fs]=63.00000
   C -0.595623233E+01  0.775854388E-02 -0.334969682E+00
   C  0.570826461E+01 -0.241919587E-03  0.637252029E+00
   H -0.325678093E+02  0.139074627E+01  0.466477111E+01
   H  0.315453834E+02 -0.100058694E+01 -0.485497300E+01
     4
 # iter = 63500  time[fs]=63.50000
   C -0.602675856E+01  0.756764600E-02 -0.339304732E+00
   C  0.577538132E+01 -0.213656598E-03  0.645263942E+00
   H -0.329348232E+02  0.140644511E+01  0.471803697E+01
   H  0.318988233E+02 -0.101203017E+01 -0.491039664E+01
     4
 # iter = 64000  time[fs]=64.00000
   C -0.609733142E+01  0.737663672E-02 -0.343644297E+00
   C  0.584254441E+01 -0.185340978E-03  0.653280540E+00
   H -0.333019131E+02  0.142214743E+01  0.477131493E+01
   H  0.322523422E+02 -0.102347618E+01 -0.496583441E+01
     4
 # iter = 64500  time[fs]=64.50000
   C -0.616794985E+01  0.718551710E-02 -0.347988277E+00
   C  0.590975281E+01 -0.156972503E-03  0.661301720E+00
   H -0.336690773E+02  0.143785315E+01  0.482460472E+01
   H  0.326059386E+02 -0.103492490E+01 -0.502128602E+01
     4
 # iter = 65000  time[fs]=65.00000
   C -0.623861282E+01  0.699428822E-02 -0.352336575E+00
   C  0.597700549E+01 -0.128551001E-03  0.669327383E+00
   H -0.340363143E+02  0.145356220E+01  0.487790608E+01
   H  0.329596107E+02 -0.104637628E+01 -0.507675118E+01
     4
 # iter = 65500  time[fs]=65.50000
   C -0.630931931E+01  0.680295116E-02 -0.356689099E+00
   C  0.604430146E+01 -0.100076352E-03  0.677357431E+00
   H -0.344036224E+02  0.146927452E+01  0.493121878E+01
   H  0.333133569E+02 -0.105783026E+01 -0.513222959E+01
     4
 # iter = 66000  time[fs]=66.00000
   C -0.638006835E+01  0.661150702E-02 -0.361045759E+00
   C  0.611163974E+01 -0.715484774E-04  0.685391773E+00
   H -0.347710002E+02  0.148499002E+01  0.498454257E+01
   H  0.336671757E+02 -0.106928678E+01 -0.518772098E+01
     4
 # iter = 66500  time[fs]=66.50000
   C -0.645085902E+01  0.641995688E-02 -0.365406467E+00
   C  0.617901941E+01 -0.429673445E-04  0.693430316E+00
   H -0.351384462E+02  0.150070865E+01  0.503787723E+01
   H  0.340210654E+02 -0.108074579E+01 -0.524322509E+01
     4
 # iter = 67000  time[fs]=67.00000
   C -0.652169039E+01  0.622830186E-02 -0.369771138E+00
   C  0.624643956E+01 -0.143329567E-04  0.701472975E+00
   H -0.355059590E+02  0.151643035E+01  0.509122253E+01
   H  0.343750248E+02 -0.109220725E+01 -0.529874166E+01
     4
 # iter = 67500  time[fs]=67.50000
   C -0.659256160E+01  0.603654306E-02 -0.374139691E+00
   C  0.631389931E+01  0.143546464E-04  0.709519663E+00
   H -0.358735373E+02  0.153215504E+01  0.514457826E+01
   H  0.347290523E+02 -0.110367110E+01 -0.535427044E+01
     4
 # iter = 68000  time[fs]=68.00000
   C -0.666347178E+01  0.584468157E-02 -0.378512046E+00
   C  0.638139781E+01  0.430953934E-04  0.717570299E+00
   H -0.362411797E+02  0.154788267E+01  0.519794421E+01
   H  0.350831465E+02 -0.111513729E+01 -0.540981118E+01
     4
 # iter = 68500  time[fs]=68.50000
   C -0.673442011E+01  0.565271850E-02 -0.382888126E+00
   C  0.644893425E+01  0.718891827E-04  0.725624803E+00
   H -0.366088848E+02  0.156361318E+01  0.525132017E+01
   H  0.354373062E+02 -0.112660579E+01 -0.546536365E+01
     4
 # iter = 69000  time[fs]=69.00000
   C -0.680540580E+01  0.546065494E-02 -0.387267855E+00
   C  0.651650783E+01  0.100735886E-03  0.733683096E+00
   H -0.369766515E+02  0.157934652E+01  0.530470596E+01
   H  0.357915300E+02 -0.113807653E+01 -0.552092763E+01
     4
 # iter = 69500  time[fs]=69.50000
   C -0.687642806E+01  0.526849199E-02 -0.391651162E+00
   C  0.658411778E+01  0.129635349E-03  0.741745104E+00
   H -0.373444786E+02  0.159508262E+01  0.535810137E+01
   H  0.361458166E+02 -0.114954949E+01 -0.557650287E+01
     4
 # iter = 70000  time[fs]=70.00000
   C -0.694748614E+01  0.507623075E-02 -0.396037975E+00
   C  0.665176334E+01  0.158587396E-03  0.749810753E+00
   H -0.377123649E+02  0.161082144E+01  0.541150623E+01
   H  0.365001649E+02 -0.116102461E+01 -0.563208918E+01
     4
 # iter = 70500  time[fs]=70.50000
   C -0.701857933E+01  0.488387228E-02 -0.400428227E+00
   C  0.671944379E+01  0.187591831E-03  0.757879973E+00
   H -0.380803091E+02  0.162656292E+01  0.546492034E+01
   H  0.368545737E+02 -0.117250185E+01 -0.568768635E+01
     4
 # iter = 71000  time[fs]=71.00000
   C -0.708970689E+01  0.469141767E-02 -0.404821850E+00
   C  0.678715844E+01  0.216648435E-03  0.765952695E+00
   H -0.384483103E+02  0.164230702E+01  0.551834355E+01
   H  0.372090417E+02 -0.118398119E+01 -0.574329415E+01
     4
 # iter = 71500  time[fs]=71.50000
   C -0.716086816E+01  0.449886800E-02 -0.409218780E+00
   C  0.685490659E+01  0.245756977E-03  0.774028851E+00
   H -0.388163674E+02  0.165805368E+01  0.557177567E+01
   H  0.375635679E+02 -0.119546256E+01 -0.579891241E+01
     4
 # iter = 72000  time[fs]=72.00000
   C -0.723206246E+01  0.430622431E-02 -0.413618954E+00
   C  0.692268758E+01  0.274917206E-03  0.782108377E+00
   H -0.391844792E+02  0.167380285E+01  0.562521654E+01
   H  0.379181513E+02 -0.120694595E+01 -0.585454093E+01
     4
 # iter = 72500  time[fs]=72.50000
   C -0.730328915E+01  0.411348768E-02 -0.418022310E+00
   C  0.699050077E+01  0.304128859E-03  0.790191209E+00
   H -0.395526447E+02  0.168955450E+01  0.567866600E+01
   H  0.382727906E+02 -0.121843131E+01 -0.591017951E+01
     4
 # iter = 73000  time[fs]=73.00000
   C -0.737454759E+01  0.392065913E-02 -0.422428791E+00
   C  0.705834552E+01  0.333391660E-03  0.798277285E+00
   H -0.399208631E+02  0.170530857E+01  0.573212390E+01
   H  0.386274849E+02 -0.122991860E+01 -0.596582798E+01
     4
 # iter = 73500  time[fs]=73.50000
   C -0.744583718E+01  0.372773971E-02 -0.426838337E+00
   C  0.712622125E+01  0.362705320E-03  0.806366546E+00
   H -0.402891332E+02  0.172106501E+01  0.578559008E+01
   H  0.389822332E+02 -0.124140779E+01 -0.602148615E+01
     4
 # iter = 74000  time[fs]=74.00000
   C -0.751715732E+01  0.353473044E-02 -0.431250892E+00
   C  0.719412734E+01  0.392069539E-03  0.814458933E+00
   H -0.406574542E+02  0.173682380E+01  0.583906438E+01
   H  0.393370345E+02 -0.125289885E+01 -0.607715387E+01
     4
 # iter = 74500  time[fs]=74.50000
   C -0.758850743E+01  0.334163234E-02 -0.435666402E+00
   C  0.726206323E+01  0.421484010E-03  0.822554390E+00
   H -0.410258252E+02  0.175258489E+01  0.589254668E+01
   H  0.396918879E+02 -0.126439174E+01 -0.613283094E+01
     4
 # iter = 75000  time[fs]=75.00000
   C -0.765988696E+01  0.314844642E-02 -0.440084813E+00
   C  0.733002837E+01  0.450948415E-03  0.830652861E+00
   H -0.413942452E+02  0.176834822E+01  0.594603682E+01
   H  0.400467925E+02 -0.127588644E+01 -0.618851723E+01
     4
 # iter = 75500  time[fs]=75.50000
   C -0.773129535E+01  0.295517366E-02 -0.444506074E+00
   C  0.739802219E+01  0.480462430E-03  0.838754293E+00
   H -0.417627134E+02  0.178411378E+01  0.599953468E+01
   H  0.404017472E+02 -0.128738290E+01 -0.624421255E+01
     4
 # iter = 76000  time[fs]=76.00000
   C -0.780273208E+01  0.276181506E-02 -0.448930134E+00
   C  0.746604419E+01  0.510025722E-03  0.846858633E+00
   H -0.421312290E+02  0.179988151E+01  0.605304011E+01
   H  0.407567513E+02 -0.129888110E+01 -0.629991677E+01
     4
 # iter = 76500  time[fs]=76.50000
   C -0.787419662E+01  0.256837159E-02 -0.453356945E+00
   C  0.753409384E+01  0.539637954E-03  0.854965831E+00
   H -0.424997911E+02  0.181565139E+01  0.610655299E+01
   H  0.411118040E+02 -0.131038101E+01 -0.635562972E+01
     4
 # iter = 77000  time[fs]=77.00000
   C -0.794568848E+01  0.237484420E-02 -0.457786457E+00
   C  0.760217064E+01  0.569298783E-03  0.863075836E+00
   H -0.428683989E+02  0.183142336E+01  0.616007319E+01
   H  0.414669043E+02 -0.132188260E+01 -0.641135126E+01
     4
 # iter = 77500  time[fs]=77.50000
   C -0.801720717E+01  0.218123386E-02 -0.462218624E+00
   C  0.767027411E+01  0.599007862E-03  0.871188601E+00
   H -0.432370517E+02  0.184719741E+01  0.621360058E+01
   H  0.418220514E+02 -0.133338585E+01 -0.646708124E+01
     4
 # iter = 78000  time[fs]=78.00000
   C -0.808875220E+01  0.198754149E-02 -0.466653401E+00
   C  0.773840377E+01  0.628764838E-03  0.879304077E+00
   H -0.436057486E+02  0.186297349E+01  0.626713506E+01
   H  0.421772447E+02 -0.134489071E+01 -0.652281953E+01
     4
 # iter = 78500  time[fs]=78.50000
   C -0.816032312E+01  0.179376803E-02 -0.471090744E+00
   C  0.780655916E+01  0.658569358E-03  0.887422220E+00
   H -0.439744891E+02  0.187875157E+01  0.632067649E+01
   H  0.425324832E+02 -0.135639718E+01 -0.657856599E+01
     4
 # iter = 79000  time[fs]=79.00000
   C -0.823191947E+01  0.159991440E-02 -0.475530609E+00
   C  0.787473983E+01  0.688421062E-03  0.895542985E+00
   H -0.443432722E+02  0.189453162E+01  0.637422477E+01
   H  0.428877663E+02 -0.136790521E+01 -0.663432048E+01
     4
 # iter = 79500  time[fs]=79.50000
   C -0.830354081E+01  0.140598149E-02 -0.479972954E+00
   C  0.794294534E+01  0.718319591E-03  0.903666326E+00
   H -0.447120974E+02  0.191031360E+01  0.642777978E+01
   H  0.432430932E+02 -0.137941479E+01 -0.669008287E+01
     4
 # iter = 80000  time[fs]=80.00000
   C -0.837518671E+01  0.121197022E-02 -0.484417738E+00
   C  0.801117526E+01  0.748264582E-03  0.911792203E+00
   H -0.450809639E+02  0.192609748E+01  0.648134141E+01
   H  0.435984632E+02 -0.139092590E+01 -0.674585304E+01
