     4
 # iter = 25000  time[fs]=25.00000
   C -0.990965672E+00  0.109138631E-01  0.858510007E-02
   C  0.975372806E+00 -0.285059284E-01 -0.222246419E-01
   H -0.518524293E+01  0.425657416E+00  0.647246567E+00
   H  0.527423167E+01 -0.318278131E+00 -0.585883226E+00
     4
 # iter = 25500  time[fs]=25.50000
   C -0.103730203E+01  0.938658734E-02  0.732824189E-02
   C  0.101813476E+01 -0.285452458E-01 -0.194069241E-01
   H -0.551585481E+01  0.451090937E+00  0.688852761E+00
   H  0.558877210E+01 -0.339011197E+00 -0.619009367E+00
     4
 # iter = 26000  time[fs]=26.00000
   C -0.108654838E+01  0.790430673E-02  0.609556061E-02
   C  0.106381103E+01 -0.286354353E-01 -0.166177101E-01
   H -0.584918388E+01  0.476764937E+00  0.730828317E+00
   H  0.590597779E+01 -0.359914219E+00 -0.652452948E+00
     4
 # iter = 26500  time[fs]=26.50000
   C -0.113845721E+01  0.645952856E-02  0.487880665E-02
   C  0.111215244E+01 -0.287681607E-01 -0.138481026E-01
   H -0.618492481E+01  0.502651770E+00  0.773131257E+00
   H  0.622556347E+01 -0.380969672E+00 -0.686179762E+00
     4
 # iter = 27000  time[fs]=27.00000
   C -0.119279916E+01  0.504590078E-02  0.367133608E-02
   C  0.116292840E+01 -0.289363879E-01 -0.110909372E-01
   H -0.652282011E+01  0.528728275E+00  0.815726348E+00
   H  0.654728643E+01 -0.402162581E+00 -0.720160824E+00
     4
 # iter = 27500  time[fs]=27.50000
   C -0.124936365E+01  0.365807869E-02  0.246787247E-02
   C  0.121592740E+01 -0.291342139E-01 -0.834051383E-02
   H -0.686265073E+01  0.554974861E+00  0.858583740E+00
   H  0.687093862E+01 -0.423480053E+00 -0.754371365E+00
     4
 # iter = 28000  time[fs]=28.00000
   C -0.130795865E+01  0.229158848E-02  0.126427967E-02
   C  0.127095674E+01 -0.293567031E-01 -0.559234790E-02
   H -0.720422886E+01  0.581374811E+00  0.901677923E+00
   H  0.719634043E+01 -0.444910913E+00 -0.788790057E+00
     4
 # iter = 28500  time[fs]=28.50000
   C -0.136840990E+01  0.942698108E-03  0.573574730E-04
   C  0.132784164E+01 -0.295997376E-01 -0.284294971E-02
   H -0.754739236E+01  0.607913749E+00  0.944986928E+00
   H  0.752333579E+01 -0.466445416E+00 -0.823398406E+00
     4
 # iter = 29000  time[fs]=29.00000
   C -0.143055977E+01 -0.391699264E-03 -0.115533529E-02
   C  0.138642411E+01 -0.298598852E-01 -0.896353187E-04
   H -0.789200033E+01  0.634579222E+00  0.988491703E+00
   H  0.785178827E+01 -0.488075012E+00 -0.858180272E+00
     4
 # iter = 29500  time[fs]=29.50000
   C -0.149426600E+01 -0.171418725E-02 -0.237563014E-02
   C  0.144656161E+01 -0.301342862E-01  0.266963199E-02
   H -0.823792956E+01  0.661360376E+00  0.103217562E+01
   H  0.818157798E+01 -0.509792162E+00 -0.893121490E+00
     4
 # iter = 30000  time[fs]=30.00000
   C -0.155940036E+01 -0.302691376E-02 -0.360487261E-02
   C  0.150812571E+01 -0.304205560E-01  0.543637254E-02
   H -0.858507176E+01  0.688247692E+00  0.107602408E+01
   H  0.851259904E+01 -0.531590185E+00 -0.928209557E+00
     4
 # iter = 30500  time[fs]=30.50000
   C -0.162584729E+01 -0.433166487E-02 -0.484402337E-02
   C  0.157100070E+01 -0.307167050E-01  0.821169689E-02
   H -0.893333125E+01  0.715232777E+00  0.112002419E+01
   H  0.884475745E+01 -0.553463132E+00 -0.963433386E+00
     4
 # iter = 31000  time[fs]=31.00000
   C -0.169350266E+01 -0.562992678E-02 -0.609374012E-02
   C  0.163508237E+01 -0.310210701E-01  0.109963921E-01
   H -0.928262310E+01  0.742308193E+00  0.116416453E+01
   H  0.917796948E+01 -0.575405686E+00 -0.998783098E+00
     4
 # iter = 31500  time[fs]=31.50000
   C -0.176227257E+01 -0.692293724E-02 -0.735444338E-02
   C  0.170027675E+01 -0.313322598E-01  0.137909910E-01
   H -0.963287160E+01  0.769467319E+00  0.120843491E+01
   H  0.951216014E+01 -0.597413074E+00 -0.103424986E+01
     4
 # iter = 32000  time[fs]=32.00000
   C -0.183207232E+01 -0.821172817E-02 -0.862636906E-02
   C  0.176649908E+01 -0.316491069E-01  0.165958274E-01
   H -0.998400895E+01  0.796704234E+00  0.125282621E+01
   H  0.984726211E+01 -0.619480995E+00 -0.106982572E+01
     4
 # iter = 32500  time[fs]=32.50000
   C -0.190282533E+01 -0.949716079E-02 -0.990961036E-02
   C  0.183367280E+01 -0.319706314E-01  0.194110807E-01
   H -0.103359742E+02  0.824013623E+00  0.129733024E+01
   H  0.101832147E+02 -0.641605562E+00 -0.110550353E+01
     4
 # iter = 33000  time[fs]=33.00000
   C -0.197446237E+01 -0.107799547E-01 -0.112041510E-01
   C  0.190172865E+01 -0.322960085E-01  0.222368102E-01
   H -0.106887126E+02  0.851390697E+00  0.134193963E+01
   H  0.105199629E+02 -0.663783248E+00 -0.114127681E+01
     4
 # iter = 33500  time[fs]=33.50000
   C -0.204692066E+01 -0.120607116E-01 -0.125098916E-01
   C  0.197060388E+01 -0.326245427E-01  0.250729836E-01
   H -0.110421742E+02  0.878831126E+00  0.138664767E+01
   H  0.108574571E+02 -0.686010847E+00 -0.117713968E+01
     4
 # iter = 34000  time[fs]=34.00000
   C -0.212014328E+01 -0.133399353E-01 -0.138266702E-01
   C  0.204024157E+01 -0.329556468E-01  0.279194986E-01
   H -0.113963141E+02  0.906330983E+00  0.143144832E+01
   H  0.111956518E+02 -0.708285433E+00 -0.121308679E+01
     4
 # iter = 34500  time[fs]=34.50000
   C -0.219407846E+01 -0.146180476E-01 -0.151542789E-01
   C  0.211058999E+01 -0.332888242E-01  0.307762004E-01
   H -0.117510912E+02  0.933886692E+00  0.147633603E+01
   H  0.115345056E+02 -0.730604327E+00 -0.124911326E+01
     4
 # iter = 35000  time[fs]=35.00000
   C -0.226867905E+01 -0.158954022E-01 -0.164924767E-01
   C  0.218160203E+01 -0.336236542E-01  0.336428957E-01
   H -0.121064679E+02  0.961494992E+00  0.152130578E+01
   H  0.118739808E+02 -0.752965077E+00 -0.128521461E+01
     4
 # iter = 35500  time[fs]=35.50000
   C -0.234390207E+01 -0.171722953E-01 -0.178409992E-01
   C  0.225323472E+01 -0.339597797E-01  0.365193628E-01
   H -0.124624101E+02  0.989152900E+00  0.156635294E+01
   H  0.122140426E+02 -0.775365424E+00 -0.132138673E+01
     4
 # iter = 36000  time[fs]=36.00000
   C -0.241970823E+01 -0.184489751E-01 -0.191995672E-01
   C  0.232544883E+01 -0.342968979E-01  0.394053611E-01
   H -0.128188862E+02  0.101685768E+01  0.161147326E+01
   H  0.125546591E+02 -0.797803289E+00 -0.135762586E+01
     4
 # iter = 36500  time[fs]=36.50000
   C -0.249606157E+01 -0.197256495E-01 -0.205678919E-01
   C  0.239820842E+01 -0.346347509E-01  0.423006367E-01
   H -0.131758674E+02  0.104460681E+01  0.165666286E+01
   H  0.128958009E+02 -0.820276752E+00 -0.139392850E+01
     4
 # iter = 37000  time[fs]=37.00000
   C -0.257292911E+01 -0.210024924E-01 -0.219456806E-01
   C  0.247148057E+01 -0.349731198E-01  0.452049283E-01
   H -0.135333269E+02  0.107239797E+01  0.170191814E+01
   H  0.132374408E+02 -0.842784035E+00 -0.143029144E+01
     4
 # iter = 37500  time[fs]=37.50000
   C -0.265028057E+01 -0.222796489E-01 -0.233326397E-01
   C  0.254523503E+01 -0.353118180E-01  0.481179711E-01
   H -0.138912401E+02  0.110022902E+01  0.174723576E+01
   H  0.135795538E+02 -0.865323493E+00 -0.146671170E+01
     4
 # iter = 38000  time[fs]=38.00000
   C -0.272808809E+01 -0.235572400E-01 -0.247284777E-01
   C  0.261944398E+01 -0.356506869E-01  0.510394998E-01
   H -0.142495843E+02  0.112809798E+01  0.179261266E+01
   H  0.139221165E+02 -0.887893594E+00 -0.150318652E+01
     4
 # iter = 38500  time[fs]=38.50000
   C -0.280632599E+01 -0.248353660E-01 -0.261329073E-01
   C  0.269408178E+01 -0.359895914E-01  0.539692510E-01
   H -0.146083383E+02  0.115600300E+01  0.183804598E+01
   H  0.142651073E+02 -0.910492916E+00 -0.153971333E+01
     4
 # iter = 39000  time[fs]=39.00000
   C -0.288497056E+01 -0.261141101E-01 -0.275456470E-01
   C  0.276912478E+01 -0.363284167E-01  0.569069651E-01
   H -0.149674825E+02  0.118394239E+01  0.188353306E+01
   H  0.146085062E+02 -0.933120131E+00 -0.157628974E+01
     4
 # iter = 39500  time[fs]=39.50000
   C -0.296399989E+01 -0.273935405E-01 -0.289664221E-01
   C  0.284455109E+01 -0.366670652E-01  0.598523874E-01
   H -0.153269987E+02  0.121191454E+01  0.192907144E+01
   H  0.149522943E+02 -0.955774000E+00 -0.161291351E+01
     4
 # iter = 40000  time[fs]=40.00000
   C -0.304339371E+01 -0.286737129E-01 -0.303949657E-01
   C  0.292034048E+01 -0.370054542E-01  0.628052694E-01
   H -0.156868698E+02  0.123991798E+01  0.197465880E+01
   H  0.152964542E+02 -0.978453366E+00 -0.164958257E+01
     4
 # iter = 40500  time[fs]=40.50000
   C -0.312313319E+01 -0.299546725E-01 -0.318310189E-01
   C  0.299647417E+01 -0.373435135E-01  0.657653694E-01
   H -0.160470799E+02  0.126795132E+01  0.202029301E+01
   H  0.156409696E+02 -0.100115714E+01 -0.168629496E+01
     4
 # iter = 41000  time[fs]=41.00000
   C -0.320320086E+01 -0.312364553E-01 -0.332743317E-01
   C  0.307293472E+01 -0.376811841E-01  0.687324530E-01
   H -0.164076143E+02  0.129601327E+01  0.206597203E+01
   H  0.159858251E+02 -0.102388432E+01 -0.172304887E+01
     4
 # iter = 41500  time[fs]=41.50000
   C -0.328358048E+01 -0.325190896E-01 -0.347246624E-01
   C  0.314970592E+01 -0.380184161E-01  0.717062930E-01
   H -0.167684589E+02  0.132410262E+01  0.211169399E+01
   H  0.163310065E+02 -0.104663393E+01 -0.175984257E+01
     4
 # iter = 42000  time[fs]=42.00000
   C -0.336425691E+01 -0.338025972E-01 -0.361817785E-01
   C  0.322677268E+01 -0.383551679E-01  0.746866703E-01
   H -0.171296008E+02  0.135221822E+01  0.215745711E+01
   H  0.166765001E+02 -0.106940509E+01 -0.179667446E+01
     4
 # iter = 42500  time[fs]=42.50000
   C -0.344521605E+01 -0.350869942E-01 -0.376454557E-01
   C  0.330412093E+01 -0.386914046E-01  0.776733733E-01
   H -0.174910278E+02  0.138035902E+01  0.220325974E+01
   H  0.170222935E+02 -0.109219695E+01 -0.183354303E+01
     4
 # iter = 43000  time[fs]=43.00000
   C -0.352644472E+01 -0.363722921E-01 -0.391154788E-01
   C  0.338173752E+01 -0.390270977E-01  0.806661982E-01
   H -0.178527283E+02  0.140852401E+01  0.224910031E+01
   H  0.173683747E+02 -0.111500870E+01 -0.187044685E+01
     4
 # iter = 43500  time[fs]=43.50000
   C -0.360793061E+01 -0.376584982E-01 -0.405916405E-01
   C  0.345961016E+01 -0.393622236E-01  0.836649486E-01
   H -0.182146915E+02  0.143671224E+01  0.229497734E+01
   H  0.177147325E+02 -0.113783961E+01 -0.190738458E+01
     4
 # iter = 44000  time[fs]=44.00000
   C -0.368966218E+01 -0.389456164E-01 -0.420737422E-01
   C  0.353772737E+01 -0.396967632E-01  0.866694358E-01
   H -0.185769072E+02  0.146492282E+01  0.234088945E+01
   H  0.180613563E+02 -0.116068897E+01 -0.194435495E+01
     4
 # iter = 44500  time[fs]=44.50000
   C -0.377162864E+01 -0.402336477E-01 -0.435615928E-01
   C  0.361607837E+01 -0.400307016E-01  0.896794783E-01
   H -0.189393659E+02  0.149315492E+01  0.238683532E+01
   H  0.184082361E+02 -0.118355609E+01 -0.198135676E+01
     4
 # iter = 45000  time[fs]=45.00000
   C -0.385381984E+01 -0.415225906E-01 -0.450550091E-01
   C  0.369465306E+01 -0.403640268E-01  0.926949016E-01
   H -0.193020583E+02  0.152140773E+01  0.243281372E+01
   H  0.187553626E+02 -0.120644035E+01 -0.201838887E+01
     4
 # iter = 45500  time[fs]=45.50000
   C -0.393622627E+01 -0.428124415E-01 -0.465538153E-01
   C  0.377344193E+01 -0.406967301E-01  0.957155381E-01
   H -0.196649760E+02  0.154968051E+01  0.247882348E+01
   H  0.191027267E+02 -0.122934114E+01 -0.205545022E+01
     4
 # iter = 46000  time[fs]=46.00000
   C -0.401883897E+01 -0.441031951E-01 -0.480578426E-01
   C  0.385243606E+01 -0.410288050E-01  0.987412268E-01
   H -0.200281108E+02  0.157797255E+01  0.252486348E+01
   H  0.194503200E+02 -0.125225790E+01 -0.209253979E+01
     4
 # iter = 46500  time[fs]=46.50000
   C -0.410164952E+01 -0.453948446E-01 -0.495669293E-01
   C  0.393162705E+01 -0.413602475E-01  0.101771813E+00
   H -0.203914550E+02  0.160628317E+01  0.257093267E+01
   H  0.197981346E+02 -0.127519008E+01 -0.212965661E+01
     4
 # iter = 47000  time[fs]=47.00000
   C -0.418464996E+01 -0.466873818E-01 -0.510809200E-01
   C  0.401100699E+01 -0.416910552E-01  0.104807148E+00
   H -0.207550014E+02  0.163461173E+01  0.261703005E+01
   H  0.201461627E+02 -0.129813716E+01 -0.216679976E+01
     4
 # iter = 47500  time[fs]=47.50000
   C -0.426783282E+01 -0.479807976E-01 -0.525996657E-01
   C  0.409056841E+01 -0.420212274E-01  0.107847090E+00
   H -0.211187429E+02  0.166295763E+01  0.266315468E+01
   H  0.204943972E+02 -0.132109867E+01 -0.220396838E+01
     4
 # iter = 48000  time[fs]=48.00000
   C -0.435119101E+01 -0.492750822E-01 -0.541230233E-01
   C  0.417030425E+01 -0.423507649E-01  0.110891501E+00
   H -0.214826731E+02  0.169132029E+01  0.270930566E+01
   H  0.208428313E+02 -0.134407413E+01 -0.224116163E+01
     4
 # iter = 48500  time[fs]=48.50000
   C -0.443471786E+01 -0.505702249E-01 -0.556508556E-01
   C  0.425020787E+01 -0.426796695E-01  0.113940250E+00
   H -0.218467856E+02  0.171969916E+01  0.275548213E+01
   H  0.211914583E+02 -0.136706310E+01 -0.227837873E+01
     4
 # iter = 49000  time[fs]=49.00000
   C -0.451840705E+01 -0.518662144E-01 -0.571830309E-01
   C  0.433027296E+01 -0.430079442E-01  0.116993211E+00
   H -0.222110746E+02  0.174809373E+01  0.280168327E+01
   H  0.215402721E+02 -0.139006515E+01 -0.231561892E+01
     4
 # iter = 49500  time[fs]=49.50000
   C -0.460225258E+01 -0.531630392E-01 -0.587194226E-01
   C  0.441049356E+01 -0.433355929E-01  0.120050261E+00
   H -0.225755343E+02  0.177650348E+01  0.284790830E+01
   H  0.218892668E+02 -0.141307989E+01 -0.235288149E+01
     4
 # iter = 50000  time[fs]=50.00000
   C -0.468624879E+01 -0.544606873E-01 -0.602599092E-01
   C  0.449086401E+01 -0.436626200E-01  0.123111285E+00
   H -0.229401594E+02  0.180492796E+01  0.289415649E+01
   H  0.222384366E+02 -0.143610693E+01 -0.239016576E+01
     4
 # iter = 50500  time[fs]=50.50000
   C -0.477039030E+01 -0.557591463E-01 -0.618043740E-01
   C  0.457137897E+01 -0.439890309E-01  0.126176169E+00
   H -0.233049447E+02  0.183336671E+01  0.294042713E+01
   H  0.225877763E+02 -0.145914590E+01 -0.242747106E+01
     4
 # iter = 51000  time[fs]=51.00000
   C -0.485467200E+01 -0.570584040E-01 -0.633527047E-01
   C  0.465203334E+01 -0.443148313E-01  0.129244807E+00
   H -0.236698854E+02  0.186181929E+01  0.298671954E+01
   H  0.229372807E+02 -0.148219645E+01 -0.246479679E+01
     4
 # iter = 51500  time[fs]=51.50000
   C -0.493908905E+01 -0.583584476E-01 -0.649047936E-01
   C  0.473282229E+01 -0.446400274E-01  0.132317094E+00
   H -0.240349766E+02  0.189028530E+01  0.303303308E+01
   H  0.232869448E+02 -0.150525825E+01 -0.250214233E+01
     4
 # iter = 52000  time[fs]=52.00000
   C -0.502363683E+01 -0.596592647E-01 -0.664605370E-01
   C  0.481374124E+01 -0.449646257E-01  0.135392930E+00
   H -0.244002141E+02  0.191876434E+01  0.307936712E+01
   H  0.236367640E+02 -0.152833096E+01 -0.253950713E+01
     4
 # iter = 52500  time[fs]=52.50000
   C -0.510831097E+01 -0.609608426E-01 -0.680198352E-01
   C  0.489478581E+01 -0.452886333E-01  0.138472220E+00
   H -0.247655933E+02  0.194725603E+01  0.312572109E+01
   H  0.239867338E+02 -0.155141429E+01 -0.257689063E+01
     4
 # iter = 53000  time[fs]=53.00000
   C -0.519310728E+01 -0.622631686E-01 -0.695825922E-01
   C  0.497595185E+01 -0.456120572E-01  0.141554871E+00
   H -0.251311103E+02  0.197576002E+01  0.317209441E+01
   H  0.243368498E+02 -0.157450794E+01 -0.261429230E+01
     4
 # iter = 53500  time[fs]=53.50000
   C -0.527802180E+01 -0.635662302E-01 -0.711487157E-01
   C  0.505723540E+01 -0.459349048E-01  0.144640794E+00
   H -0.254967612E+02  0.200427595E+01  0.321848654E+01
   H  0.246871079E+02 -0.159761163E+01 -0.265171166E+01
     4
 # iter = 54000  time[fs]=54.00000
   C -0.536305072E+01 -0.648700148E-01 -0.727181168E-01
   C  0.513863268E+01 -0.462571836E-01  0.147729903E+00
   H -0.258625421E+02  0.203280350E+01  0.326489696E+01
   H  0.250375043E+02 -0.162072508E+01 -0.268914821E+01
     4
 # iter = 54500  time[fs]=54.50000
   C -0.544819043E+01 -0.661745102E-01 -0.742907099E-01
   C  0.522014009E+01 -0.465789013E-01  0.150822116E+00
   H -0.262284496E+02  0.206134235E+01  0.331132518E+01
   H  0.253880350E+02 -0.164384803E+01 -0.272660150E+01
     4
 # iter = 55000  time[fs]=55.00000
   C -0.553343749E+01 -0.674797041E-01 -0.758664127E-01
   C  0.530175420E+01 -0.469000656E-01  0.153917352E+00
   H -0.265944800E+02  0.208989219E+01  0.335777072E+01
   H  0.257386965E+02 -0.166698024E+01 -0.276407107E+01
     4
 # iter = 55500  time[fs]=55.50000
   C -0.561878858E+01 -0.687855843E-01 -0.774451455E-01
   C  0.538347171E+01 -0.472206842E-01  0.157015536E+00
   H -0.269606301E+02  0.211845273E+01  0.340423312E+01
   H  0.260894852E+02 -0.169012145E+01 -0.280155651E+01
     4
 # iter = 56000  time[fs]=56.00000
   C -0.570424056E+01 -0.700921389E-01 -0.790268318E-01
   C  0.546528950E+01 -0.475407650E-01  0.160116593E+00
   H -0.273268967E+02  0.214702369E+01  0.345071193E+01
   H  0.264403979E+02 -0.171327145E+01 -0.283905741E+01
     4
 # iter = 56500  time[fs]=56.50000
   C -0.578979041E+01 -0.713993561E-01 -0.806113978E-01
   C  0.554720455E+01 -0.478603158E-01  0.163220452E+00
   H -0.276932767E+02  0.217560479E+01  0.349720674E+01
   H  0.267914312E+02 -0.173643001E+01 -0.287657336E+01
     4
 # iter = 57000  time[fs]=57.00000
   C -0.587543525E+01 -0.727072244E-01 -0.821987722E-01
   C  0.562921400E+01 -0.481793444E-01  0.166327044E+00
   H -0.280597673E+02  0.220419579E+01  0.354371713E+01
   H  0.271425821E+02 -0.175959691E+01 -0.291410400E+01
     4
 # iter = 57500  time[fs]=57.50000
   C -0.596117231E+01 -0.740157322E-01 -0.837888863E-01
   C  0.571131510E+01 -0.484978586E-01  0.169436303E+00
   H -0.284263655E+02  0.223279643E+01  0.359024271E+01
   H  0.274938476E+02 -0.178277194E+01 -0.295164895E+01
     4
 # iter = 58000  time[fs]=58.00000
   C -0.604699895E+01 -0.753248683E-01 -0.853816736E-01
   C  0.579350521E+01 -0.488158662E-01  0.172548164E+00
   H -0.287930686E+02  0.226140646E+01  0.363678311E+01
   H  0.278452248E+02 -0.180595491E+01 -0.298920787E+01
     4
 # iter = 58500  time[fs]=58.50000
   C -0.613291262E+01 -0.766346218E-01 -0.869770701E-01
   C  0.587578180E+01 -0.491333747E-01  0.175662565E+00
   H -0.291598741E+02  0.229002567E+01  0.368333797E+01
   H  0.281967110E+02 -0.182914563E+01 -0.302678041E+01
     4
 # iter = 59000  time[fs]=59.00000
   C -0.621891090E+01 -0.779449818E-01 -0.885750140E-01
   C  0.595814245E+01 -0.494503920E-01  0.178779447E+00
   H -0.295267793E+02  0.231865381E+01  0.372990692E+01
   H  0.285483035E+02 -0.185234392E+01 -0.306436625E+01
     4
 # iter = 59500  time[fs]=59.50000
   C -0.630499144E+01 -0.792559376E-01 -0.901754454E-01
   C  0.604058484E+01 -0.497669254E-01  0.181898751E+00
   H -0.298937820E+02  0.234729068E+01  0.377648964E+01
   H  0.288999997E+02 -0.187554958E+01 -0.310196507E+01
     4
 # iter = 60000  time[fs]=60.00000
   C -0.639115202E+01 -0.805674788E-01 -0.917783065E-01
   C  0.612310674E+01 -0.500829825E-01  0.185020422E+00
   H -0.302608796E+02  0.237593608E+01  0.382308579E+01
   H  0.292517971E+02 -0.189876246E+01 -0.313957657E+01
     4
 # iter = 60500  time[fs]=60.50000
   C -0.647739046E+01 -0.818795953E-01 -0.933835415E-01
   C  0.620570600E+01 -0.503985706E-01  0.188144405E+00
   H -0.306280700E+02  0.240458979E+01  0.386969507E+01
   H  0.296036934E+02 -0.192198238E+01 -0.317720046E+01
     4
 # iter = 61000  time[fs]=61.00000
   C -0.656370470E+01 -0.831922769E-01 -0.949910964E-01
   C  0.628838056E+01 -0.507136971E-01  0.191270648E+00
   H -0.309953509E+02  0.243325163E+01  0.391631716E+01
   H  0.299556863E+02 -0.194520918E+01 -0.321483645E+01
     4
 # iter = 61500  time[fs]=61.50000
   C -0.665009275E+01 -0.845055138E-01 -0.966009189E-01
   C  0.637112844E+01 -0.510283691E-01  0.194399101E+00
   H -0.313627203E+02  0.246192141E+01  0.396295178E+01
   H  0.303077734E+02 -0.196844272E+01 -0.325248427E+01
     4
 # iter = 62000  time[fs]=62.00000
   C -0.673655270E+01 -0.858192965E-01 -0.982129583E-01
   C  0.645394774E+01 -0.513425937E-01  0.197529715E+00
   H -0.317301762E+02  0.249059895E+01  0.400959865E+01
   H  0.306599527E+02 -0.199168283E+01 -0.329014365E+01
     4
 # iter = 62500  time[fs]=62.50000
   C -0.682308270E+01 -0.871336155E-01 -0.998271658E-01
   C  0.653683662E+01 -0.516563779E-01  0.200662441E+00
   H -0.320977165E+02  0.251928407E+01  0.405625748E+01
   H  0.310122221E+02 -0.201492938E+01 -0.332781434E+01
     4
 # iter = 63000  time[fs]=63.00000
   C -0.690968097E+01 -0.884484616E-01 -0.101443494E+00
   C  0.661979332E+01 -0.519697285E-01  0.203797234E+00
   H -0.324653393E+02  0.254797661E+01  0.410292801E+01
   H  0.313645796E+02 -0.203818223E+01 -0.336549609E+01
     4
 # iter = 63500  time[fs]=63.50000
   C -0.699634581E+01 -0.897638257E-01 -0.103061897E+00
   C  0.670281613E+01 -0.522826524E-01  0.206934050E+00
   H -0.328330429E+02  0.257667641E+01  0.414961000E+01
   H  0.317170232E+02 -0.206144123E+01 -0.340318866E+01
     4
 # iter = 64000  time[fs]=64.00000
   C -0.708307557E+01 -0.910796990E-01 -0.104682330E+00
   C  0.678590342E+01 -0.525951562E-01  0.210072845E+00
   H -0.332008254E+02  0.260538330E+01  0.419630318E+01
   H  0.320695511E+02 -0.208470626E+01 -0.344089181E+01
     4
 # iter = 64500  time[fs]=64.50000
   C -0.716986866E+01 -0.923960729E-01 -0.106304750E+00
   C  0.686905360E+01 -0.529072464E-01  0.213213577E+00
   H -0.335686852E+02  0.263409714E+01  0.424300733E+01
   H  0.324221614E+02 -0.210797719E+01 -0.347860534E+01
     4
 # iter = 65000  time[fs]=65.00000
   C -0.725672355E+01 -0.937129389E-01 -0.107929116E+00
   C  0.695226516E+01 -0.532189294E-01  0.216356207E+00
   H -0.339366205E+02  0.266281777E+01  0.428972220E+01
   H  0.327748524E+02 -0.213125390E+01 -0.351632901E+01
     4
 # iter = 65500  time[fs]=65.50000
   C -0.734363875E+01 -0.950302886E-01 -0.109555386E+00
   C  0.703553662E+01 -0.535302116E-01  0.219500694E+00
   H -0.343046297E+02  0.269154505E+01  0.433644757E+01
   H  0.331276223E+02 -0.215453626E+01 -0.355406262E+01
     4
 # iter = 66000  time[fs]=66.00000
   C -0.743061286E+01 -0.963481141E-01 -0.111183522E+00
   C  0.711886657E+01 -0.538410992E-01  0.222647001E+00
   H -0.346727114E+02  0.272027885E+01  0.438318323E+01
   H  0.334804695E+02 -0.217782417E+01 -0.359180596E+01
     4
 # iter = 66500  time[fs]=66.50000
   C -0.751764447E+01 -0.976664073E-01 -0.112813486E+00
   C  0.720225363E+01 -0.541515982E-01  0.225795090E+00
   H -0.350408639E+02  0.274901903E+01  0.442992897E+01
   H  0.338333925E+02 -0.220111750E+01 -0.362955883E+01
     4
 # iter = 67000  time[fs]=67.00000
   C -0.760473228E+01 -0.989851605E-01 -0.114445240E+00
   C  0.728569648E+01 -0.544617147E-01  0.228944926E+00
   H -0.354090859E+02  0.277776546E+01  0.447668457E+01
   H  0.341863896E+02 -0.222441616E+01 -0.366732105E+01
     4
 # iter = 67500  time[fs]=67.50000
   C -0.769187498E+01 -0.100304366E+00 -0.116078748E+00
   C  0.736919384E+01 -0.547714546E-01  0.232096473E+00
   H -0.357773758E+02  0.280651802E+01  0.452344985E+01
   H  0.345394594E+02 -0.224772003E+01 -0.370509242E+01
     4
 # iter = 68000  time[fs]=68.00000
   C -0.777907133E+01 -0.101624017E+00 -0.117713976E+00
   C  0.745274447E+01 -0.550808236E-01  0.235249698E+00
   H -0.361457324E+02  0.283527657E+01  0.457022460E+01
   H  0.348926003E+02 -0.227102902E+01 -0.374287277E+01
     4
 # iter = 68500  time[fs]=68.50000
   C -0.786632014E+01 -0.102944105E+00 -0.119350890E+00
   C  0.753634718E+01 -0.553898273E-01  0.238404568E+00
   H -0.365141543E+02  0.286404101E+01  0.461700865E+01
   H  0.352458111E+02 -0.229434301E+01 -0.378066192E+01
     4
 # iter = 69000  time[fs]=69.00000
   C -0.795362024E+01 -0.104264624E+00 -0.120989457E+00
   C  0.762000081E+01 -0.556984713E-01  0.241561051E+00
   H -0.368826401E+02  0.289281121E+01  0.466380180E+01
   H  0.355990902E+02 -0.231766193E+01 -0.381845970E+01
     4
 # iter = 69500  time[fs]=69.50000
   C -0.804097050E+01 -0.105585566E+00 -0.122629645E+00
   C  0.770370425E+01 -0.560067611E-01  0.244719116E+00
   H -0.372511887E+02  0.292158708E+01  0.471060389E+01
   H  0.359524364E+02 -0.234098566E+01 -0.385626595E+01
     4
 # iter = 70000  time[fs]=70.00000
   C -0.812836983E+01 -0.106906926E+00 -0.124271423E+00
   C  0.778745641E+01 -0.563147020E-01  0.247878733E+00
   H -0.376197988E+02  0.295036848E+01  0.475741474E+01
   H  0.363058484E+02 -0.236431413E+01 -0.389408050E+01
     4
 # iter = 70500  time[fs]=70.50000
   C -0.821581719E+01 -0.108228695E+00 -0.125914760E+00
   C  0.787125623E+01 -0.566222993E-01  0.251039872E+00
   H -0.379884693E+02  0.297915533E+01  0.480423418E+01
   H  0.366593248E+02 -0.238764724E+01 -0.393190319E+01
     4
 # iter = 71000  time[fs]=71.00000
   C -0.830331154E+01 -0.109550868E+00 -0.127559628E+00
   C  0.795510271E+01 -0.569295581E-01  0.254202504E+00
   H -0.383571989E+02  0.300794752E+01  0.485106206E+01
   H  0.370128646E+02 -0.241098491E+01 -0.396973388E+01
     4
 # iter = 71500  time[fs]=71.50000
   C -0.839085189E+01 -0.110873439E+00 -0.129205997E+00
   C  0.803899486E+01 -0.572364834E-01  0.257366603E+00
   H -0.387259865E+02  0.303674494E+01  0.489789822E+01
   H  0.373664664E+02 -0.243432704E+01 -0.400757242E+01
     4
 # iter = 72000  time[fs]=72.00000
   C -0.847843730E+01 -0.112196400E+00 -0.130853841E+00
   C  0.812293173E+01 -0.575430802E-01  0.260532141E+00
   H -0.390948311E+02  0.306554751E+01  0.494474250E+01
   H  0.377201292E+02 -0.245767357E+01 -0.404541867E+01
     4
 # iter = 72500  time[fs]=72.50000
   C -0.856606682E+01 -0.113519747E+00 -0.132503131E+00
   C  0.820691239E+01 -0.578493534E-01  0.263699091E+00
   H -0.394637317E+02  0.309435512E+01  0.499159476E+01
   H  0.380738518E+02 -0.248102441E+01 -0.408327248E+01
     4
 # iter = 73000  time[fs]=73.00000
   C -0.865373955E+01 -0.114843472E+00 -0.134153842E+00
   C  0.829093594E+01 -0.581553076E-01  0.266867429E+00
   H -0.398326871E+02  0.312316769E+01  0.503845485E+01
   H  0.384276331E+02 -0.250437949E+01 -0.412113372E+01
     4
 # iter = 73500  time[fs]=73.50000
   C -0.874145462E+01 -0.116167571E+00 -0.135805948E+00
   C  0.837500151E+01 -0.584609476E-01  0.270037128E+00
   H -0.402016964E+02  0.315198513E+01  0.508532262E+01
   H  0.387814721E+02 -0.252773872E+01 -0.415900225E+01
     4
 # iter = 74000  time[fs]=74.00000
   C -0.882921118E+01 -0.117492037E+00 -0.137459424E+00
   C  0.845910826E+01 -0.587662780E-01  0.273208166E+00
   H -0.405707586E+02  0.318080734E+01  0.513219796E+01
   H  0.391353677E+02 -0.255110204E+01 -0.419687795E+01
     4
 # iter = 74500  time[fs]=74.50000
   C -0.891700840E+01 -0.118816865E+00 -0.139114246E+00
   C  0.854325536E+01 -0.590713032E-01  0.276380518E+00
   H -0.409398727E+02  0.320963425E+01  0.517908071E+01
   H  0.394893189E+02 -0.257446938E+01 -0.423476070E+01
     4
 # iter = 75000  time[fs]=75.00000
   C -0.900484548E+01 -0.120142049E+00 -0.140770390E+00
   C  0.862744203E+01 -0.593760277E-01  0.279554161E+00
   H -0.413090379E+02  0.323846577E+01  0.522597076E+01
   H  0.398433248E+02 -0.259784066E+01 -0.427265036E+01
     4
 # iter = 75500  time[fs]=75.50000
   C -0.909272164E+01 -0.121467584E+00 -0.142427833E+00
   C  0.871166749E+01 -0.596804557E-01  0.282729073E+00
   H -0.416782532E+02  0.326730182E+01  0.527286796E+01
   H  0.401973843E+02 -0.262121582E+01 -0.431054683E+01
     4
 # iter = 76000  time[fs]=76.00000
   C -0.918063614E+01 -0.122793465E+00 -0.144086553E+00
   C  0.879593099E+01 -0.599845915E-01  0.285905232E+00
   H -0.420475178E+02  0.329614233E+01  0.531977222E+01
   H  0.405514966E+02 -0.264459479E+01 -0.434844998E+01
     4
 # iter = 76500  time[fs]=76.50000
   C -0.926858822E+01 -0.124119686E+00 -0.145746528E+00
   C  0.888023179E+01 -0.602884392E-01  0.289082617E+00
   H -0.424168308E+02  0.332498721E+01  0.536668339E+01
   H  0.409056607E+02 -0.266797751E+01 -0.438635971E+01
     4
 # iter = 77000  time[fs]=77.00000
   C -0.935657719E+01 -0.125446243E+00 -0.147407735E+00
   C  0.896456919E+01 -0.605920030E-01  0.292261206E+00
   H -0.427861913E+02  0.335383640E+01  0.541360136E+01
   H  0.412598757E+02 -0.269136391E+01 -0.442427590E+01
     4
 # iter = 77500  time[fs]=77.50000
   C -0.944460234E+01 -0.126773130E+00 -0.149070156E+00
   C  0.904894250E+01 -0.608952867E-01  0.295440980E+00
   H -0.431555987E+02  0.338268982E+01  0.546052603E+01
   H  0.416141409E+02 -0.271475394E+01 -0.446219844E+01
     4
 # iter = 78000  time[fs]=78.00000
   C -0.953266301E+01 -0.128100344E+00 -0.150733769E+00
   C  0.913335105E+01 -0.611982944E-01  0.298621919E+00
   H -0.435250520E+02  0.341154739E+01  0.550745727E+01
   H  0.419684552E+02 -0.273814753E+01 -0.450012723E+01
     4
 # iter = 78500  time[fs]=78.50000
   C -0.962075853E+01 -0.129427878E+00 -0.152398554E+00
   C  0.921779419E+01 -0.615010299E-01  0.301804004E+00
   H -0.438945505E+02  0.344040906E+01  0.555439499E+01
   H  0.423228181E+02 -0.276154462E+01 -0.453806217E+01
     4
 # iter = 79000  time[fs]=79.00000
   C -0.970888826E+01 -0.130755729E+00 -0.154064492E+00
   C  0.930227128E+01 -0.618034969E-01  0.304987215E+00
   H -0.442640935E+02  0.346927476E+01  0.560133907E+01
   H  0.426772285E+02 -0.278494517E+01 -0.457600315E+01
     4
 # iter = 79500  time[fs]=79.50000
   C -0.979705159E+01 -0.132083891E+00 -0.155731565E+00
   C  0.938678170E+01 -0.621056992E-01  0.308171534E+00
   H -0.446336802E+02  0.349814441E+01  0.564828941E+01
   H  0.430316858E+02 -0.280834911E+01 -0.461395009E+01
     4
 # iter = 80000  time[fs]=80.00000
   C -0.988524791E+01 -0.133412361E+00 -0.157399753E+00
   C  0.947132486E+01 -0.624076403E-01  0.311356944E+00
   H -0.450033100E+02  0.352701796E+01  0.569524591E+01
   H  0.433861893E+02 -0.283175639E+01 -0.465190288E+01
