     4
 # iter = 25000  time[fs]=25.00000
   C -0.993375738E+00  0.378244218E-01 -0.506020433E-01
   C  0.105211927E+01 -0.220716581E-01  0.228722550E-01
   H -0.526198593E+01  0.102432806E+00  0.633151531E+00
   H  0.542394393E+01  0.442115170E+00 -0.671956021E+00
     4
 # iter = 25500  time[fs]=25.50000
   C -0.104200342E+01  0.382342992E-01 -0.533577223E-01
   C  0.110097202E+01 -0.240624848E-01  0.262028892E-01
   H -0.559554585E+01  0.107344408E+00  0.676213791E+00
   H  0.574325496E+01  0.470473465E+00 -0.714564263E+00
     4
 # iter = 26000  time[fs]=26.00000
   C -0.109369174E+01  0.387293116E-01 -0.562451676E-01
   C  0.115289425E+01 -0.261592394E-01  0.296639300E-01
   H -0.593174592E+01  0.112287003E+00  0.719640927E+00
   H  0.606509993E+01  0.499050281E+00 -0.757521064E+00
     4
 # iter = 26500  time[fs]=26.50000
   C -0.114816737E+01  0.393013099E-01 -0.592552192E-01
   C  0.120761047E+01 -0.283516231E-01  0.332466125E-01
   H -0.627029183E+01  0.117257028E+00  0.763392540E+00
   H  0.638921076E+01  0.527823385E+00 -0.800790766E+00
     4
 # iter = 27000  time[fs]=27.00000
   C -0.120517946E+01  0.399429210E-01 -0.623791452E-01
   C  0.126486813E+01 -0.306304312E-01  0.369425028E-01
   H -0.661093514E+01  0.122251484E+00  0.807434629E+00
   H  0.671535902E+01  0.556773798E+00 -0.844342946E+00
     4
 # iter = 27500  time[fs]=27.50000
   C -0.126449966E+01  0.406475153E-01 -0.656087064E-01
   C  0.132443762E+01 -0.329874609E-01  0.407435885E-01
   H -0.695346427E+01  0.127267823E+00  0.851738301E+00
   H  0.704334857E+01  0.585885189E+00 -0.888151431E+00
     4
 # iter = 28000  time[fs]=28.00000
   C -0.132592136E+01  0.414091575E-01 -0.689361944E-01
   C  0.138611132E+01 -0.354154149E-01  0.446423345E-01
   H -0.729769766E+01  0.132303863E+00  0.896278795E+00
   H  0.737300982E+01  0.615143397E+00 -0.932193540E+00
     4
 # iter = 28500  time[fs]=28.50000
   C -0.138925831E+01  0.422225478E-01 -0.723544450E-01
   C  0.144970220E+01 -0.379078074E-01  0.486317103E-01
   H -0.764347839E+01  0.137357726E+00  0.941034723E+00
   H  0.770419523E+01  0.644536063E+00 -0.976449490E+00
     4
 # iter = 29000  time[fs]=29.00000
   C -0.145434310E+01  0.430829617E-01 -0.758568339E-01
   C  0.151504225E+01 -0.404588732E-01  0.527051949E-01
   H -0.799066999E+01  0.142427784E+00  0.985987485E+00
   H  0.803677567E+01  0.674052336E+00 -0.102090192E+01
     4
 # iter = 29500  time[fs]=29.50000
   C -0.152102545E+01  0.439861891E-01 -0.794372601E-01
   C  0.158198069E+01 -0.430634858E-01  0.568567670E-01
   H -0.833915303E+01  0.147512615E+00  0.103112080E+01
   H  0.837063749E+01  0.703682631E+00 -0.106553551E+01
     4
 # iter = 30000  time[fs]=30.00000
   C -0.158917055E+01  0.449284785E-01 -0.830901200E-01
   C  0.165038234E+01 -0.457170808E-01  0.610808847E-01
   H -0.868882244E+01  0.152610974E+00  0.107642034E+01
   H  0.870568023E+01  0.733418444E+00 -0.111033666E+01
     4
 # iter = 30500  time[fs]=30.50000
   C -0.165865745E+01  0.459064839E-01 -0.868102762E-01
   C  0.172012594E+01 -0.484155890E-01  0.653724585E-01
   H -0.903958533E+01  0.157721762E+00  0.112187343E+01
   H  0.904181461E+01  0.763252193E+00 -0.115529327E+01
     4
 # iter = 31000  time[fs]=31.00000
   C -0.172937757E+01  0.469172183E-01 -0.905930252E-01
   C  0.179110267E+01 -0.511553762E-01  0.697268212E-01
   H -0.939135918E+01  0.162844009E+00  0.116746878E+01
   H  0.937896100E+01  0.793177087E+00 -0.120039451E+01
     4
 # iter = 31500  time[fs]=31.50000
   C -0.180123336E+01  0.479580106E-01 -0.944340623E-01
   C  0.186321480E+01 -0.539331908E-01  0.741396963E-01
   H -0.974407035E+01  0.167976847E+00  0.121319632E+01
   H  0.971704805E+01  0.823187021E+00 -0.124563062E+01
     4
 # iter = 32000  time[fs]=32.00000
   C -0.187413707E+01  0.490264685E-01 -0.983294492E-01
   C  0.193637441E+01 -0.567461169E-01  0.786071665E-01
   H -0.100976529E+02  0.173119507E+00  0.125904701E+01
   H  0.100560116E+02  0.853276485E+00 -0.129099284E+01
     4
 # iter = 32500  time[fs]=32.50000
   C -0.194800961E+01  0.501204455E-01 -0.102275582E+00
   C  0.201050231E+01 -0.595915346E-01  0.831256431E-01
   H -0.104520476E+02  0.178271294E+00  0.130501272E+01
   H  0.103957938E+02  0.883440490E+00 -0.133647320E+01
     4
 # iter = 33000  time[fs]=33.00000
   C -0.202277963E+01  0.512380117E-01 -0.106269159E+00
   C  0.208552705E+01 -0.624670842E-01  0.876918370E-01
   H -0.108072008E+02  0.183431586E+00  0.135108610E+01
   H  0.107363423E+02  0.913674504E+00 -0.138206449E+01
     4
 # iter = 33500  time[fs]=33.50000
   C -0.209838262E+01  0.523774283E-01 -0.110307158E+00
   C  0.216138405E+01 -0.653706360E-01  0.923027319E-01
   H -0.111630641E+02  0.188599820E+00  0.139726048E+01
   H  0.110776094E+02  0.943974397E+00 -0.142776013E+01
     4
 # iter = 34000  time[fs]=34.00000
   C -0.217476016E+01  0.535371256E-01 -0.114386805E+00
   C  0.223801483E+01 -0.683002633E-01  0.969555591E-01
   H -0.115195936E+02  0.193775487E+00  0.144352978E+01
   H  0.114195519E+02  0.974336395E+00 -0.147355413E+01
     4
 # iter = 34500  time[fs]=34.50000
   C -0.225185923E+01  0.547156834E-01 -0.118505552E+00
   C  0.231536633E+01 -0.712542192E-01  0.101647775E+00
   H -0.118767492E+02  0.198958125E+00  0.148988848E+01
   H  0.117621301E+02  0.100475704E+01 -0.151944097E+01
     4
 # iter = 35000  time[fs]=35.00000
   C -0.232963164E+01  0.559118143E-01 -0.122661060E+00
   C  0.239339034E+01 -0.742309164E-01  0.106377040E+00
   H -0.122344943E+02  0.204147311E+00  0.153633153E+01
   H  0.121053079E+02  0.103523316E+01 -0.156541561E+01
     4
 # iter = 35500  time[fs]=35.50000
   C -0.240803350E+01  0.571243484E-01 -0.126851175E+00
   C  0.247204294E+01 -0.772289094E-01  0.111141198E+00
   H -0.125927954E+02  0.209342661E+00  0.158285426E+01
   H  0.124490521E+02  0.106576182E+01 -0.161147339E+01
     4
 # iter = 36000  time[fs]=36.00000
   C -0.248702475E+01  0.583522208E-01 -0.131073910E+00
   C  0.255128405E+01 -0.802468789E-01  0.115938264E+00
   H -0.129516217E+02  0.214543822E+00  0.162945243E+01
   H  0.127933320E+02  0.109634033E+01 -0.165761004E+01
     4
 # iter = 36500  time[fs]=36.50000
   C -0.256656879E+01  0.595944602E-01 -0.135327435E+00
   C  0.263107707E+01 -0.832836186E-01  0.120766403E+00
   H -0.133109450E+02  0.219750470E+00  0.167612209E+01
   H  0.131381194E+02  0.112696619E+01 -0.170382159E+01
     4
 # iter = 37000  time[fs]=37.00000
   C -0.264663206E+01  0.608501787E-01 -0.139610057E+00
   C  0.271138843E+01 -0.863380231E-01  0.125623920E+00
   H -0.136707393E+02  0.224962309E+00  0.172285961E+01
   H  0.134833884E+02  0.115763708E+01 -0.175010436E+01
     4
 # iter = 37500  time[fs]=37.50000
   C -0.272718379E+01  0.621185630E-01 -0.143920210E+00
   C  0.279218737E+01 -0.894090774E-01  0.130509244E+00
   H -0.140309803E+02  0.230179063E+00  0.176966163E+01
   H  0.138291148E+02  0.118835088E+01 -0.179645495E+01
     4
 # iter = 38000  time[fs]=38.00000
   C -0.280819570E+01  0.633988670E-01 -0.148256444E+00
   C  0.287344562E+01 -0.924958478E-01  0.135420921E+00
   H -0.143916458E+02  0.235400478E+00  0.181652503E+01
   H  0.141752762E+02  0.121910556E+01 -0.184287019E+01
     4
 # iter = 38500  time[fs]=38.50000
   C -0.288964175E+01  0.646904049E-01 -0.152617413E+00
   C  0.295513711E+01 -0.955974739E-01  0.140357601E+00
   H -0.147527151E+02  0.240626321E+00  0.186344692E+01
   H  0.145218520E+02  0.124989928E+01 -0.188934713E+01
     4
 # iter = 39000  time[fs]=39.00000
   C -0.297149790E+01  0.659925451E-01 -0.157001867E+00
   C  0.303723786E+01 -0.987131613E-01  0.145318028E+00
   H -0.151141690E+02  0.245856373E+00  0.191042460E+01
   H  0.148688226E+02  0.128073030E+01 -0.193588302E+01
     4
 # iter = 39500  time[fs]=39.50000
   C -0.305374196E+01  0.673047049E-01 -0.161408642E+00
   C  0.311972566E+01 -0.101842175E+00  0.150301035E+00
   H -0.154759895E+02  0.251090433E+00  0.195745555E+01
   H  0.152161703E+02  0.131159700E+01 -0.198247527E+01
     4
 # iter = 40000  time[fs]=40.00000
   C -0.313635340E+01  0.686263461E-01 -0.165836656E+00
   C  0.320257999E+01 -0.104983835E+00  0.155305535E+00
   H -0.158381601E+02  0.256328312E+00  0.200453743E+01
   H  0.155638780E+02  0.134249785E+01 -0.202912149E+01
     4
 # iter = 40500  time[fs]=40.50000
   C -0.321931319E+01  0.699569703E-01 -0.170284900E+00
   C  0.328578184E+01 -0.108137510E+00  0.160330511E+00
   H -0.162006651E+02  0.261569834E+00  0.205166805E+01
   H  0.159119301E+02  0.137343144E+01 -0.207581942E+01
     4
 # iter = 41000  time[fs]=41.00000
   C -0.330260365E+01  0.712961156E-01 -0.174752430E+00
   C  0.336931356E+01 -0.111302612E+00  0.165375016E+00
   H -0.165634900E+02  0.266814837E+00  0.209884534E+01
   H  0.162603119E+02  0.140439642E+01 -0.212256693E+01
     4
 # iter = 41500  time[fs]=41.50000
   C -0.338620837E+01  0.726433533E-01 -0.179238364E+00
   C  0.345315872E+01 -0.114478595E+00  0.170438163E+00
   H -0.169266211E+02  0.272063166E+00  0.214606739E+01
   H  0.166090095E+02  0.143539154E+01 -0.216936205E+01
     4
 # iter = 42000  time[fs]=42.00000
   C -0.347011207E+01  0.739982845E-01 -0.183741878E+00
   C  0.353730208E+01 -0.117664950E+00  0.175519122E+00
   H -0.172900456E+02  0.277314680E+00  0.219333238E+01
   H  0.169580099E+02  0.146641562E+01 -0.221620289E+01
     4
 # iter = 42500  time[fs]=42.50000
   C -0.355430049E+01  0.753605381E-01 -0.188262199E+00
   C  0.362172939E+01 -0.120861202E+00  0.180617114E+00
   H -0.176537515E+02  0.282569242E+00  0.224063860E+01
   H  0.173073011E+02  0.149746754E+01 -0.226308770E+01
     4
 # iter = 43000  time[fs]=43.00000
   C -0.363876034E+01  0.767297679E-01 -0.192798601E+00
   C  0.370642737E+01 -0.124066907E+00  0.185731411E+00
   H -0.180177275E+02  0.287826728E+00  0.228798445E+01
   H  0.176568715E+02  0.152854626E+01 -0.231001480E+01
     4
 # iter = 43500  time[fs]=43.50000
   C -0.372347919E+01  0.781056505E-01 -0.197350403E+00
   C  0.379138361E+01 -0.127281648E+00  0.190861325E+00
   H -0.183819631E+02  0.293087019E+00  0.233536843E+01
   H  0.180067102E+02  0.155965078E+01 -0.235698263E+01
     4
 # iter = 44000  time[fs]=44.00000
   C -0.380844541E+01  0.794878840E-01 -0.201916966E+00
   C  0.387658649E+01 -0.130505036E+00  0.196006211E+00
   H -0.187464481E+02  0.298350002E+00  0.238278909E+01
   H  0.183568072E+02  0.159078015E+01 -0.240398971E+01
     4
 # iter = 44500  time[fs]=44.50000
   C -0.389364810E+01  0.808761854E-01 -0.206497685E+00
   C  0.396202513E+01 -0.133736706E+00  0.201165462E+00
   H -0.191111731E+02  0.303615574E+00  0.243024511E+01
   H  0.187071527E+02  0.162193350E+01 -0.245103462E+01
     4
 # iter = 45000  time[fs]=45.00000
   C -0.397907705E+01  0.822702896E-01 -0.211091995E+00
   C  0.404768933E+01 -0.136976313E+00  0.206338505E+00
   H -0.194761291E+02  0.308883635E+00  0.247773520E+01
   H  0.190577376E+02  0.165310999E+01 -0.249811603E+01
     4
 # iter = 45500  time[fs]=45.50000
   C -0.406472265E+01  0.836699478E-01 -0.215699358E+00
   C  0.413356950E+01 -0.140223535E+00  0.211524801E+00
   H -0.198413079E+02  0.314154091E+00  0.252525815E+01
   H  0.194085534E+02  0.168430880E+01 -0.254523269E+01
     4
 # iter = 46000  time[fs]=46.00000
   C -0.415057589E+01  0.850749265E-01 -0.220319270E+00
   C  0.421965664E+01 -0.143478068E+00  0.216723839E+00
   H -0.202067012E+02  0.319426854E+00  0.257281282E+01
   H  0.197595918E+02  0.171552920E+01 -0.259238340E+01
     4
 # iter = 46500  time[fs]=46.50000
   C -0.423662827E+01  0.864850058E-01 -0.224951253E+00
   C  0.430594226E+01 -0.146739625E+00  0.221935139E+00
   H -0.205723016E+02  0.324701840E+00  0.262039812E+01
   H  0.201108452E+02  0.174677045E+01 -0.263956701E+01
     4
 # iter = 47000  time[fs]=47.00000
   C -0.432287179E+01  0.878999788E-01 -0.229594856E+00
   C  0.439241839E+01 -0.150007935E+00  0.227158243E+00
   H -0.209381020E+02  0.329978969E+00  0.266801303E+01
   H  0.204623061E+02  0.177803187E+01 -0.268678245E+01
     4
 # iter = 47500  time[fs]=47.50000
   C -0.440929891E+01  0.893196506E-01 -0.234249651E+00
   C  0.447907749E+01 -0.153282744E+00  0.232392720E+00
   H -0.213040953E+02  0.335258168E+00  0.271565656E+01
   H  0.208139676E+02  0.180931282E+01 -0.273402869E+01
     4
 # iter = 48000  time[fs]=48.00000
   C -0.449590250E+01  0.907438373E-01 -0.238915234E+00
   C  0.456591245E+01 -0.156563809E+00  0.237638161E+00
   H -0.216702753E+02  0.340539363E+00  0.276332779E+01
   H  0.211658230E+02  0.184061266E+01 -0.278130474E+01
     4
 # iter = 48500  time[fs]=48.50000
   C -0.458267584E+01  0.921723651E-01 -0.243591219E+00
   C  0.465291656E+01 -0.159850901E+00  0.242894178E+00
   H -0.220366358E+02  0.345822489E+00  0.281102582E+01
   H  0.215178661E+02  0.187193082E+01 -0.282860968E+01
     4
 # iter = 49000  time[fs]=49.00000
   C -0.466961256E+01  0.936050698E-01 -0.248277243E+00
   C  0.474008347E+01 -0.163143806E+00  0.248160404E+00
   H -0.224031708E+02  0.351107479E+00  0.285874981E+01
   H  0.218700908E+02  0.190326673E+01 -0.287594261E+01
     4
 # iter = 49500  time[fs]=49.50000
   C -0.475670663E+01  0.950417960E-01 -0.252972959E+00
   C  0.482740715E+01 -0.166442316E+00  0.253436487E+00
   H -0.227698748E+02  0.356394274E+00  0.290649896E+01
   H  0.222224914E+02  0.193461985E+01 -0.292330268E+01
     4
 # iter = 50000  time[fs]=50.00000
   C -0.484395235E+01  0.964823969E-01 -0.257678040E+00
   C  0.491488192E+01 -0.169746237E+00  0.258722096E+00
   H -0.231367425E+02  0.361682814E+00  0.295427250E+01
   H  0.225750624E+02  0.196598966E+01 -0.297068908E+01
     4
 # iter = 50500  time[fs]=50.50000
   C -0.493134431E+01  0.979267328E-01 -0.262392171E+00
   C  0.500250238E+01 -0.173055385E+00  0.264016915E+00
   H -0.235037689E+02  0.366973045E+00  0.300206969E+01
   H  0.229277986E+02  0.199737568E+01 -0.301810103E+01
     4
 # iter = 51000  time[fs]=51.00000
   C -0.501887736E+01  0.993746715E-01 -0.267115054E+00
   C  0.509026340E+01 -0.176369584E+00  0.269320641E+00
   H -0.238709490E+02  0.372264912E+00  0.304988983E+01
   H  0.232806950E+02  0.202877743E+01 -0.306553780E+01
     4
 # iter = 51500  time[fs]=51.50000
   C -0.510654664E+01  0.100826088E+00 -0.271846407E+00
   C  0.517816011E+01 -0.179688665E+00  0.274632987E+00
   H -0.242382783E+02  0.377558367E+00  0.309773225E+01
   H  0.236337470E+02  0.206019447E+01 -0.311299867E+01
     4
 # iter = 52000  time[fs]=52.00000
   C -0.519434749E+01  0.102280862E+00 -0.276585959E+00
   C  0.526618788E+01 -0.183012471E+00  0.279953681E+00
   H -0.246057523E+02  0.382853360E+00  0.314559632E+01
   H  0.239869498E+02  0.209162636E+01 -0.316048296E+01
     4
 # iter = 52500  time[fs]=52.50000
   C -0.528227551E+01  0.103738880E+00 -0.281333451E+00
   C  0.535434232E+01 -0.186340849E+00  0.285282460E+00
   H -0.249733668E+02  0.388149845E+00  0.319348141E+01
   H  0.243402992E+02  0.212307269E+01 -0.320799001E+01
     4
 # iter = 53000  time[fs]=53.00000
   C -0.537032650E+01  0.105200036E+00 -0.286088637E+00
   C  0.544261924E+01 -0.189673655E+00  0.290619076E+00
   H -0.253411178E+02  0.393447778E+00  0.324138694E+01
   H  0.246937909E+02  0.215453307E+01 -0.325551921E+01
     4
 # iter = 53500  time[fs]=53.50000
   C -0.545849646E+01  0.106664225E+00 -0.290851283E+00
   C  0.553101464E+01 -0.193010751E+00  0.295963290E+00
   H -0.257090013E+02  0.398747118E+00  0.328931234E+01
   H  0.250474211E+02  0.218600712E+01 -0.330306996E+01
     4
 # iter = 54000  time[fs]=54.00000
   C -0.554678157E+01  0.108131351E+00 -0.295621162E+00
   C  0.561952472E+01 -0.196352005E+00  0.301314874E+00
   H -0.260770138E+02  0.404047823E+00  0.333725707E+01
   H  0.254011858E+02  0.221749446E+01 -0.335064167E+01
     4
 # iter = 54500  time[fs]=54.50000
   C -0.563517820E+01  0.109601319E+00 -0.300398061E+00
   C  0.570814585E+01 -0.199697292E+00  0.306673611E+00
   H -0.264451516E+02  0.409349855E+00  0.338522062E+01
   H  0.257550814E+02  0.224899476E+01 -0.339823380E+01
     4
 # iter = 55000  time[fs]=55.00000
   C -0.572368287E+01  0.111074041E+00 -0.305181773E+00
   C  0.579687457E+01 -0.203046491E+00  0.312039293E+00
   H -0.268134112E+02  0.414653177E+00  0.343320248E+01
   H  0.261091043E+02  0.228050767E+01 -0.344584581E+01
     4
 # iter = 55500  time[fs]=55.50000
   C -0.581229226E+01  0.112549431E+00 -0.309972101E+00
   C  0.588570757E+01 -0.206399487E+00  0.317411718E+00
   H -0.271817895E+02  0.419957754E+00  0.348120218E+01
   H  0.264632513E+02  0.231203287E+01 -0.349347719E+01
     4
 # iter = 56000  time[fs]=56.00000
   C -0.590100321E+01  0.114027408E+00 -0.314768857E+00
   C  0.597464169E+01 -0.209756171E+00  0.322790697E+00
   H -0.275502833E+02  0.425263551E+00  0.352921926E+01
   H  0.268175189E+02  0.234357005E+01 -0.354112746E+01
     4
 # iter = 56500  time[fs]=56.50000
   C -0.598981268E+01  0.115507894E+00 -0.319571860E+00
   C  0.606367391E+01 -0.213116436E+00  0.328176045E+00
   H -0.279188896E+02  0.430570536E+00  0.357725326E+01
   H  0.271719041E+02  0.237511891E+01 -0.358879613E+01
     4
 # iter = 57000  time[fs]=57.00000
   C -0.607871776E+01  0.116990816E+00 -0.324380935E+00
   C  0.615280132E+01 -0.216480181E+00  0.333567586E+00
   H -0.282876054E+02  0.435878677E+00  0.362530378E+01
   H  0.275264038E+02  0.240667916E+01 -0.363648275E+01
     4
 # iter = 57500  time[fs]=57.50000
   C -0.616771569E+01  0.118476102E+00 -0.329195917E+00
   C  0.624202116E+01 -0.219847310E+00  0.338965152E+00
   H -0.286564279E+02  0.441187943E+00  0.367337038E+01
   H  0.278810153E+02  0.243825053E+01 -0.368418689E+01
     4
 # iter = 58000  time[fs]=58.00000
   C -0.625680379E+01  0.119963683E+00 -0.334016645E+00
   C  0.633133077E+01 -0.223217731E+00  0.344368580E+00
   H -0.290253546E+02  0.446498307E+00  0.372145270E+01
   H  0.282357356E+02  0.246983274E+01 -0.373190812E+01
     4
 # iter = 58500  time[fs]=58.50000
   C -0.634597951E+01  0.121453494E+00 -0.338842966E+00
   C  0.642072762E+01 -0.226591353E+00  0.349777715E+00
   H -0.293943827E+02  0.451809739E+00  0.376955033E+01
   H  0.285905621E+02  0.250142553E+01 -0.377964604E+01
     4
 # iter = 59000  time[fs]=59.00000
   C -0.643524041E+01  0.122945474E+00 -0.343674732E+00
   C  0.651020925E+01 -0.229968090E+00  0.355192406E+00
   H -0.297635097E+02  0.457122214E+00  0.381766291E+01
   H  0.289454922E+02  0.253302867E+01 -0.382740024E+01
     4
 # iter = 59500  time[fs]=59.50000
   C -0.652458413E+01  0.124439561E+00 -0.348511802E+00
   C  0.659977333E+01 -0.233347862E+00  0.360612510E+00
   H -0.301327334E+02  0.462435704E+00  0.386579009E+01
   H  0.293005235E+02  0.256464190E+01 -0.387517035E+01
     4
 # iter = 60000  time[fs]=60.00000
   C -0.661400843E+01  0.125935697E+00 -0.353354038E+00
   C  0.668941761E+01 -0.236730588E+00  0.366037888E+00
   H -0.305020513E+02  0.467750185E+00  0.391393153E+01
   H  0.296556534E+02  0.259626499E+01 -0.392295601E+01
     4
 # iter = 60500  time[fs]=60.50000
   C -0.670351113E+01  0.127433829E+00 -0.358201309E+00
   C  0.677913994E+01 -0.240116192E+00  0.371468406E+00
   H -0.308714612E+02  0.473065634E+00  0.396208690E+01
   H  0.300108798E+02  0.262789773E+01 -0.397075685E+01
     4
 # iter = 61000  time[fs]=61.00000
   C -0.679309015E+01  0.128933902E+00 -0.363053489E+00
   C  0.686893822E+01 -0.243504602E+00  0.376903935E+00
   H -0.312409609E+02  0.478382026E+00  0.401025588E+01
   H  0.303662003E+02  0.265953988E+01 -0.401857255E+01
     4
 # iter = 61500  time[fs]=61.50000
   C -0.688274349E+01  0.130435864E+00 -0.367910456E+00
   C  0.695881048E+01 -0.246895747E+00  0.382344353E+00
   H -0.316105485E+02  0.483699339E+00  0.405843816E+01
   H  0.307216127E+02  0.269119125E+01 -0.406640276E+01
     4
 # iter = 62000  time[fs]=62.00000
   C -0.697246923E+01  0.131939668E+00 -0.372772092E+00
   C  0.704875478E+01 -0.250289558E+00  0.387789539E+00
   H -0.319802218E+02  0.489017553E+00  0.410663344E+01
   H  0.310771151E+02  0.272285164E+01 -0.411424717E+01
     4
 # iter = 62500  time[fs]=62.50000
   C -0.706226551E+01  0.133445265E+00 -0.377638283E+00
   C  0.713876929E+01 -0.253685970E+00  0.393239379E+00
   H -0.323499789E+02  0.494336645E+00  0.415484144E+01
   H  0.314327053E+02  0.275452083E+01 -0.416210546E+01
     4
 # iter = 63000  time[fs]=63.00000
   C -0.715213054E+01  0.134952610E+00 -0.382508921E+00
   C  0.722885222E+01 -0.257084921E+00  0.398693760E+00
   H -0.327198179E+02  0.499656596E+00  0.420306188E+01
   H  0.317883815E+02  0.278619865E+01 -0.420997734E+01
     4
 # iter = 63500  time[fs]=63.50000
   C -0.724206260E+01  0.136461659E+00 -0.387383900E+00
   C  0.731900186E+01 -0.260486349E+00  0.404152577E+00
   H -0.330897371E+02  0.504977386E+00  0.425129449E+01
   H  0.321441416E+02  0.281788492E+01 -0.425786253E+01
     4
 # iter = 64000  time[fs]=64.00000
   C -0.733206005E+01  0.137972370E+00 -0.392263118E+00
   C  0.740921656E+01 -0.263890196E+00  0.409615726E+00
   H -0.334597346E+02  0.510298996E+00  0.429953901E+01
   H  0.324999840E+02  0.284957944E+01 -0.430576073E+01
     4
 # iter = 64500  time[fs]=64.50000
   C -0.742212127E+01  0.139484702E+00 -0.397146478E+00
   C  0.749949472E+01 -0.267296405E+00  0.415083106E+00
   H -0.338298088E+02  0.515621409E+00  0.434779518E+01
   H  0.328559068E+02  0.288128206E+01 -0.435367168E+01
     4
 # iter = 65000  time[fs]=65.00000
   C -0.751224474E+01  0.140998616E+00 -0.402033883E+00
   C  0.758983482E+01 -0.270704922E+00  0.420554622E+00
   H -0.341999580E+02  0.520944607E+00  0.439606277E+01
   H  0.332119083E+02  0.291299260E+01 -0.440159511E+01
     4
 # iter = 65500  time[fs]=65.50000
   C -0.760242895E+01  0.142514073E+00 -0.406925242E+00
   C  0.768023536E+01 -0.274115693E+00  0.426030179E+00
   H -0.345701806E+02  0.526268572E+00  0.444434153E+01
   H  0.335679868E+02  0.294471091E+01 -0.444953076E+01
     4
 # iter = 66000  time[fs]=66.00000
   C -0.769267249E+01  0.144031037E+00 -0.411820466E+00
   C  0.777069493E+01 -0.277528667E+00  0.431509687E+00
   H -0.349404751E+02  0.531593288E+00  0.449263124E+01
   H  0.339241409E+02  0.297643682E+01 -0.449747840E+01
     4
 # iter = 66500  time[fs]=66.50000
   C -0.778297396E+01  0.145549473E+00 -0.416719471E+00
   C  0.786121214E+01 -0.280943795E+00  0.436993060E+00
   H -0.353108400E+02  0.536918739E+00  0.454093168E+01
   H  0.342803688E+02  0.300817018E+01 -0.454543778E+01
     4
 # iter = 67000  time[fs]=67.00000
   C -0.787333202E+01  0.147069347E+00 -0.421622171E+00
   C  0.795178565E+01 -0.284361030E+00  0.442480213E+00
   H -0.356812738E+02  0.542244911E+00  0.458924262E+01
   H  0.346366690E+02  0.303991085E+01 -0.459340867E+01
     4
 # iter = 67500  time[fs]=67.50000
   C -0.796374538E+01  0.148590625E+00 -0.426528488E+00
   C  0.804241418E+01 -0.287780325E+00  0.447971063E+00
   H -0.360517752E+02  0.547571786E+00  0.463756386E+01
   H  0.349930402E+02  0.307165868E+01 -0.464139083E+01
     4
 # iter = 68000  time[fs]=68.00000
   C -0.805421279E+01  0.150113276E+00 -0.431438343E+00
   C  0.813309648E+01 -0.291201635E+00  0.453465532E+00
   H -0.364223427E+02  0.552899352E+00  0.468589520E+01
   H  0.353494809E+02  0.310341353E+01 -0.468938406E+01
     4
 # iter = 68500  time[fs]=68.50000
   C -0.814473303E+01  0.151637269E+00 -0.436351661E+00
   C  0.822383135E+01 -0.294624918E+00  0.458963543E+00
   H -0.367929750E+02  0.558227594E+00  0.473423644E+01
   H  0.357059897E+02  0.313517527E+01 -0.473738814E+01
     4
 # iter = 69000  time[fs]=69.00000
   C -0.823530495E+01  0.153162574E+00 -0.441268369E+00
   C  0.831461762E+01 -0.298050131E+00  0.464465022E+00
   H -0.371636710E+02  0.563556499E+00  0.478258739E+01
   H  0.360625653E+02  0.316694376E+01 -0.478540285E+01
     4
 # iter = 69500  time[fs]=69.50000
   C -0.832592740E+01  0.154689162E+00 -0.446188396E+00
   C  0.840545416E+01 -0.301477233E+00  0.469969897E+00
   H -0.375344292E+02  0.568886052E+00  0.483094786E+01
   H  0.364192063E+02  0.319871889E+01 -0.483342801E+01
     4
 # iter = 70000  time[fs]=70.00000
   C -0.841659930E+01  0.156217006E+00 -0.451111674E+00
   C  0.849633989E+01 -0.304906186E+00  0.475478097E+00
   H -0.379052485E+02  0.574216242E+00  0.487931767E+01
   H  0.367759116E+02  0.323050051E+01 -0.488146341E+01
     4
 # iter = 70500  time[fs]=70.50000
   C -0.850731957E+01  0.157746078E+00 -0.456038136E+00
   C  0.858727373E+01 -0.308336951E+00  0.480989556E+00
   H -0.382761278E+02  0.579547056E+00  0.492769665E+01
   H  0.371326799E+02  0.326228853E+01 -0.492950887E+01
     4
 # iter = 71000  time[fs]=71.00000
   C -0.859808720E+01  0.159276352E+00 -0.460967717E+00
   C  0.867825468E+01 -0.311769492E+00  0.486504207E+00
   H -0.386470658E+02  0.584878481E+00  0.497608462E+01
   H  0.374895099E+02  0.329408280E+01 -0.497756419E+01
     4
 # iter = 71500  time[fs]=71.50000
   C -0.868890118E+01  0.160807802E+00 -0.465900356E+00
   C  0.876928174E+01 -0.315203772E+00  0.492021986E+00
   H -0.390180616E+02  0.590210507E+00  0.502448143E+01
   H  0.378464006E+02  0.332588323E+01 -0.502562921E+01
     4
 # iter = 72000  time[fs]=72.00000
   C -0.877976055E+01  0.162340405E+00 -0.470835991E+00
   C  0.886035394E+01 -0.318639756E+00  0.497542833E+00
   H -0.393891139E+02  0.595543121E+00  0.507288690E+01
   H  0.382033508E+02  0.335768971E+01 -0.507370374E+01
     4
 # iter = 72500  time[fs]=72.50000
   C -0.887066437E+01  0.163874136E+00 -0.475774563E+00
   C  0.895147036E+01 -0.322077411E+00  0.503066686E+00
   H -0.397602218E+02  0.600876312E+00  0.512130088E+01
   H  0.385603595E+02  0.338950211E+01 -0.512178761E+01
     4
 # iter = 73000  time[fs]=73.00000
   C -0.896161174E+01  0.165408972E+00 -0.480716015E+00
   C  0.904263009E+01 -0.325516704E+00  0.508593487E+00
   H -0.401313842E+02  0.606210070E+00  0.516972322E+01
   H  0.389174254E+02  0.342132034E+01 -0.516988066E+01
     4
 # iter = 73500  time[fs]=73.50000
   C -0.905260176E+01  0.166944890E+00 -0.485660292E+00
   C  0.913383224E+01 -0.328957604E+00  0.514123181E+00
   H -0.405026002E+02  0.611544383E+00  0.521815377E+01
   H  0.392745477E+02  0.345314430E+01 -0.521798273E+01
     4
 # iter = 74000  time[fs]=74.00000
   C -0.914363360E+01  0.168481870E+00 -0.490607339E+00
   C  0.922507598E+01 -0.332400078E+00  0.519655711E+00
   H -0.408738687E+02  0.616879243E+00  0.526659239E+01
   H  0.396317253E+02  0.348497389E+01 -0.526609366E+01
     4
 # iter = 74500  time[fs]=74.50000
   C -0.923470642E+01  0.170019890E+00 -0.495557104E+00
   C  0.931636048E+01 -0.335844098E+00  0.525191024E+00
   H -0.412451889E+02  0.622214638E+00  0.531503893E+01
   H  0.399889573E+02  0.351680900E+01 -0.531421330E+01
     4
 # iter = 75000  time[fs]=75.00000
   C -0.932581941E+01  0.171558929E+00 -0.500509535E+00
   C  0.940768492E+01 -0.339289634E+00  0.530729068E+00
   H -0.416165598E+02  0.627550560E+00  0.536349325E+01
   H  0.403462426E+02  0.354864955E+01 -0.536234149E+01
     4
 # iter = 75500  time[fs]=75.50000
   C -0.941697178E+01  0.173098967E+00 -0.505464584E+00
   C  0.949904854E+01 -0.342736658E+00  0.536269792E+00
   H -0.419879805E+02  0.632886998E+00  0.541195523E+01
   H  0.407035803E+02  0.358049544E+01 -0.541047810E+01
     4
 # iter = 76000  time[fs]=76.00000
   C -0.950816279E+01  0.174639985E+00 -0.510422202E+00
   C  0.959045057E+01 -0.346185142E+00  0.541813148E+00
   H -0.423594502E+02  0.638223944E+00  0.546042473E+01
   H  0.410609696E+02  0.361234658E+01 -0.545862297E+01
     4
 # iter = 76500  time[fs]=76.50000
   C -0.959939169E+01  0.176181965E+00 -0.515382342E+00
   C  0.968189028E+01 -0.349635058E+00  0.547359087E+00
   H -0.427309680E+02  0.643561389E+00  0.550890163E+01
   H  0.414184095E+02  0.364420289E+01 -0.550677598E+01
     4
 # iter = 77000  time[fs]=77.00000
   C -0.969065776E+01  0.177724888E+00 -0.520344957E+00
   C  0.977336696E+01 -0.353086382E+00  0.552907562E+00
   H -0.431025331E+02  0.648899324E+00  0.555738580E+01
   H  0.417758992E+02  0.367606427E+01 -0.555493699E+01
     4
 # iter = 77500  time[fs]=77.50000
   C -0.978196030E+01  0.179268736E+00 -0.525310005E+00
   C  0.986487991E+01 -0.356539088E+00  0.558458529E+00
   H -0.434741447E+02  0.654237740E+00  0.560587712E+01
   H  0.421334379E+02  0.370793065E+01 -0.560310586E+01
     4
 # iter = 78000  time[fs]=78.00000
   C -0.987329864E+01  0.180813492E+00 -0.530277441E+00
   C  0.995642845E+01 -0.359993150E+00  0.564011943E+00
   H -0.438458020E+02  0.659576630E+00  0.565437548E+01
   H  0.424910247E+02  0.373980195E+01 -0.565128247E+01
     4
 # iter = 78500  time[fs]=78.50000
   C -0.996467211E+01  0.182359139E+00 -0.535247223E+00
   C  0.100480119E+02 -0.363448546E+00  0.569567761E+00
   H -0.442175043E+02  0.664915984E+00  0.570288075E+01
   H  0.428486588E+02  0.377167808E+01 -0.569946670E+01
     4
 # iter = 79000  time[fs]=79.00000
   C -0.100560801E+02  0.183905661E+00 -0.540219310E+00
   C  0.101396297E+02 -0.366905251E+00  0.575125942E+00
   H -0.445892508E+02  0.670255796E+00  0.575139283E+01
   H  0.432063395E+02  0.380355896E+01 -0.574765841E+01
     4
 # iter = 79500  time[fs]=79.50000
   C -0.101475219E+02  0.185453041E+00 -0.545193662E+00
   C  0.102312811E+02 -0.370363242E+00  0.580686443E+00
   H -0.449610407E+02  0.675596058E+00  0.579991161E+01
   H  0.435640659E+02  0.383544453E+01 -0.579585750E+01
     4
 # iter = 80000  time[fs]=80.00000
   C -0.102389970E+02  0.187001266E+00 -0.550170241E+00
   C  0.103229657E+02 -0.373822497E+00  0.586249226E+00
   H -0.453328735E+02  0.680936762E+00  0.584843697E+01
   H  0.439218374E+02  0.386733471E+01 -0.584406384E+01
