     4
 # iter = 25000  time[fs]=25.00000
   C -0.102258304E+01 -0.137205224E-01  0.168339210E-01
   C  0.937591169E+00  0.433238991E-02 -0.319128853E-01
   H -0.528895795E+01 -0.452735320E+00 -0.330915833E+00
   H  0.525440256E+01  0.977204984E-01  0.405224018E+00
     4
 # iter = 25500  time[fs]=25.50000
   C -0.107140215E+01 -0.123423901E-01  0.184903699E-01
   C  0.978091820E+00  0.451384470E-02 -0.332250224E-01
   H -0.561996406E+01 -0.479424187E+00 -0.353201717E+00
   H  0.556521847E+01  0.104970605E+00  0.432268091E+00
     4
 # iter = 26000  time[fs]=26.00000
   C -0.112434534E+01 -0.109859969E-01  0.202597173E-01
   C  0.102271771E+01  0.473174711E-02 -0.346535593E-01
   H -0.595367114E+01 -0.506353420E+00 -0.375678938E+00
   H  0.587872131E+01  0.112284573E+00  0.459545517E+00
     4
 # iter = 26500  time[fs]=26.50000
   C -0.118104935E+01 -0.964629150E-02  0.221330544E-01
   C  0.107110453E+01  0.497934490E-02 -0.361892859E-01
   H -0.628978132E+01 -0.533496130E+00 -0.398327014E+00
   H  0.619462601E+01  0.119655929E+00  0.487032198E+00
     4
 # iter = 27000  time[fs]=27.00000
   C -0.124117324E+01 -0.831906378E-02  0.241019189E-01
   C  0.112291058E+01  0.525100929E-02 -0.378234753E-01
   H -0.662804287E+01 -0.560829754E+00 -0.421128655E+00
   H  0.651269003E+01  0.127079131E+00  0.514707669E+00
     4
 # iter = 27500  time[fs]=27.50000
   C -0.130440188E+01 -0.700086366E-02  0.261583841E-01
   C  0.117782015E+01  0.554209455E-02 -0.395479675E-01
   H -0.696824125E+01 -0.588335165E+00 -0.444069122E+00
   H  0.683270539E+01  0.134549401E+00  0.542554390E+00
     4
 # iter = 28000  time[fs]=28.00000
   C -0.137044721E+01 -0.568890176E-02  0.282951064E-01
   C  0.123554483E+01  0.584879381E-02 -0.413552118E-01
   H -0.731019214E+01 -0.615996009E+00 -0.467135739E+00
   H  0.715449243E+01  0.142062594E+00  0.570557203E+00
     4
 # iter = 28500  time[fs]=28.50000
   C -0.143904812E+01 -0.438094733E-02  0.305053388E-01
   C  0.129582320E+01  0.616800298E-02 -0.432382775E-01
   H -0.765373611E+01 -0.643798183E+00 -0.490317526E+00
   H  0.747789496E+01  0.149615089E+00  0.598702919E+00
     4
 # iter = 29000  time[fs]=29.00000
   C -0.150996924E+01 -0.307523284E-02  0.327829220E-01
   C  0.135841974E+01  0.649719916E-02 -0.451908409E-01
   H -0.799873431E+01 -0.671729442E+00 -0.513604896E+00
   H  0.780277636E+01  0.157203704E+00  0.626979983E+00
     4
 # iter = 29500  time[fs]=29.50000
   C -0.158299928E+01 -0.177036948E-02  0.351222581E-01
   C  0.142312303E+01  0.683433567E-02 -0.472071568E-01
   H -0.834506512E+01 -0.699779086E+00 -0.536989437E+00
   H  0.812901648E+01  0.164825633E+00  0.655378211E+00
     4
 # iter = 30000  time[fs]=30.00000
   C -0.165794899E+01 -0.465275014E-03  0.375182756E-01
   C  0.148974373E+01  0.717775366E-02 -0.492820210E-01
   H -0.869262144E+01 -0.727937702E+00 -0.560463716E+00
   H  0.845650908E+01  0.172478383E+00  0.683888582E+00
     4
 # iter = 30500  time[fs]=30.50000
   C -0.173464910E+01  0.840886580E-03  0.399663887E-01
   C  0.155811256E+01  0.752610883E-02 -0.514107281E-01
   H -0.904130848E+01 -0.756196971E+00 -0.584021134E+00
   H  0.878515982E+01  0.180159734E+00  0.712503059E+00
     4
 # iter = 31000  time[fs]=31.00000
   C -0.181294829E+01  0.214875456E-02  0.424624555E-01
   C  0.162807816E+01  0.787831151E-02 -0.535890276E-01
   H -0.939104193E+01 -0.784549499E+00 -0.607655807E+00
   H  0.911488453E+01  0.187867699E+00  0.741214456E+00
     4
 # iter = 31500  time[fs]=31.50000
   C -0.189271122E+01  0.345881168E-02  0.450027361E-01
   C  0.169950522E+01  0.823347787E-02 -0.558130810E-01
   H -0.974174652E+01 -0.812988688E+00 -0.631362462E+00
   H  0.944560783E+01  0.195600490E+00  0.770016315E+00
     4
 # iter = 32000  time[fs]=32.00000
   C -0.197381679E+01  0.477141654E-02  0.475838535E-01
   C  0.177227265E+01  0.859089057E-02 -0.580794214E-01
   H -0.100933547E+02 -0.841508622E+00 -0.655136355E+00
   H  0.977726194E+01  0.203356496E+00  0.798902814E+00
     4
 # iter = 32500  time[fs]=32.50000
   C -0.205615648E+01  0.608682960E-02  0.502027558E-01
   C  0.184627198E+01  0.894996695E-02 -0.603849145E-01
   H -0.104458058E+02 -0.870103974E+00 -0.678973202E+00
   H  0.101097857E+02  0.211134258E+00  0.827868682E+00
     4
 # iter = 33000  time[fs]=33.00000
   C -0.213963296E+01  0.740523387E-02  0.528566827E-01
   C  0.192140590E+01  0.931023350E-02 -0.627267249E-01
   H -0.107990449E+02 -0.898769935E+00 -0.702869120E+00
   H  0.104431237E+02  0.218932453E+00  0.856909133E+00
     4
 # iter = 33500  time[fs]=33.50000
   C -0.222415872E+01  0.872675147E-02  0.555431345E-01
   C  0.199758697E+01  0.967130527E-02 -0.651022835E-01
   H -0.111530223E+02 -0.927502143E+00 -0.726820581E+00
   H  0.107772257E+02  0.226749873E+00  0.886019806E+00
     4
 # iter = 34000  time[fs]=34.00000
   C -0.230965500E+01  0.100514567E-01  0.582598445E-01
   C  0.207473646E+01  0.100328693E-01 -0.675092597E-01
   H -0.115076928E+02 -0.956296635E+00 -0.750824365E+00
   H  0.111120459E+02  0.234585417E+00  0.915196715E+00
     4
 # iter = 34500  time[fs]=34.50000
   C -0.239605076E+01  0.113793866E-01  0.610047539E-01
   C  0.215278340E+01  0.103946714E-01 -0.699455359E-01
   H -0.118630152E+02 -0.985149792E+00 -0.774877528E+00
   H  0.114475424E+02  0.242438075E+00  0.944436211E+00
     4
 # iter = 35000  time[fs]=35.00000
   C -0.248328178E+01  0.127105490E-01  0.637759897E-01
   C  0.223166361E+01  0.107565050E-01 -0.724091847E-01
   H -0.122189519E+02 -0.101405831E+01 -0.798977370E+00
   H  0.117836770E+02  0.250306920E+00  0.973734939E+00
     4
 # iter = 35500  time[fs]=35.50000
   C -0.257128993E+01  0.140449295E-01  0.665718455E-01
   C  0.231131903E+01  0.111182030E-01 -0.748984489E-01
   H -0.125754683E+02 -0.104301914E+01 -0.823121410E+00
   H  0.121204144E+02  0.258191099E+00  0.100308981E+01
     4
 # iter = 36000  time[fs]=36.00000
   C -0.266002243E+01  0.153824963E-01  0.693907632E-01
   C  0.239169693E+01  0.114796303E-01 -0.774117237E-01
   H -0.129325328E+02 -0.107202952E+01 -0.847307360E+00
   H  0.124577224E+02  0.266089825E+00  0.103249798E+01
     4
 # iter = 36500  time[fs]=36.50000
   C -0.274943133E+01  0.167232047E-01  0.722313183E-01
   C  0.247274941E+01  0.118406779E-01 -0.799475409E-01
   H -0.132901162E+02 -0.110108685E+01 -0.871533107E+00
   H  0.127955711E+02  0.274002371E+00  0.106195680E+01
     4
 # iter = 37000  time[fs]=37.00000
   C -0.283947292E+01  0.180670000E-01  0.750922059E-01
   C  0.255443282E+01  0.122012588E-01 -0.825045548E-01
   H -0.136481916E+02 -0.113018877E+01 -0.895796695E+00
   H  0.131339329E+02  0.281928062E+00  0.109146383E+01
     4
 # iter = 37500  time[fs]=37.50000
   C -0.293010732E+01  0.194138205E-01  0.779722286E-01
   C  0.263670733E+01  0.125613038E-01 -0.850815301E-01
   H -0.140067341E+02 -0.115933308E+01 -0.920096312E+00
   H  0.134727823E+02  0.289866273E+00  0.112101681E+01
     4
 # iter = 38000  time[fs]=38.00000
   C -0.302129803E+01  0.207635995E-01  0.808702857E-01
   C  0.271953649E+01  0.129207582E-01 -0.876773304E-01
   H -0.143657205E+02 -0.118851775E+01 -0.944430271E+00
   H  0.138120956E+02  0.297816421E+00  0.115061362E+01
     4
 # iter = 38500  time[fs]=38.50000
   C -0.311301164E+01  0.221162667E-01  0.837853638E-01
   C  0.280288694E+01  0.132795796E-01 -0.902909092E-01
   H -0.147251296E+02 -0.121774087E+01 -0.968797003E+00
   H  0.141518508E+02  0.305777965E+00  0.118025229E+01
     4
 # iter = 39000  time[fs]=39.00000
   C -0.320521745E+01  0.234717497E-01  0.867165281E-01
   C  0.288672803E+01  0.136377357E-01 -0.929213003E-01
   H -0.150849415E+02 -0.124700069E+01 -0.993195046E+00
   H  0.144920275E+02  0.313750399E+00  0.120993099E+01
     4
 # iter = 39500  time[fs]=39.50000
   C -0.329788724E+01  0.248299750E-01  0.896629150E-01
   C  0.297103160E+01  0.139952024E-01 -0.955676110E-01
   H -0.154451375E+02 -0.127629556E+01 -0.101762303E+01
   H  0.148326065E+02  0.321733249E+00  0.123964799E+01
     4
 # iter = 40000  time[fs]=40.00000
   C -0.339099502E+01  0.261908689E-01  0.926237256E-01
   C  0.305577168E+01  0.143519625E-01 -0.982290147E-01
   H -0.158057004E+02 -0.130562395E+01 -0.104207969E+01
   H  0.151735700E+02  0.329726075E+00  0.126940169E+01
     4
 # iter = 40500  time[fs]=40.50000
   C -0.348451680E+01  0.275543577E-01  0.955982194E-01
   C  0.314092433E+01  0.147080043E-01 -0.100904745E+00
   H -0.161666140E+02 -0.133498442E+01 -0.106656381E+01
   H  0.155149013E+02  0.337728460E+00  0.129919058E+01
     4
 # iter = 41000  time[fs]=41.00000
   C -0.357843039E+01  0.289203686E-01  0.985857091E-01
   C  0.322646742E+01  0.150633212E-01 -0.103594090E+00
   H -0.165278633E+02 -0.136437563E+01 -0.109107427E+01
   H  0.158565848E+02  0.345740017E+00  0.132901324E+01
     4
 # iter = 41500  time[fs]=41.50000
   C -0.367271526E+01  0.302888301E-01  0.101585556E+00
   C  0.331238046E+01  0.154179099E-01 -0.106296388E+00
   H -0.168894340E+02 -0.139379631E+01 -0.111561003E+01
   H  0.161986058E+02  0.353760377E+00  0.135886834E+01
     4
 # iter = 42000  time[fs]=42.00000
   C -0.376735237E+01  0.316596718E-01  0.104597165E+00
   C  0.339864444E+01  0.157717707E-01 -0.109011022E+00
   H -0.172513129E+02 -0.142324528E+01 -0.114017007E+01
   H  0.165409506E+02  0.361789199E+00  0.138875461E+01
     4
 # iter = 42500  time[fs]=42.50000
   C -0.386232405E+01  0.330328252E-01  0.107619982E+00
   C  0.348524171E+01  0.161249063E-01 -0.111737417E+00
   H -0.176134874E+02 -0.145272142E+01 -0.116475348E+01
   H  0.168836062E+02  0.369826156E+00  0.141867089E+01
     4
 # iter = 43000  time[fs]=43.00000
   C -0.395761384E+01  0.344082234E-01  0.110653490E+00
   C  0.357215588E+01  0.164773216E-01 -0.114475037E+00
   H -0.179759459E+02 -0.148222368E+01 -0.118935937E+01
   H  0.172265604E+02  0.377870943E+00  0.144861605E+01
     4
 # iter = 43500  time[fs]=43.50000
   C -0.405320643E+01  0.357858013E-01  0.113697205E+00
   C  0.365937167E+01  0.168290232E-01 -0.117223379E+00
   H -0.183386772E+02 -0.151175108E+01 -0.121398690E+01
   H  0.175698017E+02  0.385923271E+00  0.147858904E+01
     4
 # iter = 44000  time[fs]=44.00000
   C -0.414908754E+01  0.371654959E-01  0.116750674E+00
   C  0.374687481E+01  0.171800190E-01 -0.119981973E+00
   H -0.187016710E+02 -0.154130268E+01 -0.123863528E+01
   H  0.179133193E+02  0.393982866E+00  0.150858885E+01
     4
 # iter = 44500  time[fs]=44.50000
   C -0.424524382E+01  0.385472460E-01  0.119813473E+00
   C  0.383465200E+01  0.175303181E-01 -0.122750378E+00
   H -0.190649174E+02 -0.157087759E+01 -0.126330378E+01
   H  0.182571029E+02  0.402049469E+00  0.153861455E+01
     4
 # iter = 45000  time[fs]=45.00000
   C -0.434166280E+01  0.399309924E-01  0.122885205E+00
   C  0.392269081E+01  0.178799306E-01 -0.125528181E+00
   H -0.194284070E+02 -0.160047498E+01 -0.128799169E+01
   H  0.186011429E+02  0.410122837E+00  0.156866524E+01
     4
 # iter = 45500  time[fs]=45.50000
   C -0.443833281E+01  0.413166778E-01  0.125965496E+00
   C  0.401097958E+01  0.182288671E-01 -0.128314992E+00
   H -0.197921311E+02 -0.163009406E+01 -0.131269833E+01
   H  0.189454301E+02  0.418202735E+00  0.159874006E+01
     4
 # iter = 46000  time[fs]=46.00000
   C -0.453524289E+01  0.427042470E-01  0.129053994E+00
   C  0.409950739E+01  0.185771388E-01 -0.131110446E+00
   H -0.201560813E+02 -0.165973407E+01 -0.133742308E+01
   H  0.192899558E+02  0.426288944E+00  0.162883822E+01
     4
 # iter = 46500  time[fs]=46.50000
   C -0.463238276E+01  0.440936465E-01  0.132150369E+00
   C  0.418826400E+01  0.189247572E-01 -0.133914199E+00
   H -0.205202497E+02 -0.168939431E+01 -0.136216533E+01
   H  0.196347117E+02  0.434381254E+00  0.165895893E+01
     4
 # iter = 47000  time[fs]=47.00000
   C -0.472974279E+01  0.454848247E-01  0.135254309E+00
   C  0.427723977E+01  0.192717343E-01 -0.136725926E+00
   H -0.208846289E+02 -0.171907410E+01 -0.138692450E+01
   H  0.199796901E+02  0.442479466E+00  0.168910148E+01
     4
 # iter = 47500  time[fs]=47.50000
   C -0.482731388E+01  0.468777319E-01  0.138365519E+00
   C  0.436642567E+01  0.196180819E-01 -0.139545321E+00
   H -0.212492117E+02 -0.174877280E+01 -0.141170006E+01
   H  0.203248834E+02  0.450583390E+00  0.171926517E+01
     4
 # iter = 48000  time[fs]=48.00000
   C -0.492508748E+01  0.482723201E-01  0.141483724E+00
   C  0.445581316E+01  0.199638123E-01 -0.142372093E+00
   H -0.216139913E+02 -0.177848980E+01 -0.143649148E+01
   H  0.206702847E+02  0.458692845E+00  0.174944933E+01
     4
 # iter = 48500  time[fs]=48.50000
   C -0.502305554E+01  0.496685429E-01  0.144608659E+00
   C  0.454539420E+01  0.203089375E-01 -0.145205969E+00
   H -0.219789614E+02 -0.180822450E+01 -0.146129826E+01
   H  0.210158872E+02  0.466807659E+00  0.177965334E+01
     4
 # iter = 49000  time[fs]=49.00000
   C -0.512121046E+01  0.510663558E-01  0.147740077E+00
   C  0.463516122E+01  0.206534696E-01 -0.148046690E+00
   H -0.223441157E+02 -0.183797637E+01 -0.148611994E+01
   H  0.213616845E+02  0.474927668E+00  0.180987659E+01
     4
 # iter = 49500  time[fs]=49.50000
   C -0.521954505E+01  0.524657156E-01  0.150877742E+00
   C  0.472510706E+01  0.209974208E-01 -0.150894011E+00
   H -0.227094485E+02 -0.186774487E+01 -0.151095607E+01
   H  0.217076705E+02  0.483052715E+00  0.184011851E+01
     4
 # iter = 50000  time[fs]=50.00000
   C -0.531805252E+01  0.538665809E-01  0.154021433E+00
   C  0.481522496E+01  0.213408029E-01 -0.153747699E+00
   H -0.230749541E+02 -0.189752949E+01 -0.153580620E+01
   H  0.220538393E+02  0.491182651E+00  0.187037855E+01
     4
 # iter = 50500  time[fs]=50.50000
   C -0.541672645E+01  0.552689116E-01  0.157170937E+00
   C  0.490550850E+01  0.216836277E-01 -0.156607532E+00
   H -0.234406273E+02 -0.192732975E+01 -0.156066995E+01
   H  0.224001854E+02  0.499317331E+00  0.190065617E+01
     4
 # iter = 51000  time[fs]=51.00000
   C -0.551556076E+01  0.566726691E-01  0.160326055E+00
   C  0.499595163E+01  0.220259069E-01 -0.159473302E+00
   H -0.238064630E+02 -0.195714519E+01 -0.158554690E+01
   H  0.227467036E+02  0.507456620E+00  0.193095088E+01
     4
 # iter = 51500  time[fs]=51.50000
   C -0.561454968E+01  0.580778161E-01  0.163486595E+00
   C  0.508654860E+01  0.223676519E-01 -0.162344809E+00
   H -0.241724564E+02 -0.198697538E+01 -0.161043668E+01
   H  0.230933886E+02  0.515600385E+00  0.196126220E+01
     4
 # iter = 52000  time[fs]=52.00000
   C -0.571368775E+01  0.594843168E-01  0.166652376E+00
   C  0.517729396E+01  0.227088739E-01 -0.165221863E+00
   H -0.245386028E+02 -0.201681989E+01 -0.163533894E+01
   H  0.234402357E+02  0.523748502E+00  0.199158966E+01
     4
 # iter = 52500  time[fs]=52.50000
   C -0.581296976E+01  0.608921365E-01  0.169823225E+00
   C  0.526818254E+01  0.230495840E-01 -0.168104284E+00
   H -0.249048978E+02 -0.204667831E+01 -0.166025332E+01
   H  0.237872401E+02  0.531900849E+00  0.202193283E+01
     4
 # iter = 53000  time[fs]=53.00000
   C -0.591239079E+01  0.623012416E-01  0.172998979E+00
   C  0.535920941E+01  0.233897930E-01 -0.170991899E+00
   H -0.252713371E+02 -0.207655026E+01 -0.168517949E+01
   H  0.241343976E+02  0.540057312E+00  0.205229127E+01
     4
 # iter = 53500  time[fs]=53.50000
   C -0.601194614E+01  0.637116001E-01  0.176179481E+00
   C  0.545036991E+01  0.237295115E-01 -0.173884544E+00
   H -0.256379167E+02 -0.210643536E+01 -0.171011715E+01
   H  0.244817036E+02  0.548217779E+00  0.208266457E+01
     4
 # iter = 54000  time[fs]=54.00000
   C -0.611163135E+01  0.651231806E-01  0.179364582E+00
   C  0.554165958E+01  0.240687498E-01 -0.176782064E+00
   H -0.260046327E+02 -0.213633327E+01 -0.173506597E+01
   H  0.248291543E+02  0.556382145E+00  0.211305236E+01
     4
 # iter = 54500  time[fs]=54.50000
   C -0.621144216E+01  0.665359531E-01  0.182554139E+00
   C  0.563307419E+01  0.244075180E-01 -0.179684308E+00
   H -0.263714814E+02 -0.216624364E+01 -0.176002568E+01
   H  0.251767457E+02  0.564550307E+00  0.214345424E+01
     4
 # iter = 55000  time[fs]=55.00000
   C -0.631137452E+01  0.679498886E-01  0.185748015E+00
   C  0.572460970E+01  0.247458262E-01 -0.182591135E+00
   H -0.267384591E+02 -0.219616614E+01 -0.178499597E+01
   H  0.255244739E+02  0.572722166E+00  0.217386987E+01
     4
 # iter = 55500  time[fs]=55.50000
   C -0.641142457E+01  0.693649590E-01  0.188946082E+00
   C  0.581626226E+01  0.250836838E-01 -0.185502406E+00
   H -0.271055624E+02 -0.222610045E+01 -0.180997660E+01
   H  0.258723354E+02  0.580897629E+00  0.220429888E+01
     4
 # iter = 56000  time[fs]=56.00000
   C -0.651158862E+01  0.707811371E-01  0.192148215E+00
   C  0.590802819E+01  0.254211004E-01 -0.188417993E+00
   H -0.274727881E+02 -0.225604628E+01 -0.183496729E+01
   H  0.262203266E+02  0.589076604E+00  0.223474095E+01
     4
 # iter = 56500  time[fs]=56.50000
   C -0.661186315E+01  0.721983968E-01  0.195354294E+00
   C  0.599990400E+01  0.257580851E-01 -0.191337770E+00
   H -0.278401329E+02 -0.228600333E+01 -0.185996779E+01
   H  0.265684443E+02  0.597259005E+00  0.226519575E+01
     4
 # iter = 57000  time[fs]=57.00000
   C -0.671224479E+01  0.736167127E-01  0.198564206E+00
   C  0.609188632E+01  0.260946468E-01 -0.194261617E+00
   H -0.282075938E+02 -0.231597132E+01 -0.188497786E+01
   H  0.269166853E+02  0.605444746E+00  0.229566298E+01
     4
 # iter = 57500  time[fs]=57.50000
   C -0.681273032E+01  0.750360604E-01  0.201777841E+00
   C  0.618397196E+01  0.264307944E-01 -0.197189419E+00
   H -0.285751678E+02 -0.234594998E+01 -0.190999728E+01
   H  0.272650463E+02  0.613633746E+00  0.232614233E+01
     4
 # iter = 58000  time[fs]=58.00000
   C -0.691331667E+01  0.764564160E-01  0.204995096E+00
   C  0.627615784E+01  0.267665364E-01 -0.200121068E+00
   H -0.289428521E+02 -0.237593905E+01 -0.193502581E+01
   H  0.276135245E+02  0.621825928E+00  0.235663351E+01
     4
 # iter = 58500  time[fs]=58.50000
   C -0.701400089E+01  0.778777568E-01  0.208215870E+00
   C  0.636844103E+01  0.271018809E-01 -0.203056456E+00
   H -0.293106441E+02 -0.240593828E+01 -0.196006323E+01
   H  0.279621170E+02  0.630021216E+00  0.238713625E+01
     4
 # iter = 59000  time[fs]=59.00000
   C -0.711478016E+01  0.793000605E-01  0.211440066E+00
   C  0.646081873E+01  0.274368362E-01 -0.205995484E+00
   H -0.296785409E+02 -0.243594742E+01 -0.198510935E+01
   H  0.283108210E+02  0.638219537E+00  0.241765028E+01
     4
 # iter = 59500  time[fs]=59.50000
   C -0.721565176E+01  0.807233056E-01  0.214667592E+00
   C  0.655328823E+01  0.277714101E-01 -0.208938054E+00
   H -0.300465402E+02 -0.246596625E+01 -0.201016395E+01
   H  0.286596338E+02  0.646420820E+00  0.244817533E+01
     4
 # iter = 60000  time[fs]=60.00000
   C -0.731661312E+01  0.821474714E-01  0.217898359E+00
   C  0.664584696E+01  0.281056103E-01 -0.211884072E+00
   H -0.304146395E+02 -0.249599454E+01 -0.203522685E+01
   H  0.290085528E+02  0.654624998E+00  0.247871116E+01
     4
 # iter = 60500  time[fs]=60.50000
   C -0.741766173E+01  0.835725377E-01  0.221132283E+00
   C  0.673849243E+01  0.284394441E-01 -0.214833448E+00
   H -0.307828364E+02 -0.252603206E+01 -0.206029785E+01
   H  0.293575757E+02  0.662832006E+00  0.250925753E+01
     4
 # iter = 61000  time[fs]=61.00000
   C -0.751879522E+01  0.849984851E-01  0.224369281E+00
   C  0.683122228E+01  0.287729190E-01 -0.217786097E+00
   H -0.311511287E+02 -0.255607862E+01 -0.208537677E+01
   H  0.297066998E+02  0.671041780E+00  0.253981419E+01
     4
 # iter = 61500  time[fs]=61.50000
   C -0.762001128E+01  0.864252945E-01  0.227609274E+00
   C  0.692403421E+01  0.291060420E-01 -0.220741934E+00
   H -0.315195141E+02 -0.258613400E+01 -0.211046345E+01
   H  0.300559231E+02  0.679254258E+00  0.257038093E+01
     4
 # iter = 62000  time[fs]=62.00000
   C -0.772130771E+01  0.878529478E-01  0.230852186E+00
   C  0.701692603E+01  0.294388200E-01 -0.223700880E+00
   H -0.318879906E+02 -0.261619802E+01 -0.213555770E+01
   H  0.304052431E+02  0.687469382E+00  0.260095753E+01
     4
 # iter = 62500  time[fs]=62.50000
   C -0.782268240E+01  0.892814270E-01  0.234097944E+00
   C  0.710989563E+01  0.297712598E-01 -0.226662859E+00
   H -0.322565560E+02 -0.264627047E+01 -0.216065936E+01
   H  0.307546578E+02  0.695687093E+00  0.263154377E+01
     4
 # iter = 63000  time[fs]=63.00000
   C -0.792413330E+01  0.907107151E-01  0.237346478E+00
   C  0.720294099E+01  0.301033678E-01 -0.229627795E+00
   H -0.326252084E+02 -0.267635119E+01 -0.218576828E+01
   H  0.311041650E+02  0.703907338E+00  0.266213944E+01
     4
 # iter = 63500  time[fs]=63.50000
   C -0.802565846E+01  0.921407954E-01  0.240597719E+00
   C  0.729606015E+01  0.304351504E-01 -0.232595616E+00
   H -0.329939460E+02 -0.270643998E+01 -0.221088431E+01
   H  0.314537628E+02  0.712130062E+00  0.269274436E+01
     4
 # iter = 64000  time[fs]=64.00000
   C -0.812725598E+01  0.935716515E-01  0.243851603E+00
   C  0.738925122E+01  0.307666139E-01 -0.235566255E+00
   H -0.333627667E+02 -0.273653668E+01 -0.223600728E+01
   H  0.318034491E+02  0.720355212E+00  0.272335832E+01
     4
 # iter = 64500  time[fs]=64.50000
   C -0.822892405E+01  0.950032678E-01  0.247108066E+00
   C  0.748251241E+01  0.310977643E-01 -0.238539644E+00
   H -0.337316689E+02 -0.276664113E+01 -0.226113706E+01
   H  0.321532221E+02  0.728582739E+00  0.275398114E+01
     4
 # iter = 65000  time[fs]=65.00000
   C -0.833066091E+01  0.964356290E-01  0.250367047E+00
   C  0.757584197E+01  0.314286075E-01 -0.241515719E+00
   H -0.341006508E+02 -0.279675315E+01 -0.228627351E+01
   H  0.325030800E+02  0.736812594E+00  0.278461264E+01
     4
 # iter = 65500  time[fs]=65.50000
   C -0.843246488E+01  0.978687202E-01  0.253628488E+00
   C  0.766923821E+01  0.317591493E-01 -0.244494417E+00
   H -0.344697107E+02 -0.282687260E+01 -0.231141649E+01
   H  0.328530208E+02  0.745044729E+00  0.281525265E+01
     4
 # iter = 66000  time[fs]=66.00000
   C -0.853433432E+01  0.993025272E-01  0.256892331E+00
   C  0.776269952E+01  0.320893952E-01 -0.247475680E+00
   H -0.348388470E+02 -0.285699932E+01 -0.233656587E+01
   H  0.332030430E+02  0.753279099E+00  0.284590099E+01
     4
 # iter = 66500  time[fs]=66.50000
   C -0.863626768E+01  0.100737036E+00  0.260158522E+00
   C  0.785622433E+01  0.324193507E-01 -0.250459448E+00
   H -0.352080582E+02 -0.288713317E+01 -0.236172152E+01
   H  0.335531449E+02  0.761515658E+00  0.287655750E+01
     4
 # iter = 67000  time[fs]=67.00000
   C -0.873826342E+01  0.102172233E+00  0.263427008E+00
   C  0.794981113E+01  0.327490211E-01 -0.253445665E+00
   H -0.355773425E+02 -0.291727399E+01 -0.238688332E+01
   H  0.339033248E+02  0.769754365E+00  0.290722201E+01
     4
 # iter = 67500  time[fs]=67.50000
   C -0.884032009E+01  0.103608104E+00  0.266697737E+00
   C  0.804345847E+01  0.330784116E-01 -0.256434279E+00
   H -0.359466987E+02 -0.294742167E+01 -0.241205115E+01
   H  0.342535812E+02  0.777995176E+00  0.293789439E+01
     4
 # iter = 68000  time[fs]=68.00000
   C -0.894243626E+01  0.105044638E+00  0.269970659E+00
   C  0.813716494E+01  0.334075273E-01 -0.259425235E+00
   H -0.363161253E+02 -0.297757605E+01 -0.243722489E+01
   H  0.346039125E+02  0.786238050E+00  0.296857446E+01
     4
 # iter = 68500  time[fs]=68.50000
   C -0.904461059E+01  0.106481821E+00  0.273245728E+00
   C  0.823092918E+01  0.337363730E-01 -0.262418483E+00
   H -0.366856208E+02 -0.300773701E+01 -0.246240443E+01
   H  0.349543173E+02  0.794482950E+00  0.299926209E+01
     4
 # iter = 69000  time[fs]=69.00000
   C -0.914684174E+01  0.107919642E+00  0.276522896E+00
   C  0.832474987E+01  0.340649536E-01 -0.265413975E+00
   H -0.370551839E+02 -0.303790443E+01 -0.248758966E+01
   H  0.353047941E+02  0.802729835E+00  0.302995713E+01
     4
 # iter = 69500  time[fs]=69.50000
   C -0.924912843E+01  0.109358088E+00  0.279802118E+00
   C  0.841862576E+01  0.343932737E-01 -0.268411662E+00
   H -0.374248133E+02 -0.306807818E+01 -0.251278047E+01
   H  0.356553415E+02  0.810978669E+00  0.306065945E+01
     4
 # iter = 70000  time[fs]=70.00000
   C -0.935146944E+01  0.110797149E+00  0.283083352E+00
   C  0.851255559E+01  0.347213379E-01 -0.271411499E+00
   H -0.377945077E+02 -0.309825814E+01 -0.253797675E+01
   H  0.360059582E+02  0.819229415E+00  0.309136890E+01
     4
 # iter = 70500  time[fs]=70.50000
   C -0.945386357E+01  0.112236812E+00  0.286366554E+00
   C  0.860653820E+01  0.350491508E-01 -0.274413441E+00
   H -0.381642658E+02 -0.312844419E+01 -0.256317841E+01
   H  0.363566428E+02  0.827482038E+00  0.312208537E+01
     4
 # iter = 71000  time[fs]=71.00000
   C -0.955630966E+01  0.113677067E+00  0.289651684E+00
   C  0.870057242E+01  0.353767165E-01 -0.277417443E+00
   H -0.385340865E+02 -0.315863623E+01 -0.258838535E+01
   H  0.367073942E+02  0.835736504E+00  0.315280872E+01
     4
 # iter = 71500  time[fs]=71.50000
   C -0.965880658E+01  0.115117904E+00  0.292938702E+00
   C  0.879465714E+01  0.357040393E-01 -0.280423466E+00
   H -0.389039686E+02 -0.318883413E+01 -0.261359747E+01
   H  0.370582110E+02  0.843992778E+00  0.318353882E+01
     4
 # iter = 72000  time[fs]=72.00000
   C -0.976135326E+01  0.116559312E+00  0.296227569E+00
   C  0.888879129E+01  0.360311235E-01 -0.283431467E+00
   H -0.392739110E+02 -0.321903781E+01 -0.263881468E+01
   H  0.374090920E+02  0.852250830E+00  0.321427556E+01
     4
 # iter = 72500  time[fs]=72.50000
   C -0.986394865E+01  0.118001281E+00  0.299518250E+00
   C  0.898297382E+01  0.363579729E-01 -0.286441407E+00
   H -0.396439125E+02 -0.324924714E+01 -0.266403689E+01
   H  0.377600360E+02  0.860510627E+00  0.324501882E+01
     4
 # iter = 73000  time[fs]=73.00000
   C -0.996659172E+01  0.119443802E+00  0.302810706E+00
   C  0.907720371E+01  0.366845916E-01 -0.289453248E+00
   H -0.400139720E+02 -0.327946204E+01 -0.268926401E+01
   H  0.381110420E+02  0.868772138E+00  0.327576849E+01
     4
 # iter = 73500  time[fs]=73.50000
   C -0.100692815E+02  0.120886864E+00  0.306104903E+00
   C  0.917147998E+01  0.370109835E-01 -0.292466953E+00
   H -0.403840885E+02 -0.330968239E+01 -0.271449595E+01
   H  0.384621087E+02  0.877035333E+00  0.330652445E+01
     4
 # iter = 74000  time[fs]=74.00000
   C -0.101720170E+02  0.122330458E+00  0.309400808E+00
   C  0.926580168E+01  0.373371521E-01 -0.295482486E+00
   H -0.407542610E+02 -0.333990812E+01 -0.273973263E+01
   H  0.388132352E+02  0.885300183E+00  0.333728659E+01
     4
 # iter = 74500  time[fs]=74.50000
   C -0.102747973E+02  0.123774576E+00  0.312698387E+00
   C  0.936016789E+01  0.376631013E-01 -0.298499810E+00
   H -0.411244885E+02 -0.337013911E+01 -0.276497397E+01
   H  0.391644203E+02  0.893566660E+00  0.336805482E+01
     4
 # iter = 75000  time[fs]=75.00000
   C -0.103776216E+02  0.125219208E+00  0.315997607E+00
   C  0.945457771E+01  0.379888346E-01 -0.301518893E+00
   H -0.414947700E+02 -0.340037529E+01 -0.279021989E+01
   H  0.395156630E+02  0.901834736E+00  0.339882902E+01
     4
 # iter = 75500  time[fs]=75.50000
   C -0.104804888E+02  0.126664346E+00  0.319298438E+00
   C  0.954903027E+01  0.383143555E-01 -0.304539701E+00
   H -0.418651046E+02 -0.343061656E+01 -0.281547031E+01
   H  0.398669623E+02  0.910104383E+00  0.342960909E+01
     4
 # iter = 76000  time[fs]=76.00000
   C -0.105833983E+02  0.128109981E+00  0.322600848E+00
   C  0.964352472E+01  0.386396674E-01 -0.307562201E+00
   H -0.422354914E+02 -0.346086284E+01 -0.284072516E+01
   H  0.402183174E+02  0.918375576E+00  0.346039495E+01
     4
 # iter = 76500  time[fs]=76.50000
   C -0.106863491E+02  0.129556106E+00  0.325904810E+00
   C  0.973806025E+01  0.389647736E-01 -0.310586363E+00
   H -0.426059294E+02 -0.349111404E+01 -0.286598436E+01
   H  0.405697271E+02  0.926648289E+00  0.349118648E+01
     4
 # iter = 77000  time[fs]=77.00000
   C -0.107893405E+02  0.131002712E+00  0.329210293E+00
   C  0.983263605E+01  0.392896775E-01 -0.313612156E+00
   H -0.429764178E+02 -0.352137008E+01 -0.289124784E+01
   H  0.409211905E+02  0.934922497E+00  0.352198361E+01
     4
 # iter = 77500  time[fs]=77.50000
   C -0.108923716E+02  0.132449792E+00  0.332517271E+00
   C  0.992725136E+01  0.396143821E-01 -0.316639550E+00
   H -0.433469558E+02 -0.355163089E+01 -0.291651553E+01
   H  0.412727069E+02  0.943198174E+00  0.355278623E+01
     4
 # iter = 78000  time[fs]=78.00000
   C -0.109954418E+02  0.133897337E+00  0.335825715E+00
   C  0.100219054E+02  0.399388907E-01 -0.319668517E+00
   H -0.437175424E+02 -0.358189637E+01 -0.294178736E+01
   H  0.416242752E+02  0.951475299E+00  0.358359427E+01
     4
 # iter = 78500  time[fs]=78.50000
   C -0.110985503E+02  0.135345340E+00  0.339135599E+00
   C  0.101165975E+02  0.402632062E-01 -0.322699028E+00
   H -0.440881770E+02 -0.361216646E+01 -0.296706327E+01
   H  0.419758947E+02  0.959753846E+00  0.361440762E+01
     4
 # iter = 79000  time[fs]=79.00000
   C -0.112016963E+02  0.136793795E+00  0.342446898E+00
   C  0.102113269E+02  0.405873317E-01 -0.325731055E+00
   H -0.444588587E+02 -0.364244109E+01 -0.299234320E+01
   H  0.423275644E+02  0.968033794E+00  0.364522622E+01
     4
 # iter = 79500  time[fs]=79.50000
   C -0.113048792E+02  0.138242693E+00  0.345759587E+00
   C  0.103060929E+02  0.409112700E-01 -0.328764573E+00
   H -0.448295867E+02 -0.367272017E+01 -0.301762706E+01
   H  0.426792837E+02  0.976315120E+00  0.367604997E+01
     4
 # iter = 80000  time[fs]=80.00000
   C -0.114080983E+02  0.139692029E+00  0.349073641E+00
   C  0.104008948E+02  0.412350240E-01 -0.331799555E+00
   H -0.452003603E+02 -0.370300364E+01 -0.304291482E+01
   H  0.430310516E+02  0.984597803E+00  0.370687880E+01
