     4
 # iter = 25000  time[fs]=25.00000
   C -0.988159734E+00  0.316760657E-01  0.581687695E-01
   C  0.969678555E+00 -0.339009457E-01 -0.129504792E-01
   H -0.520660428E+01  0.215418374E+00 -0.663858816E+00
   H  0.523170965E+01 -0.241840435E+00  0.512335156E+00
     4
 # iter = 25500  time[fs]=25.50000
   C -0.103349279E+01  0.322377732E-01  0.624244533E-01
   C  0.101074515E+01 -0.340062429E-01 -0.157530593E-01
   H -0.553456680E+01  0.228937486E+00 -0.709630425E+00
   H  0.554688489E+01 -0.256734187E+00  0.542470512E+00
     4
 # iter = 26000  time[fs]=26.00000
   C -0.108167764E+01  0.328911845E-01  0.668103369E-01
   C  0.105466273E+01 -0.342022207E-01 -0.186771401E-01
   H -0.586523892E+01  0.242572237E+00 -0.755798462E+00
   H  0.586477933E+01 -0.271755857E+00  0.572897906E+00
     4
 # iter = 26500  time[fs]=26.50000
   C -0.113247660E+01  0.336259927E-01  0.713196126E-01
   C  0.110119296E+01 -0.344786251E-01 -0.217168795E-01
   H -0.619831850E+01  0.256309788E+00 -0.802319417E+00
   H  0.618509886E+01 -0.286891971E+00  0.603585418E+00
     4
 # iter = 27000  time[fs]=27.00000
   C -0.118566872E+01  0.344330819E-01  0.759453967E-01
   C  0.115011442E+01 -0.348263937E-01 -0.248662075E-01
   H -0.653355032E+01  0.270139291E+00 -0.849156583E+00
   H  0.650759367E+01 -0.302131039E+00  0.634506100E+00
     4
 # iter = 27500  time[fs]=27.50000
   C -0.124105054E+01  0.353044317E-01  0.806808684E-01
   C  0.120122337E+01 -0.352375583E-01 -0.281189950E-01
   H -0.687071699E+01  0.284051505E+00 -0.896278699E+00
   H  0.683204996E+01 -0.317463192E+00  0.665636999E+00
     4
 # iter = 28000  time[fs]=28.00000
   C -0.129843599E+01  0.362330084E-01  0.855193771E-01
   C  0.125433354E+01 -0.357051352E-01 -0.314691851E-01
   H -0.720963189E+01  0.298038493E+00 -0.943658931E+00
   H  0.715828337E+01 -0.332879894E+00  0.696958398E+00
     4
 # iter = 28500  time[fs]=28.50000
   C -0.135765577E+01  0.372126548E-01  0.904545224E-01
   C  0.130927552E+01 -0.362230146E-01 -0.349108899E-01
   H -0.755013375E+01  0.312093395E+00 -0.991274067E+00
   H  0.748613394E+01 -0.348373717E+00  0.728453240E+00
     4
 # iter = 29000  time[fs]=29.00000
   C -0.141855637E+01  0.382379847E-01  0.954802063E-01
   C  0.136589575E+01 -0.367858548E-01 -0.384384578E-01
   H -0.789208225E+01  0.326210243E+00 -0.103910390E+01
   H  0.781546201E+01 -0.363938159E+00  0.760106669E+00
     4
 # iter = 29500  time[fs]=29.50000
   C -0.148099891E+01  0.393042854E-01  0.100590666E+00
   C  0.142405534E+01 -0.373889846E-01 -0.420465160E-01
   H -0.823535464E+01  0.340383814E+00 -0.108713071E+01
   H  0.814614497E+01 -0.379567497E+00  0.791905663E+00
     4
 # iter = 30000  time[fs]=30.00000
   C -0.154485794E+01  0.404074294E-01  0.105780487E+00
   C  0.148362884E+01 -0.380283154E-01 -0.457299947E-01
   H -0.857984291E+01  0.354609510E+00 -0.113533892E+01
   H  0.847807463E+01 -0.395256670E+00  0.823838749E+00
     4
 # iter = 30500  time[fs]=30.50000
   C -0.161002017E+01  0.415437969E-01  0.111044608E+00
   C  0.154450303E+01 -0.387002631E-01 -0.494841366E-01
   H -0.892545159E+01  0.368883267E+00 -0.118371469E+01
   H  0.881115509E+01 -0.411001180E+00  0.855895761E+00
     4
 # iter = 31000  time[fs]=31.00000
   C -0.167638337E+01  0.427102072E-01  0.116378315E+00
   C  0.160657568E+01 -0.394016807E-01 -0.533044971E-01
   H -0.927209585E+01  0.383201473E+00 -0.123224575E+01
   H  0.914530093E+01 -0.426797016E+00  0.888067652E+00
     4
 # iter = 31500  time[fs]=31.50000
   C -0.174385517E+01  0.439038596E-01  0.121777226E+00
   C  0.166975452E+01 -0.401297986E-01 -0.571869367E-01
   H -0.961970005E+01  0.397560906E+00 -0.128092110E+01
   H  0.948043579E+01 -0.442640581E+00  0.920346334E+00
     4
 # iter = 32000  time[fs]=32.00000
   C -0.181235210E+01  0.451222827E-01  0.127237278E+00
   C  0.173395614E+01 -0.408821740E-01 -0.611276085E-01
   H -0.996819641E+01  0.411958679E+00 -0.132973089E+01
   H  0.981649110E+01 -0.458528642E+00  0.952724547E+00
     4
 # iter = 32500  time[fs]=32.50000
   C -0.188179865E+01  0.463632894E-01  0.132754707E+00
   C  0.179910508E+01 -0.416566469E-01 -0.651229434E-01
   H -0.103175240E+02  0.426392194E+00 -0.137866622E+01
   H  0.101534051E+02 -0.474458280E+00  0.985195750E+00
     4
 # iter = 33000  time[fs]=33.00000
   C -0.195212639E+01  0.476249403E-01  0.138326029E+00
   C  0.186513300E+01 -0.424513025E-01 -0.691696337E-01
   H -0.106676279E+02  0.440859108E+00 -0.142771909E+01
   H  0.104911220E+02 -0.490426854E+00  0.101775403E+01
     4
 # iter = 33500  time[fs]=33.50000
   C -0.202327327E+01  0.489055103E-01  0.143948021E+00
   C  0.193197792E+01 -0.432644390E-01 -0.732646153E-01
   H -0.110184584E+02  0.455357299E+00 -0.147688220E+01
   H  0.108295912E+02 -0.506431964E+00  0.105039401E+01
     4
 # iter = 34000  time[fs]=34.00000
   C -0.209518291E+01  0.502034614E-01  0.149617699E+00
   C  0.199958352E+01 -0.440945402E-01 -0.774050507E-01
   H -0.113699702E+02  0.469884841E+00 -0.152614894E+01
   H  0.111687666E+02 -0.522471423E+00  0.108311082E+01
     4
 # iter = 34500  time[fs]=34.50000
   C -0.216780401E+01  0.515174189E-01  0.155332304E+00
   C  0.206789857E+01 -0.449402511E-01 -0.815883117E-01
   H -0.117221222E+02  0.484439977E+00 -0.157551325E+01
   H  0.115086063E+02 -0.538543235E+00  0.111590000E+01
     4
 # iter = 35000  time[fs]=35.00000
   C -0.224108980E+01  0.528461504E-01  0.161089280E+00
   C  0.213687639E+01 -0.458003583E-01 -0.858119638E-01
   H -0.120748770E+02  0.499021105E+00 -0.162496961E+01
   H  0.118490719E+02 -0.554645571E+00  0.114875746E+01
     4
 # iter = 35500  time[fs]=35.50000
   C -0.231499759E+01  0.541885488E-01  0.166886260E+00
   C  0.220647435E+01 -0.466737721E-01 -0.900737505E-01
   H -0.124282001E+02  0.513626754E+00 -0.167451294E+01
   H  0.121901282E+02 -0.570776752E+00  0.118167947E+01
     4
 # iter = 36000  time[fs]=36.00000
   C -0.238948836E+01  0.555436167E-01  0.172721049E+00
   C  0.227665348E+01 -0.475595116E-01 -0.943715790E-01
   H -0.127820600E+02  0.528255578E+00 -0.172413860E+01
   H  0.125317429E+02 -0.586935234E+00  0.121466258E+01
     4
 # iter = 36500  time[fs]=36.50000
   C -0.246452635E+01  0.569104535E-01  0.178591611E+00
   C  0.234737809E+01 -0.484566914E-01 -0.987035069E-01
   H -0.131364277E+02  0.542906335E+00 -0.177384226E+01
   H  0.128738862E+02 -0.603119592E+00  0.124770363E+01
     4
 # iter = 37000  time[fs]=37.00000
   C -0.254007874E+01  0.582882441E-01  0.184496057E+00
   C  0.241861543E+01 -0.493645109E-01 -0.103067730E+00
   H -0.134912764E+02  0.557577881E+00 -0.182361997E+01
   H  0.132165306E+02 -0.619328509E+00  0.128079967E+01
     4
 # iter = 37500  time[fs]=37.50000
   C -0.261611538E+01  0.596762491E-01  0.190432627E+00
   C  0.249033541E+01 -0.502822439E-01 -0.107462572E+00
   H -0.138465814E+02  0.572269159E+00 -0.187346806E+01
   H  0.135596507E+02 -0.635560767E+00  0.131394799E+01
     4
 # iter = 38000  time[fs]=38.00000
   C -0.269260852E+01  0.610737960E-01  0.196399688E+00
   C  0.256251032E+01 -0.512092309E-01 -0.111886470E+00
   H -0.142023199E+02  0.586979190E+00 -0.192338310E+01
   H  0.139032230E+02 -0.651815234E+00  0.134714609E+01
     4
 # iter = 38500  time[fs]=38.50000
   C -0.276953255E+01  0.624802723E-01  0.202395717E+00
   C  0.263511463E+01 -0.521448711E-01 -0.116337973E+00
   H -0.145584706E+02  0.601707065E+00 -0.197336195E+01
   H  0.142472256E+02 -0.668090860E+00  0.138039160E+01
     4
 # iter = 39000  time[fs]=39.00000
   C -0.284686386E+01  0.638951185E-01  0.208419295E+00
   C  0.270812475E+01 -0.530886161E-01 -0.120815724E+00
   H -0.149150139E+02  0.616451941E+00 -0.202340165E+01
   H  0.145916382E+02 -0.684386666E+00  0.141368237E+01
     4
 # iter = 39500  time[fs]=39.50000
   C -0.292458057E+01  0.653178227E-01  0.214469097E+00
   C  0.278151887E+01 -0.540399648E-01 -0.125318457E+00
   H -0.152719313E+02  0.631213030E+00 -0.207349945E+01
   H  0.149364419E+02 -0.700701739E+00  0.144701635E+01
     4
 # iter = 40000  time[fs]=40.00000
   C -0.300266243E+01  0.667479156E-01  0.220543885E+00
   C  0.285527679E+01 -0.549984577E-01 -0.129844992E+00
   H -0.156292060E+02  0.645989601E+00 -0.212365280E+01
   H  0.152816190E+02 -0.717035227E+00  0.148039165E+01
     4
 # iter = 40500  time[fs]=40.50000
   C -0.308109067E+01  0.681849663E-01  0.226642502E+00
   C  0.292937977E+01 -0.559636732E-01 -0.134394223E+00
   H -0.159868217E+02  0.660780968E+00 -0.217385929E+01
   H  0.156271531E+02 -0.733386334E+00  0.151380650E+01
     4
 # iter = 41000  time[fs]=41.00000
   C -0.315984783E+01  0.696285781E-01  0.232763864E+00
   C  0.300381040E+01 -0.569352234E-01 -0.138965115E+00
   H -0.163447638E+02  0.675586491E+00 -0.222411668E+01
   H  0.159730286E+02 -0.749754312E+00  0.154725923E+01
     4
 # iter = 41500  time[fs]=41.50000
   C -0.323891767E+01  0.710783852E-01  0.238906957E+00
   C  0.307855248E+01 -0.579127512E-01 -0.143556699E+00
   H -0.167030181E+02  0.690405571E+00 -0.227442286E+01
   H  0.163192311E+02 -0.766138460E+00  0.158074829E+01
     4
 # iter = 42000  time[fs]=42.00000
   C -0.331828507E+01  0.725340501E-01  0.245070828E+00
   C  0.315359095E+01 -0.588959268E-01 -0.148168064E+00
   H -0.170615717E+02  0.705237644E+00 -0.232477585E+01
   H  0.166657471E+02 -0.782538122E+00  0.161427220E+01
     4
 # iter = 42500  time[fs]=42.50000
   C -0.339793593E+01  0.739952604E-01  0.251254582E+00
   C  0.322891171E+01 -0.598844454E-01 -0.152798356E+00
   H -0.174204121E+02  0.720082183E+00 -0.237517379E+01
   H  0.170125638E+02 -0.798952678E+00  0.164782959E+01
     4
 # iter = 43000  time[fs]=43.00000
   C -0.347785707E+01  0.754617267E-01  0.257457379E+00
   C  0.330450165E+01 -0.608780248E-01 -0.157446773E+00
   H -0.177795279E+02  0.734938690E+00 -0.242561493E+01
   H  0.173596691E+02 -0.815381546E+00  0.168141917E+01
     4
 # iter = 43500  time[fs]=43.50000
   C -0.355803617E+01  0.769331807E-01  0.263678427E+00
   C  0.338034846E+01 -0.618764031E-01 -0.162112558E+00
   H -0.181389081E+02  0.749806696E+00 -0.247609762E+01
   H  0.177070519E+02 -0.831824177E+00  0.171503970E+01
     4
 # iter = 44000  time[fs]=44.00000
   C -0.363846169E+01  0.784093727E-01  0.269916981E+00
   C  0.345644066E+01 -0.628793375E-01 -0.166795001E+00
   H -0.184985426E+02  0.764685762E+00 -0.252662030E+01
   H  0.180547014E+02 -0.848280052E+00  0.174869003E+01
     4
 # iter = 44500  time[fs]=44.50000
   C -0.371912282E+01  0.798900706E-01  0.276172339E+00
   C  0.353276745E+01 -0.638866017E-01 -0.171493431E+00
   H -0.188584216E+02  0.779575471E+00 -0.257718150E+01
   H  0.184026077E+02 -0.864748681E+00  0.178236908E+01
     4
 # iter = 45000  time[fs]=45.00000
   C -0.380000942E+01  0.813750580E-01  0.282443839E+00
   C  0.360931873E+01 -0.648979853E-01 -0.176207216E+00
   H -0.192185361E+02  0.794475429E+00 -0.262777982E+01
   H  0.187507611E+02 -0.881229602E+00  0.181607580E+01
     4
 # iter = 45500  time[fs]=45.50000
   C -0.388111194E+01  0.828641331E-01  0.288730855E+00
   C  0.368608498E+01 -0.659132918E-01 -0.180935756E+00
   H -0.195788773E+02  0.809385263E+00 -0.267841395E+01
   H  0.190991527E+02 -0.897722377E+00  0.184980923E+01
     4
 # iter = 46000  time[fs]=46.00000
   C -0.396242143E+01  0.843571071E-01  0.295032794E+00
   C  0.376305726E+01 -0.669323379E-01 -0.185678489E+00
   H -0.199394371E+02  0.824304623E+00 -0.272908263E+01
   H  0.194477741E+02 -0.914226589E+00  0.188356843E+01
     4
 # iter = 46500  time[fs]=46.50000
   C -0.404392944E+01  0.858538035E-01  0.301349097E+00
   C  0.384022718E+01 -0.679549520E-01 -0.190434880E+00
   H -0.203002078E+02  0.839233174E+00 -0.277978469E+01
   H  0.197966171E+02 -0.930741844E+00  0.191735252E+01
     4
 # iter = 47000  time[fs]=47.00000
   C -0.412562801E+01  0.873540569E-01  0.307679235E+00
   C  0.391758678E+01 -0.689809735E-01 -0.195204423E+00
   H -0.206611820E+02  0.854170600E+00 -0.283051899E+01
   H  0.201456741E+02 -0.947267770E+00  0.195116068E+01
     4
 # iter = 47500  time[fs]=47.50000
   C -0.420750964E+01  0.888577124E-01  0.314022705E+00
   C  0.399512860E+01 -0.700102521E-01 -0.199986638E+00
   H -0.210223529E+02  0.869116599E+00 -0.288128447E+01
   H  0.204949378E+02 -0.963804009E+00  0.198499210E+01
     4
 # iter = 48000  time[fs]=48.00000
   C -0.428956725E+01  0.903646243E-01  0.320379030E+00
   C  0.407284557E+01 -0.710426465E-01 -0.204781071E+00
   H -0.213837136E+02  0.884070887E+00 -0.293208011E+01
   H  0.208444013E+02 -0.980350224E+00  0.201884603E+01
     4
 # iter = 48500  time[fs]=48.50000
   C -0.437179413E+01  0.918746558E-01  0.326747759E+00
   C  0.415073102E+01 -0.720780240E-01 -0.209587292E+00
   H -0.217452581E+02  0.899033192E+00 -0.298290495E+01
   H  0.211940581E+02 -0.996906094E+00  0.205272175E+01
     4
 # iter = 49000  time[fs]=49.00000
   C -0.445418395E+01  0.933876781E-01  0.333128462E+00
   C  0.422877862E+01 -0.731162599E-01 -0.214404889E+00
   H -0.221069802E+02  0.914003255E+00 -0.303375805E+01
   H  0.215439020E+02 -0.101347131E+01  0.208661857E+01
     4
 # iter = 49500  time[fs]=49.50000
   C -0.453673071E+01  0.949035700E-01  0.339520732E+00
   C  0.430698241E+01 -0.741572367E-01 -0.219233474E+00
   H -0.224688743E+02  0.928980830E+00 -0.308463855E+01
   H  0.218939269E+02 -0.103004558E+01  0.212053586E+01
     4
 # iter = 50000  time[fs]=50.00000
   C -0.461942872E+01  0.964222169E-01  0.345924178E+00
   C  0.438533671E+01 -0.752008436E-01 -0.224072677E+00
   H -0.228309349E+02  0.943965682E+00 -0.313554560E+01
   H  0.222441272E+02 -0.104662863E+01  0.215447297E+01
     4
 # iter = 50500  time[fs]=50.50000
   C -0.470227259E+01  0.979435111E-01  0.352338433E+00
   C  0.446383616E+01 -0.762469763E-01 -0.228922145E+00
   H -0.231931570E+02  0.958957588E+00 -0.318647840E+01
   H  0.225944975E+02 -0.106322019E+01  0.218842932E+01
     4
 # iter = 51000  time[fs]=51.00000
   C -0.478525720E+01  0.994673506E-01  0.358763143E+00
   C  0.454247564E+01 -0.772955362E-01 -0.233781541E+00
   H -0.235555355E+02  0.973956332E+00 -0.323743619E+01
   H  0.229450326E+02 -0.107982001E+01  0.222240433E+01
     4
 # iter = 51500  time[fs]=51.50000
   C -0.486837769E+01  0.100993639E+00  0.365197973E+00
   C  0.462125033E+01 -0.783464301E-01 -0.238650546E+00
   H -0.239180657E+02  0.988961712E+00 -0.328841823E+01
   H  0.232957276E+02 -0.109642784E+01  0.225639746E+01
     4
 # iter = 52000  time[fs]=52.00000
   C -0.495162943E+01  0.102522285E+00  0.371642603E+00
   C  0.470015561E+01 -0.793995698E-01 -0.243528855E+00
   H -0.242807431E+02  0.100397353E+01 -0.333942383E+01
   H  0.236465777E+02 -0.111304345E+01  0.229040820E+01
     4
 # iter = 52500  time[fs]=52.50000
   C -0.503500803E+01  0.104053202E+00  0.378096727E+00
   C  0.477918709E+01 -0.804548719E-01 -0.248416176E+00
   H -0.246435634E+02  0.101899161E+01 -0.339045231E+01
   H  0.239975785E+02 -0.112966662E+01  0.232443604E+01
     4
 # iter = 53000  time[fs]=53.00000
   C -0.511850930E+01  0.105586308E+00  0.384560053E+00
   C  0.485834062E+01 -0.815122572E-01 -0.253312231E+00
   H -0.250065225E+02  0.103401575E+01 -0.344150304E+01
   H  0.243487256E+02 -0.114629713E+01  0.235848051E+01
     4
 # iter = 53500  time[fs]=53.50000
   C -0.520212925E+01  0.107121525E+00  0.391032301E+00
   C  0.493761221E+01 -0.825716508E-01 -0.258216754E+00
   H -0.253696164E+02  0.104904580E+01 -0.349257539E+01
   H  0.247000149E+02 -0.116293479E+01  0.239254114E+01
     4
 # iter = 54000  time[fs]=54.00000
   C -0.528586407E+01  0.108658781E+00  0.397513206E+00
   C  0.501699808E+01 -0.836329815E-01 -0.263129490E+00
   H -0.257328413E+02  0.106408159E+01 -0.354366878E+01
   H  0.250514425E+02 -0.117957939E+01  0.242661751E+01
     4
 # iter = 54500  time[fs]=54.50000
   C -0.536971013E+01  0.110198003E+00  0.404002511E+00
   C  0.509649460E+01 -0.846961817E-01 -0.268050197E+00
   H -0.260961937E+02  0.107912296E+01 -0.359478264E+01
   H  0.254030044E+02 -0.119623074E+01  0.246070918E+01
     4
 # iter = 55000  time[fs]=55.00000
   C -0.545366398E+01  0.111739127E+00  0.410499971E+00
   C  0.517609834E+01 -0.857611870E-01 -0.272978640E+00
   H -0.264596699E+02  0.109416976E+01 -0.364591643E+01
   H  0.257546971E+02 -0.121288868E+01  0.249481575E+01
     4
 # iter = 55500  time[fs]=55.50000
   C -0.553772230E+01  0.113282087E+00  0.417005354E+00
   C  0.525580599E+01 -0.868279364E-01 -0.277914598E+00
   H -0.268232668E+02  0.110922185E+01 -0.369706963E+01
   H  0.261065171E+02 -0.122955301E+01  0.252893684E+01
     4
 # iter = 56000  time[fs]=56.00000
   C -0.562188192E+01  0.114826824E+00  0.423518434E+00
   C  0.533561441E+01 -0.878963716E-01 -0.282857856E+00
   H -0.271869810E+02  0.112427908E+01 -0.374824173E+01
   H  0.264584609E+02 -0.124622359E+01  0.256307207E+01
     4
 # iter = 56500  time[fs]=56.50000
   C -0.570613982E+01  0.116373280E+00  0.430038995E+00
   C  0.541552057E+01 -0.889664371E-01 -0.287808209E+00
   H -0.275508095E+02  0.113934132E+01 -0.379943225E+01
   H  0.268105254E+02 -0.126290024E+01  0.259722108E+01
     4
 # iter = 57000  time[fs]=57.00000
   C -0.579049310E+01  0.117921401E+00  0.436566832E+00
   C  0.549552159E+01 -0.900380801E-01 -0.292765461E+00
   H -0.279147493E+02  0.115440845E+01 -0.385064072E+01
   H  0.271627075E+02 -0.127958281E+01  0.263138352E+01
     4
 # iter = 57500  time[fs]=57.50000
   C -0.587493900E+01  0.119471132E+00  0.443101746E+00
   C  0.557561472E+01 -0.911112502E-01 -0.297729422E+00
   H -0.282787976E+02  0.116948034E+01 -0.390186671E+01
   H  0.275150041E+02 -0.129627115E+01  0.266555907E+01
     4
 # iter = 58000  time[fs]=58.00000
   C -0.595947485E+01  0.121022426E+00  0.449643546E+00
   C  0.565579731E+01 -0.921858992E-01 -0.302699911E+00
   H -0.286429517E+02  0.118455687E+01 -0.395310977E+01
   H  0.278674124E+02 -0.131296513E+01  0.269974739E+01
     4
 # iter = 58500  time[fs]=58.50000
   C -0.604409810E+01  0.122575232E+00  0.456192049E+00
   C  0.573606682E+01 -0.932619811E-01 -0.307676754E+00
   H -0.290072088E+02  0.119963792E+01 -0.400436949E+01
   H  0.282199297E+02 -0.132966459E+01  0.273394819E+01
     4
 # iter = 59000  time[fs]=59.00000
   C -0.612880631E+01  0.124129507E+00  0.462747079E+00
   C  0.581642081E+01 -0.943394520E-01 -0.312659783E+00
   H -0.293715665E+02  0.121472339E+01 -0.405564548E+01
   H  0.285725531E+02 -0.134636942E+01  0.276816116E+01
     4
 # iter = 59500  time[fs]=59.50000
   C -0.621359714E+01  0.125685206E+00  0.469308467E+00
   C  0.589685696E+01 -0.954182699E-01 -0.317648838E+00
   H -0.297360222E+02  0.122981316E+01 -0.410693734E+01
   H  0.289252802E+02 -0.136307948E+01  0.280238601E+01
     4
 # iter = 60000  time[fs]=60.00000
   C -0.629846834E+01  0.127242286E+00  0.475876049E+00
   C  0.597737302E+01 -0.964983945E-01 -0.322643762E+00
   H -0.301005737E+02  0.124490714E+01 -0.415824471E+01
   H  0.292781085E+02 -0.137979465E+01  0.283662248E+01
     4
 # iter = 60500  time[fs]=60.50000
   C -0.638341774E+01  0.128800709E+00  0.482449670E+00
   C  0.605796684E+01 -0.975797874E-01 -0.327644408E+00
   H -0.304652187E+02  0.126000523E+01 -0.420956723E+01
   H  0.296310355E+02 -0.139651482E+01  0.287087028E+01
     4
 # iter = 61000  time[fs]=61.00000
   C -0.646844326E+01  0.130360435E+00  0.489029178E+00
   C  0.613863634E+01 -0.986624116E-01 -0.332650630E+00
   H -0.308299549E+02  0.127510733E+01 -0.426090454E+01
   H  0.299840590E+02 -0.141323985E+01  0.290512916E+01
     4
 # iter = 61500  time[fs]=61.50000
   C -0.655354290E+01  0.131921427E+00  0.495614426E+00
   C  0.621937955E+01 -0.997462318E-01 -0.337662291E+00
   H -0.311947802E+02  0.129021334E+01 -0.431225631E+01
   H  0.303371768E+02 -0.142996965E+01  0.293939887E+01
     4
 # iter = 62000  time[fs]=62.00000
   C -0.663871475E+01  0.133483651E+00  0.502205276E+00
   C  0.630019454E+01 -0.100831214E+00 -0.342679257E+00
   H -0.315596926E+02  0.130532319E+01 -0.436362222E+01
   H  0.306903866E+02 -0.144670410E+01  0.297367918E+01
     4
 # iter = 62500  time[fs]=62.50000
   C -0.672395695E+01  0.135047071E+00  0.508801590E+00
   C  0.638107947E+01 -0.101917326E+00 -0.347701400E+00
   H -0.319246902E+02  0.132043678E+01 -0.441500196E+01
   H  0.310436864E+02 -0.146344311E+01  0.300796983E+01
     4
 # iter = 63000  time[fs]=63.00000
   C -0.680926771E+01  0.136611656E+00  0.515403240E+00
   C  0.646203258E+01 -0.103004536E+00 -0.352728594E+00
   H -0.322897709E+02  0.133555402E+01 -0.446639522E+01
   H  0.313970742E+02 -0.148018657E+01  0.304227062E+01
     4
 # iter = 63500  time[fs]=63.50000
   C -0.689464533E+01  0.138177374E+00  0.522010099E+00
   C  0.654305214E+01 -0.104092815E+00 -0.357760721E+00
   H -0.326549329E+02  0.135067485E+01 -0.451780171E+01
   H  0.317505481E+02 -0.149693439E+01  0.307658132E+01
     4
 # iter = 64000  time[fs]=64.00000
   C -0.698008814E+01  0.139744196E+00  0.528622044E+00
   C  0.662413651E+01 -0.105182133E+00 -0.362797664E+00
   H -0.330201745E+02  0.136579917E+01 -0.456922114E+01
   H  0.321041061E+02 -0.151368647E+01  0.311090172E+01
     4
 # iter = 64500  time[fs]=64.50000
   C -0.706559456E+01  0.141312091E+00  0.535238959E+00
   C  0.670528412E+01 -0.106272463E+00 -0.367839311E+00
   H -0.333854940E+02  0.138092692E+01 -0.462065324E+01
   H  0.324577464E+02 -0.153044271E+01  0.314523161E+01
     4
 # iter = 65000  time[fs]=65.00000
   C -0.715116304E+01  0.142881032E+00  0.541860729E+00
   C  0.678649341E+01 -0.107363779E+00 -0.372885556E+00
   H -0.337508895E+02  0.139605803E+01 -0.467209775E+01
   H  0.328114673E+02 -0.154720304E+01  0.317957079E+01
     4
 # iter = 65500  time[fs]=65.50000
   C -0.723679210E+01  0.144450992E+00  0.548487246E+00
   C  0.686776293E+01 -0.108456054E+00 -0.377936293E+00
   H -0.341163596E+02  0.141119241E+01 -0.472355441E+01
   H  0.331652670E+02 -0.156396737E+01  0.321391909E+01
     4
 # iter = 66000  time[fs]=66.00000
   C -0.732248030E+01  0.146021946E+00  0.555118402E+00
   C  0.694909124E+01 -0.109549263E+00 -0.382991421E+00
   H -0.344819027E+02  0.142633001E+01 -0.477502297E+01
   H  0.335191440E+02 -0.158073561E+01  0.324827629E+01
     4
 # iter = 66500  time[fs]=66.50000
   C -0.740822627E+01  0.147593868E+00  0.561754095E+00
   C  0.703047696E+01 -0.110643384E+00 -0.388050842E+00
   H -0.348475171E+02  0.144147075E+01 -0.482650318E+01
   H  0.338730965E+02 -0.159750769E+01  0.328264224E+01
     4
 # iter = 67000  time[fs]=67.00000
   C -0.749402866E+01  0.149166735E+00  0.568394226E+00
   C  0.711191876E+01 -0.111738393E+00 -0.393114463E+00
   H -0.352132016E+02  0.145661457E+01 -0.487799480E+01
   H  0.342271231E+02 -0.161428352E+01  0.331701674E+01
     4
 # iter = 67500  time[fs]=67.50000
   C -0.757988619E+01  0.150740523E+00  0.575038698E+00
   C  0.719341537E+01 -0.112834269E+00 -0.398182192E+00
   H -0.355789545E+02  0.147176142E+01 -0.492949763E+01
   H  0.345812223E+02 -0.163106303E+01  0.335139963E+01
     4
 # iter = 68000  time[fs]=68.00000
   C -0.766579760E+01  0.152315210E+00  0.581687418E+00
   C  0.727496553E+01 -0.113930989E+00 -0.403253940E+00
   H -0.359447746E+02  0.148691122E+01 -0.498101142E+01
   H  0.349353925E+02 -0.164784615E+01  0.338579075E+01
     4
 # iter = 68500  time[fs]=68.50000
   C -0.775176169E+01  0.153890774E+00  0.588340297E+00
   C  0.735656805E+01 -0.115028533E+00 -0.408329622E+00
   H -0.363106605E+02  0.150206392E+01 -0.503253597E+01
   H  0.352896324E+02 -0.166463281E+01  0.342018994E+01
     4
 # iter = 69000  time[fs]=69.00000
   C -0.783777729E+01  0.155467195E+00  0.594997245E+00
   C  0.743822176E+01 -0.116126882E+00 -0.413409155E+00
   H -0.366766108E+02  0.151721946E+01 -0.508407107E+01
   H  0.356439405E+02 -0.168142293E+01  0.345459703E+01
     4
 # iter = 69500  time[fs]=69.50000
   C -0.792384327E+01  0.157044452E+00  0.601658180E+00
   C  0.751992554E+01 -0.117226017E+00 -0.418492457E+00
   H -0.370426244E+02  0.153237780E+01 -0.513561651E+01
   H  0.359983157E+02 -0.169821646E+01  0.348901188E+01
     4
 # iter = 70000  time[fs]=70.00000
   C -0.800995853E+01  0.158622527E+00  0.608323018E+00
   C  0.760167829E+01 -0.118325918E+00 -0.423579452E+00
   H -0.374087000E+02  0.154753886E+01 -0.518717211E+01
   H  0.363527564E+02 -0.171501332E+01  0.352343434E+01
     4
 # iter = 70500  time[fs]=70.50000
   C -0.809612201E+01  0.160201400E+00  0.614991680E+00
   C  0.768347897E+01 -0.119426568E+00 -0.428670062E+00
   H -0.377748363E+02  0.156270261E+01 -0.523873766E+01
   H  0.367072616E+02 -0.173181346E+01  0.355786428E+01
     4
 # iter = 71000  time[fs]=71.00000
   C -0.818233270E+01  0.161781053E+00  0.621664088E+00
   C  0.776532656E+01 -0.120527950E+00 -0.433764216E+00
   H -0.381410323E+02  0.157786899E+01 -0.529031298E+01
   H  0.370618299E+02 -0.174861680E+01  0.359230154E+01
     4
 # iter = 71500  time[fs]=71.50000
   C -0.826858958E+01  0.163361469E+00  0.628340168E+00
   C  0.784722006E+01 -0.121630048E+00 -0.438861842E+00
   H -0.385072868E+02  0.159303795E+01 -0.534189790E+01
   H  0.374164602E+02 -0.176542330E+01  0.362674599E+01
     4
 # iter = 72000  time[fs]=72.00000
   C -0.835489171E+01  0.164942630E+00  0.635019846E+00
   C  0.792915851E+01 -0.122732844E+00 -0.443962870E+00
   H -0.388735987E+02  0.160820944E+01 -0.539349223E+01
   H  0.377711513E+02 -0.178223290E+01  0.366119751E+01
     4
 # iter = 72500  time[fs]=72.50000
   C -0.844123814E+01  0.166524521E+00  0.641703053E+00
   C  0.801114099E+01 -0.123836324E+00 -0.449067233E+00
   H -0.392399670E+02  0.162338342E+01 -0.544509581E+01
   H  0.381259021E+02 -0.179904552E+01  0.369565597E+01
     4
 # iter = 73000  time[fs]=73.00000
   C -0.852762796E+01  0.168107125E+00  0.648389719E+00
   C  0.809316659E+01 -0.124940472E+00 -0.454174867E+00
   H -0.396063905E+02  0.163855984E+01 -0.549670847E+01
   H  0.384807115E+02 -0.181586114E+01  0.373012123E+01
     4
 # iter = 73500  time[fs]=73.50000
   C -0.861406031E+01  0.169690427E+00  0.655079777E+00
   C  0.817523443E+01 -0.126045274E+00 -0.459285708E+00
   H -0.399728684E+02  0.165373866E+01 -0.554833004E+01
   H  0.388355785E+02 -0.183267968E+01  0.376459319E+01
     4
 # iter = 74000  time[fs]=74.00000
   C -0.870053431E+01  0.171274412E+00  0.661773163E+00
   C  0.825734368E+01 -0.127150715E+00 -0.464399695E+00
   H -0.403393996E+02  0.166891984E+01 -0.559996038E+01
   H  0.391905019E+02 -0.184950109E+01  0.379907172E+01
     4
 # iter = 74500  time[fs]=74.50000
   C -0.878704916E+01  0.172859066E+00  0.668469814E+00
   C  0.833949350E+01 -0.128256782E+00 -0.469516767E+00
   H -0.407059831E+02  0.168410332E+01 -0.565159932E+01
   H  0.395454808E+02 -0.186632534E+01  0.383355671E+01
     4
 # iter = 75000  time[fs]=75.00000
   C -0.887360403E+01  0.174444375E+00  0.675169669E+00
   C  0.842168310E+01 -0.129363461E+00 -0.474636867E+00
   H -0.410726181E+02  0.169928908E+01 -0.570324672E+01
   H  0.399005143E+02 -0.188315236E+01  0.386804804E+01
     4
 # iter = 75500  time[fs]=75.50000
   C -0.896019816E+01  0.176030324E+00  0.681872667E+00
   C  0.850391169E+01 -0.130470741E+00 -0.479759938E+00
   H -0.414393035E+02  0.171447707E+01 -0.575490243E+01
   H  0.402556013E+02 -0.189998211E+01  0.390254561E+01
     4
 # iter = 76000  time[fs]=76.00000
   C -0.904683077E+01  0.177616902E+00  0.688578752E+00
   C  0.858617852E+01 -0.131578607E+00 -0.484885925E+00
   H -0.418060387E+02  0.172966725E+01 -0.580656631E+01
   H  0.406107409E+02 -0.191681454E+01  0.393704931E+01
     4
 # iter = 76500  time[fs]=76.50000
   C -0.913350114E+01  0.179204094E+00  0.695287866E+00
   C  0.866848287E+01 -0.132687048E+00 -0.490014775E+00
   H -0.421728226E+02  0.174485959E+01 -0.585823822E+01
   H  0.409659323E+02 -0.193364961E+01  0.397155904E+01
     4
 # iter = 77000  time[fs]=77.00000
   C -0.922020854E+01  0.180791889E+00  0.701999955E+00
   C  0.875082401E+01 -0.133796053E+00 -0.495146435E+00
   H -0.425396545E+02  0.176005405E+01 -0.590991803E+01
   H  0.413211745E+02 -0.195048727E+01  0.400607470E+01
     4
 # iter = 77500  time[fs]=77.50000
   C -0.930695228E+01  0.182380275E+00  0.708714965E+00
   C  0.883320125E+01 -0.134905610E+00 -0.500280856E+00
   H -0.429065335E+02  0.177525059E+01 -0.596160560E+01
   H  0.416764666E+02 -0.196732747E+01  0.404059619E+01
     4
 # iter = 78000  time[fs]=78.00000
   C -0.939373169E+01  0.183969239E+00  0.715432845E+00
   C  0.891561392E+01 -0.136015707E+00 -0.505417987E+00
   H -0.432734588E+02  0.179044918E+01 -0.601330081E+01
   H  0.420318079E+02 -0.198417019E+01  0.407512341E+01
     4
 # iter = 78500  time[fs]=78.50000
   C -0.948054609E+01  0.185558772E+00  0.722153543E+00
   C  0.899806136E+01 -0.137126335E+00 -0.510557781E+00
   H -0.436404298E+02  0.180564978E+01 -0.606500353E+01
   H  0.423871975E+02 -0.200101537E+01  0.410965627E+01
     4
 # iter = 79000  time[fs]=79.00000
   C -0.956739486E+01  0.187148861E+00  0.728877011E+00
   C  0.908054293E+01 -0.138237482E+00 -0.515700191E+00
   H -0.440074455E+02  0.182085237E+01 -0.611671364E+01
   H  0.427426347E+02 -0.201786297E+01  0.414419467E+01
     4
 # iter = 79500  time[fs]=79.50000
   C -0.965427736E+01  0.188739495E+00  0.735603201E+00
   C  0.916305802E+01 -0.139349138E+00 -0.520845171E+00
   H -0.443745053E+02  0.183605690E+01 -0.616843103E+01
   H  0.430981185E+02 -0.203471296E+01  0.417873854E+01
     4
 # iter = 80000  time[fs]=80.00000
   C -0.974119299E+01  0.190330665E+00  0.742332064E+00
   C  0.924560602E+01 -0.140461295E+00 -0.525992678E+00
   H -0.447416084E+02  0.185126335E+01 -0.622015557E+01
   H  0.434536484E+02 -0.205156529E+01  0.421328778E+01
