     4
 # iter = 25000  time[fs]=25.00000
   C -0.964402994E+00  0.310210263E-02 -0.423293818E-01
   C  0.102988934E+01 -0.618426254E-01  0.325078910E-02
   H -0.529995671E+01 -0.189485170E+00  0.358373379E+00
   H  0.533024171E+01  0.313316201E+00 -0.558084188E+00
     4
 # iter = 25500  time[fs]=25.50000
   C -0.100793872E+01  0.371497504E-02 -0.435793931E-01
   C  0.107355200E+01 -0.648323099E-01  0.616929451E-02
   H -0.563106372E+01 -0.202441016E+00  0.384400247E+00
   H  0.565029479E+01  0.335861729E+00 -0.591839653E+00
     4
 # iter = 26000  time[fs]=26.00000
   C -0.105465522E+01  0.443758087E-02 -0.449140522E-01
   C  0.112039507E+01 -0.679393606E-01  0.917922343E-02
   H -0.596481098E+01 -0.215496914E+00  0.410642086E+00
   H  0.597299257E+01  0.358598902E+00 -0.625891397E+00
     4
 # iter = 26500  time[fs]=26.50000
   C -0.110428751E+01  0.526158475E-02 -0.463288590E-01
   C  0.117015306E+01 -0.711546624E-01  0.122753884E-01
   H -0.630090686E+01 -0.228642289E+00  0.437075516E+00
   H  0.629804933E+01  0.381507788E+00 -0.660207792E+00
     4
 # iter = 27000  time[fs]=27.00000
   C -0.115658810E+01  0.617911632E-02 -0.478192389E-01
   C  0.122257816E+01 -0.744696794E-01  0.154526270E-01
   H -0.663910478E+01 -0.241868187E+00  0.463680802E+00
   H  0.662522250E+01  0.404571448E+00 -0.694762049E+00
     4
 # iter = 27500  time[fs]=27.50000
   C -0.121132833E+01  0.718282162E-02 -0.493806466E-01
   C  0.127744147E+01 -0.778764847E-01  0.187058872E-01
   H -0.697919450E+01 -0.255166956E+00  0.490441131E+00
   H  0.695430447E+01  0.427775354E+00 -0.729531277E+00
     4
 # iter = 28000  time[fs]=28.00000
   C -0.126829867E+01  0.826588539E-02 -0.510086463E-01
   C  0.133453334E+01 -0.813677664E-01  0.220302937E-01
   H -0.732099539E+01 -0.268532001E+00  0.517342060E+00
   H  0.728511629E+01  0.451106951E+00 -0.764495754E+00
     4
 # iter = 28500  time[fs]=28.50000
   C -0.132730822E+01  0.942203127E-02 -0.526989701E-01
   C  0.139366279E+01 -0.849368148E-01  0.254211945E-01
   H -0.766435116E+01 -0.281957597E+00  0.544371087E+00
   H  0.761750267E+01  0.474555314E+00 -0.799638372E+00
     4
 # iter = 29000  time[fs]=29.00000
   C -0.138818384E+01  0.106455065E-01 -0.544475563E-01
   C  0.145465661E+01 -0.885774967E-01  0.288741904E-01
   H -0.800912573E+01 -0.295438739E+00  0.571517318E+00
   H  0.795132802E+01  0.498110873E+00 -0.834944188E+00
     4
 # iter = 29500  time[fs]=29.50000
   C -0.145076886E+01  0.119310562E-01 -0.562505725E-01
   C  0.151735815E+01 -0.922842215E-01  0.323851511E-01
   H -0.835519992E+01 -0.308971026E+00  0.598771203E+00
   H  0.828647333E+01  0.521765198E+00 -0.870400075E+00
     4
 # iter = 30000  time[fs]=30.00000
   C -0.151492186E+01  0.132738916E-01 -0.581044260E-01
   C  0.158162598E+01 -0.960519027E-01  0.359502195E-01
   H -0.870246879E+01 -0.322550567E+00  0.626124318E+00
   H  0.862283354E+01  0.545510824E+00 -0.905994435E+00
     4
 # iter = 30500  time[fs]=30.50000
   C -0.158051523E+01  0.146696556E-01 -0.600057661E-01
   C  0.164733252E+01 -0.998759175E-01  0.395658088E-01
   H -0.905083946E+01 -0.336173904E+00  0.653569198E+00
   H  0.896031552E+01  0.569341108E+00 -0.941716973E+00
     4
 # iter = 31000  time[fs]=31.00000
   C -0.164743391E+01  0.161143868E-01 -0.619514788E-01
   C  0.171436274E+01 -0.103752067E+00  0.432285939E-01
   H -0.940022938E+01 -0.349837949E+00  0.681099194E+00
   H  0.929883632E+01  0.593250109E+00 -0.977558507E+00
     4
 # iter = 31500  time[fs]=31.50000
   C -0.171557411E+01  0.176044845E-01 -0.639386782E-01
   C  0.178261288E+01 -0.107676537E+00  0.469354991E-01
   H -0.975056481E+01 -0.363539932E+00  0.708708361E+00
   H  0.963832173E+01  0.617232497E+00 -0.101351081E+01
     4
 # iter = 32000  time[fs]=32.00000
   C -0.178484213E+01  0.191366757E-01 -0.659646950E-01
   C  0.185198929E+01 -0.111645862E+00  0.506836838E-01
   H -0.101017797E+02 -0.377277360E+00  0.736391356E+00
   H  0.997870516E+01  0.641283467E+00 -0.104956649E+01
     4
 # iter = 32500  time[fs]=32.50000
   C -0.185515332E+01  0.207079835E-01 -0.680270630E-01
   C  0.192240738E+01 -0.115656891E+00  0.544705266E-01
   H -0.104538146E+02 -0.391047981E+00  0.764143365E+00
   H  0.103199266E+02  0.665398676E+00 -0.108571886E+01
     4
 # iter = 33000  time[fs]=33.00000
   C -0.192643113E+01  0.223156982E-01 -0.701235058E-01
   C  0.199379063E+01 -0.119706755E+00  0.582936102E-01
   H -0.108066157E+02 -0.404849752E+00  0.791960030E+00
   H  0.106619318E+02  0.689574180E+00 -0.112196188E+01
     4
 # iter = 33500  time[fs]=33.50000
   C -0.199860620E+01  0.239573508E-01 -0.722519223E-01
   C  0.206606974E+01 -0.123792842E+00  0.621507052E-01
   H -0.111601346E+02 -0.418680815E+00  0.819837397E+00
   H  0.110046714E+02  0.713806393E+00 -0.115829006E+01
     4
 # iter = 34000  time[fs]=34.00000
   C -0.207161563E+01  0.256306892E-01 -0.744103736E-01
   C  0.213918185E+01 -0.127912768E+00  0.660397555E-01
   H -0.115143269E+02 -0.432539474E+00  0.847771866E+00
   H  0.113481009E+02  0.738092038E+00 -0.119469838E+01
     4
 # iter = 34500  time[fs]=34.50000
   C -0.214540226E+01  0.273336565E-01 -0.765970699E-01
   C  0.221306986E+01 -0.132064355E+00  0.699588638E-01
   H -0.118691525E+02 -0.446424178E+00  0.875760147E+00
   H  0.116921793E+02  0.762428118E+00 -0.123118228E+01
     4
 # iter = 35000  time[fs]=35.00000
   C -0.221991407E+01  0.290643713E-01 -0.788103581E-01
   C  0.228768179E+01 -0.136245612E+00  0.739062783E-01
   H -0.122245746E+02 -0.460333505E+00  0.903799231E+00
   H  0.120368693E+02  0.786811880E+00 -0.126773754E+01
     4
 # iter = 35500  time[fs]=35.50000
   C -0.229510367E+01  0.308211107E-01 -0.810487103E-01
   C  0.236297028E+01 -0.140454712E+00  0.778803805E-01
   H -0.125805594E+02 -0.474266145E+00  0.931886353E+00
   H  0.123821367E+02  0.811240795E+00 -0.130436033E+01
     4
 # iter = 36000  time[fs]=36.00000
   C -0.237092775E+01  0.326022941E-01 -0.833107137E-01
   C  0.243889209E+01 -0.144689983E+00  0.818796738E-01
   H -0.129370761E+02 -0.488220894E+00  0.960018971E+00
   H  0.127279499E+02  0.835712526E+00 -0.134104710E+01
     4
 # iter = 36500  time[fs]=36.50000
   C -0.244734671E+01  0.344064696E-01 -0.855950603E-01
   C  0.251540765E+01 -0.148949885E+00  0.859027725E-01
   H -0.132940961E+02 -0.502196636E+00  0.988194737E+00
   H  0.130742801E+02  0.860224918E+00 -0.137779456E+01
     4
 # iter = 37000  time[fs]=37.00000
   C -0.252432427E+01  0.362323015E-01 -0.879005378E-01
   C  0.259248072E+01 -0.153233001E+00  0.899483929E-01
   H -0.136515932E+02 -0.516192339E+00  0.101641148E+01
   H  0.134211004E+02  0.884775973E+00 -0.141459969E+01
     4
 # iter = 37500  time[fs]=37.50000
   C -0.260182713E+01  0.380785591E-01 -0.902260223E-01
   C  0.267007804E+01 -0.157538027E+00  0.940153442E-01
   H -0.140095431E+02 -0.530207048E+00  0.104466721E+01
   H  0.137683860E+02  0.909363837E+00 -0.145145968E+01
     4
 # iter = 38000  time[fs]=38.00000
   C -0.267982467E+01  0.399441068E-01 -0.925704698E-01
   C  0.274816902E+01 -0.161863757E+00  0.981025208E-01
   H -0.143679232E+02 -0.544239872E+00  0.107296004E+01
   H  0.141161142E+02  0.933986789E+00 -0.148837192E+01
     4
 # iter = 38500  time[fs]=38.50000
   C -0.275828870E+01  0.418278950E-01 -0.949329100E-01
   C  0.282672552E+01 -0.166209078E+00  0.102208894E+00
   H -0.147267129E+02 -0.558289983E+00  0.110128824E+01
   H  0.144642634E+02  0.958643223E+00 -0.152533400E+01
     4
 # iter = 39000  time[fs]=39.00000
   C -0.283719321E+01  0.437289525E-01 -0.973124401E-01
   C  0.290572157E+01 -0.170572957E+00  0.106333509E+00
   H -0.150858926E+02 -0.572356610E+00  0.112965021E+01
   H  0.148128141E+02  0.983331644E+00 -0.156234365E+01
     4
 # iter = 39500  time[fs]=39.50000
   C -0.291651418E+01  0.456463789E-01 -0.997082188E-01
   C  0.298513316E+01 -0.174954437E+00  0.110475472E+00
   H -0.154454443E+02 -0.586439031E+00  0.115804444E+01
   H  0.151617476E+02  0.100805065E+01 -0.159939876E+01
     4
 # iter = 40000  time[fs]=40.00000
   C -0.299622940E+01  0.475793387E-01 -0.102119462E+00
   C  0.306493812E+01 -0.179352632E+00  0.114633953E+00
   H -0.158053511E+02 -0.600536571E+00  0.118646952E+01
   H  0.155110468E+02  0.103279895E+01 -0.163649736E+01
     4
 # iter = 40500  time[fs]=40.50000
   C -0.307631825E+01  0.495270554E-01 -0.104545437E+00
   C  0.314511588E+01 -0.183766714E+00  0.118808175E+00
   H -0.161655974E+02 -0.614648598E+00  0.121492414E+01
   H  0.158606956E+02  0.105757529E+01 -0.167363761E+01
     4
 # iter = 41000  time[fs]=41.00000
   C -0.315676164E+01  0.514888062E-01 -0.106985459E+00
   C  0.322564735E+01 -0.188195914E+00  0.122997412E+00
   H -0.165261684E+02 -0.628774519E+00  0.124340706E+01
   H  0.162106789E+02  0.108237854E+01 -0.171081777E+01
     4
 # iter = 41500  time[fs]=41.50000
   C -0.323754181E+01  0.534639176E-01 -0.109438887E+00
   C  0.330651481E+01 -0.192639516E+00  0.127200984E+00
   H -0.168870504E+02 -0.642913776E+00  0.127191712E+01
   H  0.165609827E+02  0.110720762E+01 -0.174803623E+01
     4
 # iter = 42000  time[fs]=42.00000
   C -0.331864221E+01  0.554517610E-01 -0.111905122E+00
   C  0.338770174E+01 -0.197096849E+00  0.131418256E+00
   H -0.172482303E+02 -0.657065845E+00  0.130045324E+01
   H  0.169115936E+02  0.113206151E+01 -0.178529145E+01
     4
 # iter = 42500  time[fs]=42.50000
   C -0.340004746E+01  0.574517493E-01 -0.114383601E+00
   C  0.346919278E+01 -0.201567288E+00  0.135648629E+00
   H -0.176096962E+02 -0.671230232E+00  0.132901439E+01
   H  0.172624992E+02  0.115693924E+01 -0.182258200E+01
     4
 # iter = 43000  time[fs]=43.00000
   C -0.348174318E+01  0.594633332E-01 -0.116873796E+00
   C  0.355097358E+01 -0.206050248E+00  0.139891543E+00
   H -0.179714364E+02 -0.685406472E+00  0.135759961E+01
   H  0.176136878E+02  0.118183992E+01 -0.185990652E+01
     4
 # iter = 43500  time[fs]=43.50000
   C -0.356371595E+01  0.614859983E-01 -0.119375210E+00
   C  0.363303074E+01 -0.210545179E+00  0.144146471E+00
   H -0.183334404E+02 -0.699594124E+00  0.138620799E+01
   H  0.179651485E+02  0.120676270E+01 -0.189726374E+01
     4
 # iter = 44000  time[fs]=44.00000
   C -0.364595320E+01  0.635192621E-01 -0.121887376E+00
   C  0.371535171E+01 -0.215051566E+00  0.148412917E+00
   H -0.186956979E+02 -0.713792773E+00  0.141483867E+01
   H  0.183168707E+02  0.123170677E+01 -0.193465244E+01
     4
 # iter = 44500  time[fs]=44.50000
   C -0.372844318E+01  0.655626719E-01 -0.124409855E+00
   C  0.379792475E+01 -0.219568926E+00  0.152690414E+00
   H -0.190581994E+02 -0.728002026E+00  0.144349084E+01
   H  0.186688447E+02  0.125667136E+01 -0.197207149E+01
     4
 # iter = 45000  time[fs]=45.00000
   C -0.381117485E+01  0.676158021E-01 -0.126942233E+00
   C  0.388073887E+01 -0.224096804E+00  0.156978521E+00
   H -0.194209358E+02 -0.742221510E+00  0.147216373E+01
   H  0.190210611E+02  0.128165576E+01 -0.200951981E+01
     4
 # iter = 45500  time[fs]=45.50000
   C -0.389413786E+01  0.696782525E-01 -0.129484118E+00
   C  0.396378371E+01 -0.228634773E+00  0.161276824E+00
   H -0.197838986E+02 -0.756450873E+00  0.150085661E+01
   H  0.193735112E+02  0.130665928E+01 -0.204699637E+01
     4
 # iter = 46000  time[fs]=46.00000
   C -0.397732248E+01  0.717496460E-01 -0.132035142E+00
   C  0.404704958E+01 -0.233182428E+00  0.165584930E+00
   H -0.201470798E+02 -0.770689778E+00  0.152956879E+01
   H  0.197261868E+02  0.133168126E+01 -0.208450020E+01
     4
 # iter = 46500  time[fs]=46.50000
   C -0.406071956E+01  0.738296273E-01 -0.134594956E+00
   C  0.413052733E+01 -0.237739391E+00  0.169902467E+00
   H -0.205104715E+02 -0.784937909E+00  0.155829963E+01
   H  0.200790798E+02  0.135672110E+01 -0.212203039E+01
     4
 # iter = 47000  time[fs]=47.00000
   C -0.414432048E+01  0.759178611E-01 -0.137163230E+00
   C  0.421420836E+01 -0.242305301E+00  0.174229085E+00
   H -0.208740667E+02 -0.799194962E+00  0.158704849E+01
   H  0.204321829E+02  0.138177821E+01 -0.215958605E+01
     4
 # iter = 47500  time[fs]=47.50000
   C -0.422811711E+01  0.780140305E-01 -0.139739651E+00
   C  0.429808456E+01 -0.246879819E+00  0.178564452E+00
   H -0.212378582E+02 -0.813460649E+00  0.161581479E+01
   H  0.207854888E+02  0.140685202E+01 -0.219716635E+01
     4
 # iter = 48000  time[fs]=48.00000
   C -0.431210177E+01  0.801178363E-01 -0.142323925E+00
   C  0.438214828E+01 -0.251462625E+00  0.182908252E+00
   H -0.216018397E+02 -0.827734696E+00  0.164459795E+01
   H  0.211389910E+02  0.143194201E+01 -0.223477050E+01
     4
 # iter = 48500  time[fs]=48.50000
   C -0.439626724E+01  0.822289950E-01 -0.144915769E+00
   C  0.446639229E+01 -0.256053415E+00  0.187260186E+00
   H -0.219660048E+02 -0.842016843E+00  0.167339746E+01
   H  0.214926829E+02  0.145704767E+01 -0.227239774E+01
     4
 # iter = 49000  time[fs]=49.00000
   C -0.448060666E+01  0.843472383E-01 -0.147514919E+00
   C  0.455080976E+01 -0.260651901E+00  0.191619970E+00
   H -0.223303477E+02 -0.856306839E+00  0.170221279E+01
   H  0.218465584E+02  0.148216852E+01 -0.231004737E+01
     4
 # iter = 49500  time[fs]=49.50000
   C -0.456511355E+01  0.864723119E-01 -0.150121120E+00
   C  0.463539421E+01 -0.265257810E+00  0.195987336E+00
   H -0.226948626E+02 -0.870604448E+00  0.173104346E+01
   H  0.222006118E+02  0.150730409E+01 -0.234771868E+01
     4
 # iter = 50000  time[fs]=50.00000
   C -0.464978177E+01  0.886039744E-01 -0.152734133E+00
   C  0.472013954E+01 -0.269870883E+00  0.200362027E+00
   H -0.230595441E+02 -0.884909441E+00  0.175988901E+01
   H  0.225548374E+02  0.153245394E+01 -0.238541103E+01
     4
 # iter = 50500  time[fs]=50.50000
   C -0.473460551E+01  0.907419968E-01 -0.155353729E+00
   C  0.480503993E+01 -0.274490874E+00  0.204743799E+00
   H -0.234243872E+02 -0.899221603E+00  0.178874899E+01
   H  0.229092301E+02  0.155761766E+01 -0.242312378E+01
     4
 # iter = 51000  time[fs]=51.00000
   C -0.481957925E+01  0.928861614E-01 -0.157979690E+00
   C  0.489008988E+01 -0.279117549E+00  0.209132419E+00
   H -0.237893869E+02 -0.913540724E+00  0.181762297E+01
   H  0.232637846E+02  0.158279484E+01 -0.246085635E+01
     4
 # iter = 51500  time[fs]=51.50000
   C -0.490469775E+01  0.950362611E-01 -0.160611808E+00
   C  0.497528415E+01 -0.283750685E+00  0.213527667E+00
   H -0.241545385E+02 -0.927866608E+00  0.184651055E+01
   H  0.236184962E+02  0.160798510E+01 -0.249860816E+01
     4
 # iter = 52000  time[fs]=52.00000
   C -0.498995604E+01  0.971920989E-01 -0.163249886E+00
   C  0.506061779E+01 -0.288390071E+00  0.217929331E+00
   H -0.245198375E+02 -0.942199062E+00  0.187541135E+01
   H  0.239733602E+02  0.163318807E+01 -0.253637865E+01
     4
 # iter = 52500  time[fs]=52.50000
   C -0.507534937E+01  0.993534873E-01 -0.165893736E+00
   C  0.514608607E+01 -0.293035504E+00  0.222337211E+00
   H -0.248852797E+02 -0.956537905E+00  0.190432498E+01
   H  0.243283724E+02  0.165840339E+01 -0.257416731E+01
     4
 # iter = 53000  time[fs]=53.00000
   C -0.516087324E+01  0.101520247E+00 -0.168543178E+00
   C  0.523168450E+01 -0.297686793E+00  0.226751114E+00
   H -0.252508609E+02 -0.970882962E+00  0.193325110E+01
   H  0.246835283E+02  0.168363072E+01 -0.261197363E+01
     4
 # iter = 53500  time[fs]=53.50000
   C -0.524652337E+01  0.103692209E+00 -0.171198038E+00
   C  0.531740879E+01 -0.302343753E+00  0.231170856E+00
   H -0.256165773E+02 -0.985234066E+00  0.196218936E+01
   H  0.250388239E+02  0.170886974E+01 -0.264979713E+01
     4
 # iter = 54000  time[fs]=54.00000
   C -0.533229567E+01  0.105869209E+00 -0.173858154E+00
   C  0.540325487E+01 -0.307006209E+00  0.235596262E+00
   H -0.259824249E+02 -0.999591054E+00  0.199113943E+01
   H  0.253942555E+02  0.173412015E+01 -0.268763735E+01
     4
 # iter = 54500  time[fs]=54.50000
   C -0.541818623E+01  0.108051092E+00 -0.176523368E+00
   C  0.548921885E+01 -0.311673994E+00  0.240027163E+00
   H -0.263484003E+02 -0.101395377E+01  0.202010100E+01
   H  0.257498192E+02  0.175938162E+01 -0.272549384E+01
     4
 # iter = 55000  time[fs]=55.00000
   C -0.550419133E+01  0.110237710E+00 -0.179193530E+00
   C  0.557529702E+01 -0.316346948E+00  0.244463400E+00
   H -0.267145000E+02 -0.102832207E+01  0.204907377E+01
   H  0.261055114E+02  0.178465389E+01 -0.276336618E+01
     4
 # iter = 55500  time[fs]=55.50000
   C -0.559030744E+01  0.112428921E+00 -0.181868496E+00
   C  0.566148583E+01 -0.321024918E+00  0.248904819E+00
   H -0.270807206E+02 -0.104269581E+01  0.207805744E+01
   H  0.264613288E+02  0.180993667E+01 -0.280125395E+01
     4
 # iter = 56000  time[fs]=56.00000
   C -0.567653114E+01  0.114624588E+00 -0.184548128E+00
   C  0.574778190E+01 -0.325707756E+00  0.253351271E+00
   H -0.274470589E+02 -0.105707485E+01  0.210705174E+01
   H  0.268172680E+02  0.183522970E+01 -0.283915676E+01
     4
 # iter = 56500  time[fs]=56.50000
   C -0.576285920E+01  0.116824583E+00 -0.187232293E+00
   C  0.583418199E+01 -0.330395323E+00  0.257802615E+00
   H -0.278135118E+02 -0.107145906E+01  0.213605640E+01
   H  0.271733259E+02  0.186053272E+01 -0.287707423E+01
     4
 # iter = 57000  time[fs]=57.00000
   C -0.584928851E+01  0.119028780E+00 -0.189920866E+00
   C  0.592068301E+01 -0.335087485E+00  0.262258717E+00
   H -0.281800765E+02 -0.108584831E+01  0.216507115E+01
   H  0.275294994E+02  0.188584548E+01 -0.291500600E+01
     4
 # iter = 57500  time[fs]=57.50000
   C -0.593581610E+01  0.121237060E+00 -0.192613724E+00
   C  0.600728199E+01 -0.339784111E+00  0.266719445E+00
   H -0.285467500E+02 -0.110024248E+01  0.219409575E+01
   H  0.278857855E+02  0.191116774E+01 -0.295295170E+01
     4
 # iter = 58000  time[fs]=58.00000
   C -0.602243912E+01  0.123449309E+00 -0.195310751E+00
   C  0.609397609E+01 -0.344485080E+00  0.271184674E+00
   H -0.289135297E+02 -0.111464145E+01  0.222312996E+01
   H  0.282421815E+02  0.193649928E+01 -0.299091102E+01
     4
 # iter = 58500  time[fs]=58.50000
   C -0.610915485E+01  0.125665417E+00 -0.198011834E+00
   C  0.618076259E+01 -0.349190271E+00  0.275654285E+00
   H -0.292804128E+02 -0.112904511E+01  0.225217355E+01
   H  0.285986847E+02  0.196183988E+01 -0.302888361E+01
     4
 # iter = 59000  time[fs]=59.00000
   C -0.619596067E+01  0.127885278E+00 -0.200716866E+00
   C  0.626763889E+01 -0.353899571E+00  0.280128162E+00
   H -0.296473969E+02 -0.114345334E+01  0.228122629E+01
   H  0.289552924E+02  0.198718931E+01 -0.306686916E+01
     4
 # iter = 59500  time[fs]=59.50000
   C -0.628285408E+01  0.130108791E+00 -0.203425743E+00
   C  0.635460249E+01 -0.358612870E+00  0.284606195E+00
   H -0.300144795E+02 -0.115786604E+01  0.231028798E+01
   H  0.293120020E+02  0.201254738E+01 -0.310486737E+01
     4
 # iter = 60000  time[fs]=60.00000
   C -0.636983266E+01  0.132335860E+00 -0.206138366E+00
   C  0.644165097E+01 -0.363330064E+00  0.289088275E+00
   H -0.303816583E+02 -0.117228311E+01  0.233935839E+01
   H  0.296688112E+02  0.203791389E+01 -0.314287794E+01
     4
 # iter = 60500  time[fs]=60.50000
   C -0.645689410E+01  0.134566390E+00 -0.208854638E+00
   C  0.652878204E+01 -0.368051051E+00  0.293574301E+00
   H -0.307489309E+02 -0.118670445E+01  0.236843733E+01
   H  0.300257177E+02  0.206328864E+01 -0.318090059E+01
     4
 # iter = 61000  time[fs]=61.00000
   C -0.654403619E+01  0.136800292E+00 -0.211574467E+00
   C  0.661599348E+01 -0.372775733E+00  0.298064173E+00
   H -0.311162952E+02 -0.120112996E+01  0.239752461E+01
   H  0.303827190E+02  0.208867145E+01 -0.321893505E+01
     4
 # iter = 61500  time[fs]=61.50000
   C -0.663125678E+01  0.139037479E+00 -0.214297765E+00
   C  0.670328316E+01 -0.377504017E+00  0.302557796E+00
   H -0.314837491E+02 -0.121555955E+01  0.242662004E+01
   H  0.307398131E+02  0.211406214E+01 -0.325698106E+01
     4
 # iter = 62000  time[fs]=62.00000
   C -0.671855382E+01  0.141277868E+00 -0.217024446E+00
   C  0.679064903E+01 -0.382235813E+00  0.307055078E+00
   H -0.318512904E+02 -0.122999313E+01  0.245572344E+01
   H  0.310969979E+02  0.213946053E+01 -0.329503834E+01
     4
 # iter = 62500  time[fs]=62.50000
   C -0.680592535E+01  0.143521379E+00 -0.219754426E+00
   C  0.687808913E+01 -0.386971033E+00  0.311555931E+00
   H -0.322189173E+02 -0.124443061E+01  0.248483463E+01
   H  0.314542712E+02  0.216486647E+01 -0.333310667E+01
     4
 # iter = 63000  time[fs]=63.00000
   C -0.689336944E+01  0.145767934E+00 -0.222487627E+00
   C  0.696560155E+01 -0.391709593E+00  0.316060268E+00
   H -0.325866279E+02 -0.125887191E+01  0.251395345E+01
   H  0.318116311E+02  0.219027978E+01 -0.337118579E+01
     4
 # iter = 63500  time[fs]=63.50000
   C -0.698088428E+01  0.148017458E+00 -0.225223971E+00
   C  0.705318447E+01 -0.396451414E+00  0.320568008E+00
   H -0.329544202E+02 -0.127331695E+01  0.254307973E+01
   H  0.321690758E+02  0.221570031E+01 -0.340927549E+01
     4
 # iter = 64000  time[fs]=64.00000
   C -0.706846809E+01  0.150269881E+00 -0.227963384E+00
   C  0.714083613E+01 -0.401196417E+00  0.325079070E+00
   H -0.333222925E+02 -0.128776566E+01  0.257221331E+01
   H  0.325266033E+02  0.224112790E+01 -0.344737552E+01
     4
 # iter = 64500  time[fs]=64.50000
   C -0.715611919E+01  0.152525132E+00 -0.230705795E+00
   C  0.722855483E+01 -0.405944526E+00  0.329593378E+00
   H -0.336902430E+02 -0.130221794E+01  0.260135404E+01
   H  0.328842118E+02  0.226656242E+01 -0.348548568E+01
     4
 # iter = 65000  time[fs]=65.00000
   C -0.724383592E+01  0.154783145E+00 -0.233451134E+00
   C  0.731633894E+01 -0.410695669E+00  0.334110858E+00
   H -0.340582701E+02 -0.131667374E+01  0.263050176E+01
   H  0.332418997E+02  0.229200371E+01 -0.352360576E+01
     4
 # iter = 65500  time[fs]=65.50000
   C -0.733161670E+01  0.157043855E+00 -0.236199335E+00
   C  0.740418687E+01 -0.415449776E+00  0.338631437E+00
   H -0.344263722E+02 -0.133113297E+01  0.265965635E+01
   H  0.335996653E+02  0.231745164E+01 -0.356173555E+01
     4
 # iter = 66000  time[fs]=66.00000
   C -0.741946002E+01  0.159307200E+00 -0.238950333E+00
   C  0.749209712E+01 -0.420206779E+00  0.343155046E+00
   H -0.347945476E+02 -0.134559557E+01  0.268881764E+01
   H  0.339575068E+02  0.234290608E+01 -0.359987485E+01
     4
 # iter = 66500  time[fs]=66.50000
   C -0.750736439E+01  0.161573120E+00 -0.241704065E+00
   C  0.758006820E+01 -0.424966612E+00  0.347681618E+00
   H -0.351627950E+02 -0.136006148E+01  0.271798552E+01
   H  0.343154229E+02  0.236836689E+01 -0.363802347E+01
     4
 # iter = 67000  time[fs]=67.00000
   C -0.759532838E+01  0.163841555E+00 -0.244460471E+00
   C  0.766809871E+01 -0.429729212E+00  0.352211087E+00
   H -0.355311127E+02 -0.137453062E+01  0.274715985E+01
   H  0.346734118E+02  0.239383395E+01 -0.367618123E+01
     4
 # iter = 67500  time[fs]=67.50000
   C -0.768335064E+01  0.166112451E+00 -0.247219492E+00
   C  0.775618726E+01 -0.434494519E+00  0.356743392E+00
   H -0.358994993E+02 -0.138900294E+01  0.277634049E+01
   H  0.350314722E+02  0.241930713E+01 -0.371434795E+01
     4
 # iter = 68000  time[fs]=68.00000
   C -0.777142982E+01  0.168385751E+00 -0.249981072E+00
   C  0.784433253E+01 -0.439262471E+00  0.361278470E+00
   H -0.362679535E+02 -0.140347837E+01  0.280552734E+01
   H  0.353896026E+02  0.244478632E+01 -0.375252344E+01
     4
 # iter = 68500  time[fs]=68.50000
   C -0.785956464E+01  0.170661405E+00 -0.252745155E+00
   C  0.793253324E+01 -0.444033013E+00  0.365816264E+00
   H -0.366364740E+02 -0.141795685E+01  0.283472026E+01
   H  0.357478017E+02  0.247027139E+01 -0.379070755E+01
     4
 # iter = 69000  time[fs]=69.00000
   C -0.794775386E+01  0.172939360E+00 -0.255511690E+00
   C  0.802078816E+01 -0.448806088E+00  0.370356715E+00
   H -0.370050593E+02 -0.143243832E+01  0.286391913E+01
   H  0.361060680E+02  0.249576225E+01 -0.382890010E+01
     4
 # iter = 69500  time[fs]=69.50000
   C -0.803599628E+01  0.175219567E+00 -0.258280623E+00
   C  0.810909608E+01 -0.453581643E+00  0.374899769E+00
   H -0.373737084E+02 -0.144692273E+01  0.289312386E+01
   H  0.364644003E+02  0.252125877E+01 -0.386710093E+01
     4
 # iter = 70000  time[fs]=70.00000
   C -0.812429073E+01  0.177501978E+00 -0.261051906E+00
   C  0.819745584E+01 -0.458359626E+00  0.379445371E+00
   H -0.377424198E+02 -0.146141003E+01  0.292233432E+01
   H  0.368227972E+02  0.254676086E+01 -0.390530989E+01
     4
 # iter = 70500  time[fs]=70.50000
   C -0.821263608E+01  0.179786547E+00 -0.263825490E+00
   C  0.828586633E+01 -0.463139986E+00  0.383993470E+00
   H -0.381111924E+02 -0.147590015E+01  0.295155041E+01
   H  0.371812576E+02  0.257226841E+01 -0.394352683E+01
     4
 # iter = 71000  time[fs]=71.00000
   C -0.830103125E+01  0.182073229E+00 -0.266601328E+00
   C  0.837432644E+01 -0.467922673E+00  0.388544015E+00
   H -0.384800251E+02 -0.149039305E+01  0.298077203E+01
   H  0.375397803E+02  0.259778131E+01 -0.398175160E+01
     4
 # iter = 71500  time[fs]=71.50000
   C -0.838947517E+01  0.184361980E+00 -0.269379375E+00
   C  0.846283513E+01 -0.472707642E+00  0.393096957E+00
   H -0.388489167E+02 -0.150488868E+01  0.300999907E+01
   H  0.378983640E+02  0.262329948E+01 -0.401998405E+01
     4
 # iter = 72000  time[fs]=72.00000
   C -0.847796683E+01  0.186652759E+00 -0.272159586E+00
   C  0.855139138E+01 -0.477494844E+00  0.397652249E+00
   H -0.392178661E+02 -0.151938699E+01  0.303923143E+01
   H  0.382570076E+02  0.264882282E+01 -0.405822405E+01
     4
 # iter = 72500  time[fs]=72.50000
   C -0.856650523E+01  0.188945523E+00 -0.274941918E+00
   C  0.863999420E+01 -0.482284236E+00  0.402209844E+00
   H -0.395868723E+02 -0.153388793E+01  0.306846903E+01
   H  0.386157101E+02  0.267435123E+01 -0.409647145E+01
     4
 # iter = 73000  time[fs]=73.00000
   C -0.865508940E+01  0.191240234E+00 -0.277726331E+00
   C  0.872864262E+01 -0.487075775E+00  0.406769697E+00
   H -0.399559342E+02 -0.154839145E+01  0.309771175E+01
   H  0.389744703E+02  0.269988462E+01 -0.413472614E+01
     4
 # iter = 73500  time[fs]=73.50000
   C -0.874371842E+01  0.193536852E+00 -0.280512783E+00
   C  0.881733572E+01 -0.491869418E+00  0.411331765E+00
   H -0.403250508E+02 -0.156289751E+01  0.312695953E+01
   H  0.393332873E+02  0.272542291E+01 -0.417298798E+01
     4
 # iter = 74000  time[fs]=74.00000
   C -0.883239138E+01  0.195835340E+00 -0.283301235E+00
   C  0.890607259E+01 -0.496665124E+00  0.415896006E+00
   H -0.406942211E+02 -0.157740606E+01  0.315621226E+01
   H  0.396921599E+02  0.275096601E+01 -0.421125684E+01
     4
 # iter = 74500  time[fs]=74.50000
   C -0.892110739E+01  0.198135663E+00 -0.286091649E+00
   C  0.899485236E+01 -0.501462853E+00  0.420462378E+00
   H -0.410634442E+02 -0.159191707E+01  0.318546986E+01
   H  0.400510872E+02  0.277651385E+01 -0.424953260E+01
     4
 # iter = 75000  time[fs]=75.00000
   C -0.900986560E+01  0.200437783E+00 -0.288883988E+00
   C  0.908367417E+01 -0.506262567E+00  0.425030841E+00
   H -0.414327191E+02 -0.160643049E+01  0.321473224E+01
   H  0.404100683E+02  0.280206632E+01 -0.428781515E+01
     4
 # iter = 75500  time[fs]=75.50000
   C -0.909866519E+01  0.202741667E+00 -0.291678216E+00
   C  0.917253720E+01 -0.511064229E+00  0.429601357E+00
   H -0.418020450E+02 -0.162094627E+01  0.324399934E+01
   H  0.407691021E+02  0.282762337E+01 -0.432610436E+01
     4
 # iter = 76000  time[fs]=76.00000
   C -0.918750535E+01  0.205047282E+00 -0.294474297E+00
   C  0.926144065E+01 -0.515867801E+00  0.434173887E+00
   H -0.421714209E+02 -0.163546439E+01  0.327327105E+01
   H  0.411281879E+02  0.285318491E+01 -0.436440013E+01
     4
 # iter = 76500  time[fs]=76.50000
   C -0.927638530E+01  0.207354595E+00 -0.297272198E+00
   C  0.935038374E+01 -0.520673248E+00  0.438748396E+00
   H -0.425408460E+02 -0.164998480E+01  0.330254731E+01
   H  0.414873246E+02  0.287875087E+01 -0.440270235E+01
     4
 # iter = 77000  time[fs]=77.00000
   C -0.936530427E+01  0.209663575E+00 -0.300071886E+00
   C  0.943936570E+01 -0.525480537E+00  0.443324846E+00
   H -0.429103194E+02 -0.166450746E+01  0.333182805E+01
   H  0.418465114E+02  0.290432117E+01 -0.444101090E+01
     4
 # iter = 77500  time[fs]=77.50000
   C -0.945426153E+01  0.211974190E+00 -0.302873328E+00
   C  0.952838581E+01 -0.530289632E+00  0.447903204E+00
   H -0.432798403E+02 -0.167903233E+01  0.336111318E+01
   H  0.422057475E+02  0.292989574E+01 -0.447932569E+01
     4
 # iter = 78000  time[fs]=78.00000
   C -0.954325636E+01  0.214286411E+00 -0.305676493E+00
   C  0.961744334E+01 -0.535100502E+00  0.452483434E+00
   H -0.436494080E+02 -0.169355939E+01  0.339040264E+01
   H  0.425650321E+02  0.295547452E+01 -0.451764661E+01
     4
 # iter = 78500  time[fs]=78.50000
   C -0.963228806E+01  0.216600209E+00 -0.308481350E+00
   C  0.970653760E+01 -0.539913114E+00  0.457065505E+00
   H -0.440190216E+02 -0.170808859E+01  0.341969635E+01
   H  0.429243643E+02  0.298105743E+01 -0.455597355E+01
     4
 # iter = 79000  time[fs]=79.00000
   C -0.972135595E+01  0.218915555E+00 -0.311287869E+00
   C  0.979566791E+01 -0.544727438E+00  0.461649384E+00
   H -0.443886804E+02 -0.172261990E+01  0.344899425E+01
   H  0.432837433E+02  0.300664442E+01 -0.459430644E+01
     4
 # iter = 79500  time[fs]=79.50000
   C -0.981045937E+01  0.221232422E+00 -0.314096021E+00
   C  0.988483361E+01 -0.549543444E+00  0.466235039E+00
   H -0.447583836E+02 -0.173715328E+01  0.347829627E+01
   H  0.436431685E+02  0.303223540E+01 -0.463264516E+01
     4
 # iter = 80000  time[fs]=80.00000
   C -0.989959768E+01  0.223550783E+00 -0.316905778E+00
   C  0.997403407E+01 -0.554361101E+00  0.470822441E+00
   H -0.451281306E+02 -0.175168872E+01  0.350760234E+01
   H  0.440026390E+02  0.305783033E+01 -0.467098963E+01
