     4
 # iter = 25000  time[fs]=25.00000
   C -0.971794453E+00  0.375282813E-01 -0.279969288E-02
   C  0.105627421E+01  0.108378980E-01  0.359024473E-01
   H -0.529528973E+01 -0.818310469E-01 -0.141977430E-01
   H  0.541625633E+01  0.297431073E+00 -0.584369151E+00
     4
 # iter = 25500  time[fs]=25.50000
   C -0.101705755E+01  0.382576307E-01 -0.228005346E-02
   C  0.110337368E+01  0.102878934E-01  0.395325531E-01
   H -0.562983469E+01 -0.887621398E-01 -0.136487797E-01
   H  0.573837192E+01  0.316529902E+00 -0.620699613E+00
     4
 # iter = 26000  time[fs]=26.00000
   C -0.106505937E+01  0.390252393E-01 -0.180976447E-02
   C  0.115321891E+01  0.969313816E-02  0.432371119E-01
   H -0.596704400E+01 -0.957589511E-01 -0.130956064E-01
   H  0.606306740E+01  0.335772346E+00 -0.657335515E+00
     4
 # iter = 26500  time[fs]=26.50000
   C -0.111556659E+01  0.398277947E-01 -0.138617977E-02
   C  0.120557482E+01  0.905755346E-02  0.470108105E-01
   H -0.630662081E+01 -0.102814174E+00 -0.125383892E-01
   H  0.639006699E+01  0.355143793E+00 -0.694244688E+00
     4
 # iter = 27000  time[fs]=27.00000
   C -0.116836408E+01  0.406622813E-01 -0.100659462E-02
   C  0.126022496E+01  0.838468408E-02  0.508486809E-01
   H -0.664831441E+01 -0.109921664E+00 -0.119773064E-01
   H  0.671913607E+01  0.374631750E+00 -0.731399795E+00
     4
 # iter = 27500  time[fs]=27.50000
   C -0.122325502E+01  0.415259631E-01 -0.668321508E-03
   C  0.131697144E+01  0.767772779E-02  0.547460987E-01
   H -0.699191129E+01 -0.117076202E+00 -0.114125397E-01
   H  0.705007343E+01  0.394225455E+00 -0.768777408E+00
     4
 # iter = 28000  time[fs]=28.00000
   C -0.128006028E+01  0.424163655E-01 -0.368743859E-03
   C  0.137563438E+01  0.693956509E-02  0.586987764E-01
   H -0.733722820E+01 -0.124273321E+00 -0.108442679E-01
   H  0.738270537E+01  0.413915571E+00 -0.806357300E+00
     4
 # iter = 28500  time[fs]=28.50000
   C -0.133861756E+01  0.433312538E-01 -0.105351838E-03
   C  0.143605083E+01  0.617278853E-02  0.627027531E-01
   H -0.768410674E+01 -0.131509160E+00 -0.102726645E-01
   H  0.771688091E+01  0.433693943E+00 -0.844121885E+00
     4
 # iter = 29000  time[fs]=29.00000
   C -0.139878013E+01  0.442686128E-01  0.124235435E-03
   C  0.149807360E+01  0.537973078E-02  0.667543795E-01
   H -0.803240913E+01 -0.138780367E+00 -0.969789543E-02
   H  0.805246808E+01  0.453553408E+00 -0.882055774E+00
     4
 # iter = 29500  time[fs]=29.50000
   C -0.146041557E+01  0.452266257E-01  0.322257912E-03
   C  0.156156987E+01  0.456249108E-02  0.708503005E-01
   H -0.838201481E+01 -0.146084007E+00 -0.912011807E-02
   H  0.838935087E+01  0.473487642E+00 -0.920145428E+00
     4
 # iter = 30000  time[fs]=30.00000
   C -0.152340445E+01  0.462036549E-01  0.490810013E-03
   C  0.162641992E+01  0.372295968E-02  0.749874360E-01
   H -0.873281772E+01 -0.153417496E+00 -0.853948121E-02
   H  0.872742681E+01  0.493491032E+00 -0.958378873E+00
     4
 # iter = 30500  time[fs]=30.50000
   C -0.158763909E+01  0.471982234E-01  0.631841192E-03
   C  0.169251584E+01  0.286284022E-02  0.791629612E-01
   H -0.908472406E+01 -0.160778552E+00 -0.795612486E-02
   H  0.906660495E+01  0.513558572E+00 -0.996745462E+00
     4
 # iter = 31000  time[fs]=31.00000
   C -0.165302237E+01  0.482089981E-01  0.747159973E-03
   C  0.175976031E+01  0.198366993E-02  0.833742866E-01
   H -0.943765052E+01 -0.168165143E+00 -0.737018059E-02
   H  0.940680421E+01  0.533685783E+00 -0.103523569E+01
     4
 # iter = 31500  time[fs]=31.50000
   C -0.171946661E+01  0.492347746E-01  0.838440223E-03
   C  0.182806551E+01  0.108683779E-02  0.876190385E-01
   H -0.979152277E+01 -0.175575454E+00 -0.678177182E-02
   H  0.974795202E+01  0.553868636E+00 -0.107384104E+01
     4
 # iter = 32000  time[fs]=32.00000
   C -0.178689258E+01  0.502744631E-01  0.907228735E-03
   C  0.189735210E+01  0.173600733E-03  0.918950407E-01
   H -0.101462742E+02 -0.183007860E+00 -0.619101430E-02
   H  0.100899832E+02  0.574103498E+00 -0.111255384E+01
     4
 # iter = 32500  time[fs]=32.50000
   C -0.185522862E+01  0.513270764E-01  0.954953473E-03
   C  0.196754832E+01 -0.754901919E-03  0.962002970E-01
   H -0.105018450E+02 -0.190460897E+00 -0.559801652E-02
   H  0.104328390E+02  0.594387080E+00 -0.115136717E+01
     4
 # iter = 33000  time[fs]=33.00000
   C -0.192440980E+01  0.523917186E-01  0.982932037E-03
   C  0.203858916E+01 -0.169763568E-02  0.100532975E+00
   H -0.108581811E+02 -0.197933240E+00 -0.500288023E-02
   H  0.107764662E+02  0.614716396E+00 -0.119027475E+01
     4
 # iter = 33500  time[fs]=33.50000
   C -0.199437719E+01  0.534675756E-01  0.992380028E-03
   C  0.211041566E+01 -0.265365959E-02  0.104891392E+00
   H -0.112152337E+02 -0.205423692E+00 -0.440570084E-02
   H  0.111208165E+02  0.635088724E+00 -0.122927086E+01
     4
 # iter = 34000  time[fs]=34.00000
   C -0.206507725E+01  0.545539061E-01  0.984419134E-03
   C  0.218297422E+01 -0.362211622E-02  0.109274000E+00
   H -0.115729582E+02 -0.212931161E+00 -0.380656791E-02
   H  0.114658461E+02  0.655501580E+00 -0.126835032E+01
     4
 # iter = 34500  time[fs]=34.50000
   C -0.213646123E+01  0.556500342E-01  0.960084794E-03
   C  0.225621607E+01 -0.460222282E-02  0.113679374E+00
   H -0.119313144E+02 -0.220454653E+00 -0.320556553E-02
   H  0.118115150E+02  0.675952687E+00 -0.130750835E+01
     4
 # iter = 35000  time[fs]=35.00000
   C -0.220848468E+01  0.567553423E-01  0.920333384E-03
   C  0.233009673E+01 -0.559326353E-02  0.118106201E+00
   H -0.122902652E+02 -0.227993257E+00 -0.260277271E-02
   H  0.121577863E+02  0.696439956E+00 -0.134674060E+01
     4
 # iter = 35500  time[fs]=35.50000
   C -0.228110699E+01  0.578692652E-01  0.866048904E-03
   C  0.240457559E+01 -0.659458247E-02  0.122553268E+00
   H -0.126497768E+02 -0.235546141E+00 -0.199826377E-02
   H  0.125046266E+02  0.716961464E+00 -0.138604306E+01
     4
 # iter = 36000  time[fs]=36.00000
   C -0.235429102E+01  0.589912850E-01  0.798049131E-03
   C  0.247961547E+01 -0.760557766E-02  0.127019457E+00
   H -0.130098182E+02 -0.243112535E+00 -0.139210867E-02
   H  0.128520048E+02  0.737515437E+00 -0.142541204E+01
     4
 # iter = 36500  time[fs]=36.50000
   C -0.242800270E+01  0.601209258E-01  0.717091282E-03
   C  0.255518233E+01 -0.862569561E-02  0.131503732E+00
   H -0.133703609E+02 -0.250691735E+00 -0.784373298E-03
   H  0.131998925E+02  0.758100236E+00 -0.146484414E+01
     4
 # iter = 37000  time[fs]=37.00000
   C -0.250221076E+01  0.612577501E-01  0.623877192E-03
   C  0.263124488E+01 -0.965442653E-02  0.136005133E+00
   H -0.137313786E+02 -0.258283087E+00 -0.175119798E-03
   H  0.135482635E+02  0.778714341E+00 -0.150433619E+01
     4
 # iter = 37500  time[fs]=37.50000
   C -0.257688646E+01  0.624013546E-01  0.519058036E-03
   C  0.270777437E+01 -0.106913001E-01  0.140522770E+00
   H -0.140928468E+02 -0.265885988E+00  0.435593194E-03
   H  0.138970933E+02  0.799356344E+00 -0.154388527E+01
     4
 # iter = 38000  time[fs]=38.00000
   C -0.265200329E+01  0.635513672E-01  0.403238631E-03
   C  0.278474431E+01 -0.117358817E-01  0.145055817E+00
   H -0.144547432E+02 -0.273499878E+00  0.104771029E-02
   H  0.142463593E+02  0.820024935E+00 -0.158348868E+01
     4
 # iter = 38500  time[fs]=38.50000
   C -0.272753681E+01  0.647074440E-01  0.276981350E-03
   C  0.286213027E+01 -0.127877690E-01  0.149603507E+00
   H -0.148170468E+02 -0.281124237E+00  0.166117913E-02
   H  0.145960407E+02  0.840718893E+00 -0.162314389E+01
     4
 # iter = 39000  time[fs]=39.00000
   C -0.280346443E+01  0.658692665E-01  0.140809673E-03
   C  0.293990967E+01 -0.138465891E-01  0.154165122E+00
   H -0.151797382E+02 -0.288758580E+00  0.227595016E-02
   H  0.149461180E+02  0.861437081E+00 -0.166284854E+01
     4
 # iter = 39500  time[fs]=39.50000
   C -0.287976524E+01  0.670365396E-01 -0.478857689E-05
   C  0.301806160E+01 -0.149119957E-01  0.158739997E+00
   H -0.155427995E+02 -0.296402458E+00  0.289197647E-02
   H  0.152965730E+02  0.882178436E+00 -0.170260045E+01
     4
 # iter = 40000  time[fs]=40.00000
   C -0.295641987E+01  0.682089889E-01 -0.159358307E-03
   C  0.309656669E+01 -0.159836669E-01  0.163327509E+00
   H -0.159062136E+02 -0.304055449E+00  0.350921357E-02
   H  0.156473887E+02  0.902941962E+00 -0.174239755E+01
     4
 # iter = 40500  time[fs]=40.50000
   C -0.303341031E+01  0.693863596E-01 -0.322474490E-03
   C  0.317540696E+01 -0.170613029E-01  0.167927077E+00
   H -0.162699650E+02 -0.311717158E+00  0.412761929E-02
   H  0.159985492E+02  0.923726728E+00 -0.178223793E+01
     4
 # iter = 41000  time[fs]=41.00000
   C -0.311071985E+01  0.705684143E-01 -0.493739741E-03
   C  0.325456569E+01 -0.181446241E-01  0.172538155E+00
   H -0.166340389E+02 -0.319387218E+00  0.474715356E-02
   H  0.163500399E+02  0.944531859E+00 -0.182211978E+01
     4
 # iter = 41500  time[fs]=41.50000
   C -0.318833292E+01  0.717549317E-01 -0.672782123E-03
   C  0.333402734E+01 -0.192333695E-01  0.177160235E+00
   H -0.169984216E+02 -0.327065282E+00  0.536777833E-02
   H  0.167018467E+02  0.965356533E+00 -0.186204141E+01
     4
 # iter = 42000  time[fs]=42.00000
   C -0.326623499E+01  0.729457050E-01 -0.859253144E-03
   C  0.341377739E+01 -0.203272951E-01  0.181792839E+00
   H -0.173631001E+02 -0.334751026E+00  0.598945742E-02
   H  0.170539566E+02  0.986199977E+00 -0.190200123E+01
     4
 # iter = 42500  time[fs]=42.50000
   C -0.334441252E+01  0.741405410E-01 -0.105282593E-02
   C  0.349380231E+01 -0.214261724E-01  0.186435517E+00
   H -0.177280624E+02 -0.342444145E+00  0.661215639E-02
   H  0.174063574E+02  0.100706146E+01 -0.194199775E+01
     4
 # iter = 43000  time[fs]=43.00000
   C -0.342285286E+01  0.753392589E-01 -0.125319360E-02
   C  0.357408944E+01 -0.225297872E-01  0.191087848E+00
   H -0.180932970E+02 -0.350144350E+00  0.723584244E-02
   H  0.177590375E+02  0.102794031E+01 -0.198202956E+01
     4
 # iter = 43500  time[fs]=43.50000
   C -0.350154414E+01  0.765416891E-01 -0.146006768E-02
   C  0.365462696E+01 -0.236379387E-01  0.195749436E+00
   H -0.184587932E+02 -0.357851371E+00  0.786048432E-02
   H  0.181119860E+02  0.104883585E+01 -0.202209532E+01
     4
 # iter = 44000  time[fs]=44.00000
   C -0.358047528E+01  0.777476726E-01 -0.167317683E-02
   C  0.373540378E+01 -0.247504380E-01  0.200419906E+00
   H -0.188245410E+02 -0.365564952E+00  0.848605223E-02
   H  0.184651927E+02  0.106974750E+01 -0.206219377E+01
     4
 # iter = 44500  time[fs]=44.50000
   C -0.365963586E+01  0.789570600E-01 -0.189226548E-02
   C  0.381640949E+01 -0.258671075E-01  0.205098907E+00
   H -0.191905307E+02 -0.373284851E+00  0.911251772E-02
   H  0.188186479E+02  0.109067466E+01 -0.210232374E+01
     4
 # iter = 45000  time[fs]=45.00000
   C -0.373901610E+01  0.801697108E-01 -0.211709276E-02
   C  0.389763434E+01 -0.269877802E-01  0.209786105E+00
   H -0.195567534E+02 -0.381010840E+00  0.973985362E-02
   H  0.191723425E+02  0.111161678E+01 -0.214248409E+01
     4
 # iter = 45500  time[fs]=45.50000
   C -0.381860682E+01  0.813854927E-01 -0.234743141E-02
   C  0.397906914E+01 -0.281122983E-01  0.214481188E+00
   H -0.199232005E+02 -0.388742703E+00  0.103680340E-01
   H  0.195262677E+02  0.113257335E+01 -0.218267375E+01
     4
 # iter = 46000  time[fs]=46.00000
   C -0.389839937E+01  0.826042810E-01 -0.258306680E-02
   C  0.406070526E+01 -0.292405133E-01  0.219183858E+00
   H -0.202898641E+02 -0.396480235E+00  0.109970340E-01
   H  0.198804155E+02  0.115354388E+01 -0.222289173E+01
     4
 # iter = 46500  time[fs]=46.50000
   C -0.397838560E+01  0.838259583E-01 -0.282379608E-02
   C  0.414253456E+01 -0.303722845E-01  0.223893835E+00
   H -0.206567363E+02 -0.404223241E+00  0.116268298E-01
   H  0.202347780E+02  0.117452789E+01 -0.226313705E+01
     4
 # iter = 47000  time[fs]=47.00000
   C -0.405855783E+01  0.850504135E-01 -0.306942736E-02
   C  0.422454938E+01 -0.315074793E-01  0.228610853E+00
   H -0.210238101E+02 -0.411971537E+00  0.122573988E-01
   H  0.205893479E+02  0.119552493E+01 -0.230340881E+01
     4
 # iter = 47500  time[fs]=47.50000
   C -0.413890880E+01  0.862775416E-01 -0.331977895E-02
   C  0.430674247E+01 -0.326459721E-01  0.233334659E+00
   H -0.213910785E+02 -0.419724947E+00  0.128887192E-01
   H  0.209441181E+02  0.121653459E+01 -0.234370614E+01
     4
 # iter = 48000  time[fs]=48.00000
   C -0.421943168E+01  0.875072434E-01 -0.357467869E-02
   C  0.438910699E+01 -0.337876438E-01  0.238065014E+00
   H -0.217585351E+02 -0.427483305E+00  0.135207700E-01
   H  0.212990820E+02  0.123755646E+01 -0.238402822E+01
     4
 # iter = 48500  time[fs]=48.50000
   C -0.430011998E+01  0.887394248E-01 -0.383396332E-02
   C  0.447163647E+01 -0.349323815E-01  0.242801692E+00
   H -0.221261735E+02 -0.435246451E+00  0.141535313E-01
   H  0.216542332E+02  0.125859015E+01 -0.242437425E+01
     4
 # iter = 49000  time[fs]=49.00000
   C -0.438096757E+01  0.899739968E-01 -0.409747787E-02
   C  0.455432480E+01 -0.360800784E-01  0.247544476E+00
   H -0.224939879E+02 -0.443014235E+00  0.147869837E-01
   H  0.220095658E+02  0.127963531E+01 -0.246474350E+01
     4
 # iter = 49500  time[fs]=49.50000
   C -0.446196864E+01  0.912108750E-01 -0.436507517E-02
   C  0.463716618E+01 -0.372306327E-01  0.252293162E+00
   H -0.228619726E+02 -0.450786512E+00  0.154211090E-01
   H  0.223650740E+02  0.130069157E+01 -0.250513524E+01
     4
 # iter = 50000  time[fs]=50.00000
   C -0.454311768E+01  0.924499790E-01 -0.463661531E-02
   C  0.472015511E+01 -0.383839478E-01  0.257047554E+00
   H -0.232301224E+02 -0.458563145E+00  0.160558892E-01
   H  0.227207523E+02  0.132175861E+01 -0.254554880E+01
     4
 # iter = 50500  time[fs]=50.50000
   C -0.462440948E+01  0.936912327E-01 -0.491196523E-02
   C  0.480328637E+01 -0.395399319E-01  0.261807467E+00
   H -0.235984320E+02 -0.466344002E+00  0.166913075E-01
   H  0.230765955E+02  0.134283611E+01 -0.258598353E+01
     4
 # iter = 51000  time[fs]=51.00000
   C -0.470583906E+01  0.949345636E-01 -0.519099824E-02
   C  0.488655501E+01 -0.406984976E-01  0.266572722E+00
   H -0.239668967E+02 -0.474128958E+00  0.173273474E-01
   H  0.234325985E+02  0.136392376E+01 -0.262643880E+01
     4
 # iter = 51500  time[fs]=51.50000
   C -0.478740172E+01  0.961799028E-01 -0.547359367E-02
   C  0.496995632E+01 -0.418595615E-01  0.271343152E+00
   H -0.243355117E+02 -0.481917893E+00  0.179639931E-01
   H  0.237887567E+02  0.138502126E+01 -0.266691401E+01
     4
 # iter = 52000  time[fs]=52.00000
   C -0.486909296E+01  0.974271847E-01 -0.575963651E-02
   C  0.505348583E+01 -0.430230442E-01  0.276118595E+00
   H -0.247042726E+02 -0.489710692E+00  0.186012295E-01
   H  0.241450655E+02  0.140612834E+01 -0.270740860E+01
     4
 # iter = 52500  time[fs]=52.50000
   C -0.495090852E+01  0.986763466E-01 -0.604901704E-02
   C  0.513713928E+01 -0.441888701E-01  0.280898896E+00
   H -0.250731751E+02 -0.497507245E+00  0.192390420E-01
   H  0.245015205E+02  0.142724474E+01 -0.274792202E+01
     4
 # iter = 53000  time[fs]=53.00000
   C -0.503284433E+01  0.999273289E-01 -0.634163055E-02
   C  0.522091260E+01 -0.453569667E-01  0.285683910E+00
   H -0.254422151E+02 -0.505307448E+00  0.198774164E-01
   H  0.248581175E+02  0.144837018E+01 -0.278845375E+01
     4
 # iter = 53500  time[fs]=53.50000
   C -0.511489651E+01  0.101180075E+00 -0.663737701E-02
   C  0.530480193E+01 -0.465272652E-01  0.290473494E+00
   H -0.258113888E+02 -0.513111198E+00  0.205163392E-01
   H  0.252148525E+02  0.146950444E+01 -0.282900328E+01
     4
 # iter = 54000  time[fs]=54.00000
   C -0.519706138E+01  0.102434530E+00 -0.693616085E-02
   C  0.538880359E+01 -0.476996994E-01  0.295267515E+00
   H -0.261806924E+02 -0.520918399E+00  0.211557974E-01
   H  0.255717217E+02  0.149064726E+01 -0.286957014E+01
     4
 # iter = 54500  time[fs]=54.50000
   C -0.527933539E+01  0.103690642E+00 -0.723789068E-02
   C  0.547291404E+01 -0.488742063E-01  0.300065843E+00
   H -0.265501223E+02 -0.528728959E+00  0.217957782E-01
   H  0.259287214E+02  0.151179843E+01 -0.291015386E+01
     4
 # iter = 55000  time[fs]=55.00000
   C -0.536171518E+01  0.104948362E+00 -0.754247904E-02
   C  0.555712993E+01 -0.500507254E-01  0.304868356E+00
   H -0.269196750E+02 -0.536542788E+00  0.224362695E-01
   H  0.262858481E+02  0.153295772E+01 -0.295075400E+01
     4
 # iter = 55500  time[fs]=55.50000
   C -0.544419753E+01  0.106207642E+00 -0.784984221E-02
   C  0.564144804E+01 -0.512291989E-01  0.309674934E+00
   H -0.272893474E+02 -0.544359801E+00  0.230772596E-01
   H  0.266430984E+02  0.155412493E+01 -0.299137013E+01
     4
 # iter = 56000  time[fs]=56.00000
   C -0.552677937E+01  0.107468437E+00 -0.815990001E-02
   C  0.572586531E+01 -0.524095714E-01  0.314485465E+00
   H -0.276591361E+02 -0.552179915E+00  0.237187371E-01
   H  0.270004691E+02  0.157529986E+01 -0.303200184E+01
     4
 # iter = 56500  time[fs]=56.50000
   C -0.560945773E+01  0.108730702E+00 -0.847257558E-02
   C  0.581037878E+01 -0.535917898E-01  0.319299840E+00
   H -0.280290382E+02 -0.560003051E+00  0.243606910E-01
   H  0.273579569E+02  0.159648230E+01 -0.307264874E+01
     4
 # iter = 57000  time[fs]=57.00000
   C -0.569222981E+01  0.109994397E+00 -0.878779521E-02
   C  0.589498566E+01 -0.547758031E-01  0.324117954E+00
   H -0.283990506E+02 -0.567829132E+00  0.250031106E-01
   H  0.277155589E+02  0.161767207E+01 -0.311331044E+01
     4
 # iter = 57500  time[fs]=57.50000
   C -0.577509290E+01  0.111259482E+00 -0.910548820E-02
   C  0.597968323E+01 -0.559615623E-01  0.328939706E+00
   H -0.287691707E+02 -0.575658087E+00  0.256459858E-01
   H  0.280732722E+02  0.163886900E+01 -0.315398659E+01
     4
 # iter = 58000  time[fs]=58.00000
   C -0.585804441E+01  0.112525917E+00 -0.942558666E-02
   C  0.606446893E+01 -0.571490206E-01  0.333765001E+00
   H -0.291393956E+02 -0.583489843E+00  0.262893066E-01
   H  0.284310941E+02  0.166007290E+01 -0.319467683E+01
     4
 # iter = 58500  time[fs]=58.50000
   C -0.594108185E+01  0.113793666E+00 -0.974802541E-02
   C  0.614934026E+01 -0.583381328E-01  0.338593746E+00
   H -0.295097228E+02 -0.591324333E+00  0.269330633E-01
   H  0.287890217E+02  0.168128362E+01 -0.323538081E+01
     4
 # iter = 59000  time[fs]=59.00000
   C -0.602420285E+01  0.115062694E+00 -0.100727418E-01
   C  0.623429486E+01 -0.595288556E-01  0.343425851E+00
   H -0.298801498E+02 -0.599161491E+00  0.275772467E-01
   H  0.291470527E+02  0.170250099E+01 -0.327609822E+01
     4
 # iter = 59500  time[fs]=59.50000
   C -0.610740512E+01  0.116332967E+00 -0.103996756E-01
   C  0.631933044E+01 -0.607211472E-01  0.348261231E+00
   H -0.302506741E+02 -0.607001253E+00  0.282218478E-01
   H  0.295051843E+02  0.172372485E+01 -0.331682873E+01
     4
 # iter = 60000  time[fs]=60.00000
   C -0.619068646E+01  0.117604452E+00 -0.107287690E-01
   C  0.640444480E+01 -0.619149675E-01  0.353099804E+00
   H -0.306212933E+02 -0.614843560E+00  0.288668579E-01
   H  0.298634143E+02  0.174495505E+01 -0.335757204E+01
     4
 # iter = 60500  time[fs]=60.50000
   C -0.627404475E+01  0.118877118E+00 -0.110599661E-01
   C  0.648963586E+01 -0.631102779E-01  0.357941488E+00
   H -0.309920053E+02 -0.622688352E+00  0.295122684E-01
   H  0.302217403E+02  0.176619145E+01 -0.339832786E+01
     4
 # iter = 61000  time[fs]=61.00000
   C -0.635747797E+01  0.120150934E+00 -0.113932134E-01
   C  0.657490157E+01 -0.643070412E-01  0.362786209E+00
   H -0.313628079E+02 -0.630535571E+00  0.301580713E-01
   H  0.305801601E+02  0.178743392E+01 -0.343909590E+01
     4
 # iter = 61500  time[fs]=61.50000
   C -0.644098417E+01  0.121425871E+00 -0.117284591E-01
   C  0.666023999E+01 -0.655052216E-01  0.367633892E+00
   H -0.317336989E+02 -0.638385164E+00  0.308042585E-01
   H  0.309386715E+02  0.180868230E+01 -0.347987589E+01
     4
 # iter = 62000  time[fs]=62.00000
   C -0.652456147E+01  0.122701901E+00 -0.120656536E-01
   C  0.674564925E+01 -0.667047845E-01  0.372484465E+00
   H -0.321046763E+02 -0.646237076E+00  0.314508223E-01
   H  0.312972724E+02  0.182993648E+01 -0.352066756E+01
     4
 # iter = 62500  time[fs]=62.50000
   C -0.660820805E+01  0.123978998E+00 -0.124047487E-01
   C  0.683112755E+01 -0.679056966E-01  0.377337861E+00
   H -0.324757382E+02 -0.654091257E+00  0.320977553E-01
   H  0.316559609E+02  0.185119632E+01 -0.356147065E+01
     4
 # iter = 63000  time[fs]=63.00000
   C -0.669192219E+01  0.125257134E+00 -0.127456983E-01
   C  0.691667315E+01 -0.691079258E-01  0.382194012E+00
   H -0.328468827E+02 -0.661947657E+00  0.327450502E-01
   H  0.320147349E+02  0.187246170E+01 -0.360228492E+01
     4
 # iter = 63500  time[fs]=63.50000
   C -0.677570218E+01  0.126536286E+00 -0.130884577E-01
   C  0.700228437E+01 -0.703114410E-01  0.387052854E+00
   H -0.332181079E+02 -0.669806227E+00  0.333926999E-01
   H  0.323735926E+02  0.189373251E+01 -0.364311012E+01
     4
 # iter = 64000  time[fs]=64.00000
   C -0.685954643E+01  0.127816428E+00 -0.134329838E-01
   C  0.708795959E+01 -0.715162124E-01  0.391914327E+00
   H -0.335894121E+02 -0.677666922E+00  0.340406977E-01
   H  0.327325321E+02  0.191500863E+01 -0.368394603E+01
     4
 # iter = 64500  time[fs]=64.50000
   C -0.694345337E+01  0.129097538E+00 -0.137792351E-01
   C  0.717369728E+01 -0.727222110E-01  0.396778368E+00
   H -0.339607935E+02 -0.685529696E+00  0.346890368E-01
   H  0.330915517E+02  0.193628995E+01 -0.372479241E+01
     4
 # iter = 65000  time[fs]=65.00000
   C -0.702742150E+01  0.130379592E+00 -0.141271714E-01
   C  0.725949591E+01 -0.739294089E-01  0.401644922E+00
   H -0.343322506E+02 -0.693394505E+00  0.353377109E-01
   H  0.334506497E+02  0.195757635E+01 -0.376564905E+01
     4
 # iter = 65500  time[fs]=65.50000
   C -0.711144935E+01  0.131662569E+00 -0.144767538E-01
   C  0.734535405E+01 -0.751377790E-01  0.406513932E+00
   H -0.347037816E+02 -0.701261308E+00  0.359867136E-01
   H  0.338098244E+02  0.197886774E+01 -0.380651574E+01
     4
 # iter = 66000  time[fs]=66.00000
   C -0.719553553E+01  0.132946449E+00 -0.148279449E-01
   C  0.743127030E+01 -0.763472953E-01  0.411385344E+00
   H -0.350753850E+02 -0.709130063E+00  0.366360388E-01
   H  0.341690742E+02  0.200016401E+01 -0.384739227E+01
     4
 # iter = 66500  time[fs]=66.50000
   C -0.727967869E+01  0.134231209E+00 -0.151807084E-01
   C  0.751724330E+01 -0.775579325E-01  0.416259105E+00
   H -0.354470594E+02 -0.717000730E+00  0.372856805E-01
   H  0.345283976E+02  0.202146507E+01 -0.388827844E+01
     4
 # iter = 67000  time[fs]=67.00000
   C -0.736387751E+01  0.135516832E+00 -0.155350092E-01
   C  0.760327175E+01 -0.787696662E-01  0.421135165E+00
   H -0.358188033E+02 -0.724873272E+00  0.379356332E-01
   H  0.348877930E+02  0.204277082E+01 -0.392917406E+01
     4
 # iter = 67500  time[fs]=67.50000
   C -0.744813073E+01  0.136803297E+00 -0.158908134E-01
   C  0.768935439E+01 -0.799824727E-01  0.426013475E+00
   H -0.361906152E+02 -0.732747650E+00  0.385858910E-01
   H  0.352472590E+02  0.206408117E+01 -0.397007894E+01
     4
 # iter = 68000  time[fs]=68.00000
   C -0.753243713E+01  0.138090587E+00 -0.162480881E-01
   C  0.777548999E+01 -0.811963290E-01  0.430893987E+00
   H -0.365624937E+02 -0.740623829E+00  0.392364485E-01
   H  0.356067942E+02  0.208539602E+01 -0.401099290E+01
     4
 # iter = 68500  time[fs]=68.50000
   C -0.761679551E+01  0.139378683E+00 -0.166068016E-01
   C  0.786167738E+01 -0.824112131E-01  0.435776655E+00
   H -0.369344377E+02 -0.748501773E+00  0.398873005E-01
   H  0.359663971E+02  0.210671529E+01 -0.405191577E+01
     4
 # iter = 69000  time[fs]=69.00000
   C -0.770120475E+01  0.140667568E+00 -0.169669231E-01
   C  0.794791542E+01 -0.836271034E-01  0.440661435E+00
   H -0.373064456E+02 -0.756381448E+00  0.405384417E-01
   H  0.363260665E+02  0.212803890E+01 -0.409284736E+01
     4
 # iter = 69500  time[fs]=69.50000
   C -0.778566372E+01  0.141957225E+00 -0.173284226E-01
   C  0.803420300E+01 -0.848439790E-01  0.445548283E+00
   H -0.376785164E+02 -0.764262821E+00  0.411898671E-01
   H  0.366858011E+02  0.214936677E+01 -0.413378753E+01
     4
 # iter = 70000  time[fs]=70.00000
   C -0.787017135E+01  0.143247639E+00 -0.176912714E-01
   C  0.812053905E+01 -0.860618198E-01  0.450437157E+00
   H -0.380506487E+02 -0.772145860E+00  0.418415718E-01
   H  0.370455996E+02  0.217069880E+01 -0.417473609E+01
     4
 # iter = 70500  time[fs]=70.50000
   C -0.795472661E+01  0.144538793E+00 -0.180554413E-01
   C  0.820692253E+01 -0.872806062E-01  0.455328017E+00
   H -0.384228414E+02 -0.780030533E+00  0.424935510E-01
   H  0.374054607E+02  0.219203494E+01 -0.421569291E+01
     4
 # iter = 71000  time[fs]=71.00000
   C -0.803932849E+01  0.145830673E+00 -0.184209053E-01
   C  0.829335244E+01 -0.885003191E-01  0.460220823E+00
   H -0.387950934E+02 -0.787916810E+00  0.431458001E-01
   H  0.377653834E+02  0.221337509E+01 -0.425665782E+01
     4
 # iter = 71500  time[fs]=71.50000
   C -0.812397601E+01  0.147123263E+00 -0.187876368E-01
   C  0.837982781E+01 -0.897209402E-01  0.465115537E+00
   H -0.391674035E+02 -0.795804661E+00  0.437983144E-01
   H  0.381253664E+02  0.223471919E+01 -0.429763067E+01
     4
 # iter = 72000  time[fs]=72.00000
   C -0.820866823E+01  0.148416549E+00 -0.191556104E-01
   C  0.846634770E+01 -0.909424515E-01  0.470012120E+00
   H -0.395397706E+02 -0.803694057E+00  0.444510896E-01
   H  0.384854086E+02  0.225606716E+01 -0.433861132E+01
     4
 # iter = 72500  time[fs]=72.50000
   C -0.829340422E+01  0.149710517E+00 -0.195248013E-01
   C  0.855291118E+01 -0.921648357E-01  0.474910538E+00
   H -0.399121937E+02 -0.811584971E+00  0.451041213E-01
   H  0.388455089E+02  0.227741894E+01 -0.437959964E+01
     4
 # iter = 73000  time[fs]=73.00000
   C -0.837818310E+01  0.151005154E+00 -0.198951852E-01
   C  0.863951738E+01 -0.933880757E-01  0.479810755E+00
   H -0.402846717E+02 -0.819477375E+00  0.457574053E-01
   H  0.392056663E+02  0.229877445E+01 -0.442059547E+01
     4
 # iter = 73500  time[fs]=73.50000
   C -0.846300401E+01  0.152300446E+00 -0.202667389E-01
   C  0.872616543E+01 -0.946121554E-01  0.484712737E+00
   H -0.406572037E+02 -0.827371243E+00  0.464109375E-01
   H  0.395658796E+02  0.232013364E+01 -0.446159870E+01
     4
 # iter = 74000  time[fs]=74.00000
   C -0.854786609E+01  0.153596381E+00 -0.206394396E-01
   C  0.881285449E+01 -0.958370586E-01  0.489616450E+00
   H -0.410297887E+02 -0.835266548E+00  0.470647139E-01
   H  0.399261481E+02  0.234149644E+01 -0.450260918E+01
     4
 # iter = 74500  time[fs]=74.50000
   C -0.863276856E+01  0.154892947E+00 -0.210132652E-01
   C  0.889958376E+01 -0.970627700E-01  0.494521863E+00
   H -0.414024257E+02 -0.843163266E+00  0.477187306E-01
   H  0.402864705E+02  0.236286278E+01 -0.454362680E+01
     4
 # iter = 75000  time[fs]=75.00000
   C -0.871771060E+01  0.156190131E+00 -0.213881943E-01
   C  0.898635244E+01 -0.982892744E-01  0.499428944E+00
   H -0.417751139E+02 -0.851061372E+00  0.483729837E-01
   H  0.406468461E+02  0.238423260E+01 -0.458465143E+01
     4
 # iter = 75500  time[fs]=75.50000
   C -0.880269145E+01  0.157487922E+00 -0.217642059E-01
   C  0.907315977E+01 -0.995165573E-01  0.504337661E+00
   H -0.421478522E+02 -0.858960843E+00  0.490274695E-01
   H  0.410072738E+02  0.240560584E+01 -0.462568294E+01
     4
 # iter = 76000  time[fs]=76.00000
   C -0.888771038E+01  0.158786308E+00 -0.221412798E-01
   C  0.916000501E+01 -0.100744604E+00  0.509247987E+00
   H -0.425206399E+02 -0.866861654E+00  0.496821844E-01
   H  0.413677527E+02  0.242698246E+01 -0.466672123E+01
     4
 # iter = 76500  time[fs]=76.50000
   C -0.897276664E+01  0.160085279E+00 -0.225193963E-01
   C  0.924688744E+01 -0.101973402E+00  0.514159891E+00
   H -0.428934761E+02 -0.874763783E+00  0.503371248E-01
   H  0.417282821E+02  0.244836238E+01 -0.470776618E+01
     4
 # iter = 77000  time[fs]=77.00000
   C -0.905785954E+01  0.161384823E+00 -0.228985361E-01
   C  0.933380635E+01 -0.103202936E+00  0.519073346E+00
   H -0.432663599E+02 -0.882667209E+00  0.509922873E-01
   H  0.420888609E+02  0.246974556E+01 -0.474881768E+01
     4
 # iter = 77500  time[fs]=77.50000
   C -0.914298839E+01  0.162684930E+00 -0.232786807E-01
   C  0.942076105E+01 -0.104433193E+00  0.523988324E+00
   H -0.436392906E+02 -0.890571909E+00  0.516476684E-01
   H  0.424494885E+02  0.249113194E+01 -0.478987562E+01
     4
 # iter = 78000  time[fs]=78.00000
   C -0.922815253E+01  0.163985591E+00 -0.236598117E-01
   C  0.950775089E+01 -0.105664162E+00  0.528904798E+00
   H -0.440122673E+02 -0.898477863E+00  0.523032648E-01
   H  0.428101639E+02  0.251252147E+01 -0.483093989E+01
     4
 # iter = 78500  time[fs]=78.50000
   C -0.931335130E+01  0.165286794E+00 -0.240419116E-01
   C  0.959477522E+01 -0.106895829E+00  0.533822743E+00
   H -0.443852893E+02 -0.906385051E+00  0.529590732E-01
   H  0.431708863E+02  0.253391409E+01 -0.487201039E+01
     4
 # iter = 79000  time[fs]=79.00000
   C -0.939858408E+01  0.166588531E+00 -0.244249631E-01
   C  0.968183341E+01 -0.108128182E+00  0.538742132E+00
   H -0.447583559E+02 -0.914293451E+00  0.536150906E-01
   H  0.435316551E+02  0.255530976E+01 -0.491308702E+01
     4
 # iter = 79500  time[fs]=79.50000
   C -0.948385025E+01  0.167890791E+00 -0.248089494E-01
   C  0.976892485E+01 -0.109361210E+00  0.543662942E+00
   H -0.451314663E+02 -0.922203045E+00  0.542713137E-01
   H  0.438924694E+02  0.257670844E+01 -0.495416969E+01
     4
 # iter = 80000  time[fs]=80.00000
   C -0.956914921E+01  0.169193567E+00 -0.251938541E-01
   C  0.985604894E+01 -0.110594901E+00  0.548585149E+00
   H -0.455046198E+02 -0.930113813E+00  0.549277396E-01
   H  0.442533285E+02  0.259811006E+01 -0.499525829E+01
