     4
 # iter = 25000  time[fs]=25.00000
   C -0.101032067E+01 -0.272136026E-01 -0.707719884E-02
   C  0.980557928E+00  0.364505260E-02  0.645741601E-01
   H -0.533065337E+01  0.415096515E+00 -0.581327712E+00
   H  0.535290491E+01  0.310118995E+00  0.354999220E+00
     4
 # iter = 25500  time[fs]=25.50000
   C -0.105752493E+01 -0.292922559E-01 -0.552194669E-02
   C  0.102224892E+01  0.239337965E-02  0.652105212E-01
   H -0.566216806E+01  0.440603147E+00 -0.618027956E+00
   H  0.567224408E+01  0.327698834E+00  0.373342578E+00
     4
 # iter = 26000  time[fs]=26.00000
   C -0.110851740E+01 -0.314464250E-01 -0.408413121E-02
   C  0.106772698E+01  0.118706451E-02  0.659759058E-01
   H -0.599628491E+01  0.466322916E+00 -0.655038705E+00
   H  0.599419929E+01  0.345427430E+00  0.391857398E+00
     4
 # iter = 26500  time[fs]=26.50000
   C -0.116297327E+01 -0.336683101E-01 -0.274755132E-02
   C  0.111666680E+01  0.216234646E-04  0.668528469E-01
   H -0.633271839E+01  0.492232148E+00 -0.692325816E+00
   H  0.631849076E+01  0.363288667E+00  0.410524730E+00
     4
 # iter = 27000  time[fs]=27.00000
   C -0.122058786E+01 -0.359509718E-01 -0.149810925E-02
   C  0.116876337E+01 -0.110709317E-02  0.678261805E-01
   H -0.667122697E+01  0.518310971E+00 -0.729860509E+00
   H  0.664488081E+01  0.381268938E+00  0.429328587E+00
     4
 # iter = 27500  time[fs]=27.50000
   C -0.128107926E+01 -0.382882580E-01 -0.323652276E-03
   C  0.122373460E+01 -0.220286672E-02  0.688828468E-01
   H -0.701160459E+01  0.544542536E+00 -0.767618294E+00
   H  0.697316583E+01  0.399356647E+00  0.448255365E+00
     4
 # iter = 28000  time[fs]=28.00000
   C -0.134418925E+01 -0.406747287E-01  0.786229032E-03
   C  0.128132213E+01 -0.326910530E-02  0.700116582E-01
   H -0.735367409E+01  0.570912423E+00 -0.805578162E+00
   H  0.730317015E+01  0.417541825E+00  0.467293393E+00
     4
 # iter = 28500  time[fs]=28.50000
   C -0.140968310E+01 -0.431055797E-01  0.184041504E-02
   C  0.134129117E+01 -0.430885719E-02  0.712030612E-01
   H -0.769728211E+01  0.597408192E+00 -0.843721949E+00
   H  0.763474120E+01  0.435815845E+00  0.486432584E+00
     4
 # iter = 29000  time[fs]=29.00000
   C -0.147734850E+01 -0.455765709E-01  0.284646506E-02
   C  0.140342939E+01 -0.532483484E-02  0.724489105E-01
   H -0.804229500E+01  0.624019035E+00 -0.882033849E+00
   H  0.796774562E+01  0.454171185E+00  0.505664165E+00
     4
 # iter = 29500  time[fs]=29.50000
   C -0.154699416E+01 -0.480839589E-01  0.381080889E-02
   C  0.146754550E+01 -0.631944392E-02  0.737422626E-01
   H -0.838859566E+01  0.650735495E+00 -0.920500018E+00
   H  0.830206624E+01  0.472601245E+00  0.524980454E+00
     4
 # iter = 30000  time[fs]=30.00000
   C -0.161844810E+01 -0.506244355E-01  0.473891732E-02
   C  0.153346755E+01 -0.729481409E-02  0.750771940E-01
   H -0.873608088E+01  0.677549249E+00 -0.959108263E+00
   H  0.863759955E+01  0.491100206E+00  0.544374694E+00
     4
 # iter = 30500  time[fs]=30.50000
   C -0.169155591E+01 -0.531950732E-01  0.563545044E-02
   C  0.160104115E+01 -0.825282913E-02  0.764486434E-01
   H -0.908465929E+01  0.704452936E+00 -0.997847789E+00
   H  0.897425369E+01  0.509662908E+00  0.563840902E+00
     4
 # iter = 31000  time[fs]=31.00000
   C -0.176617899E+01 -0.557932770E-01  0.650438477E-02
   C  0.167012778E+01 -0.919515546E-02  0.778522771E-01
   H -0.943424959E+01  0.731440007E+00 -0.103670899E+01
   H  0.931194673E+01  0.528284754E+00  0.583373763E+00
     4
 # iter = 31500  time[fs]=31.50000
   C -0.184219294E+01 -0.584167414E-01  0.734912107E-02
   C  0.174060308E+01 -0.101232682E-01  0.792843747E-01
   H -0.978477915E+01  0.758504611E+00 -0.107568329E+01
   H  0.965060538E+01  0.546961629E+00  0.602968529E+00
     4
 # iter = 32000  time[fs]=32.00000
   C -0.191948603E+01 -0.610634139E-01  0.817257507E-02
   C  0.181235539E+01 -0.110384744E-01  0.807417335E-01
   H -0.101361828E+02  0.785641501E+00 -0.111476299E+01
   H  0.999016375E+01  0.565689839E+00  0.622620943E+00
     4
 # iter = 32500  time[fs]=32.50000
   C -0.199795779E+01 -0.637314626E-01  0.897725358E-02
   C  0.188528431E+01 -0.119419343E-01  0.822215880E-01
   H -0.104884020E+02  0.812845949E+00 -0.115394114E+01
   H  0.103305624E+02  0.584466050E+00  0.642327175E+00
     4
 # iter = 33000  time[fs]=33.00000
   C -0.207751779E+01 -0.664192487E-01  0.976531811E-02
   C  0.195929946E+01 -0.128346793E-01  0.837215425E-01
   H -0.108413837E+02  0.840113681E+00 -0.119321149E+01
   H  0.106717476E+02  0.603287246E+00  0.662083763E+00
     4
 # iter = 33500  time[fs]=33.50000
   C -0.215808449E+01 -0.691253020E-01  0.105386381E-01
   C  0.203431937E+01 -0.137176280E-01  0.852395151E-01
   H -0.111950798E+02  0.867440820E+00 -0.123256834E+01
   H  0.110136705E+02  0.622150687E+00  0.681887572E+00
     4
 # iter = 34000  time[fs]=34.00000
   C -0.223958426E+01 -0.718483009E-01  0.112988351E-01
   C  0.211027048E+01 -0.145916003E-01  0.867736906E-01
   H -0.115494468E+02  0.894823838E+00 -0.127200651E+01
   H  0.113562868E+02  0.641053878E+00  0.701735751E+00
     4
 # iter = 34500  time[fs]=34.50000
   C -0.232195047E+01 -0.745870536E-01  0.120473203E-01
   C  0.218708622E+01 -0.154573297E-01  0.883224812E-01
   H -0.119044448E+02  0.922259515E+00 -0.131152130E+01
   H  0.116995558E+02  0.659994541E+00  0.721625698E+00
     4
 # iter = 35000  time[fs]=35.00000
   C -0.240512277E+01 -0.773404832E-01  0.127853252E-01
   C  0.226470630E+01 -0.163154735E-01  0.898844934E-01
   H -0.122600374E+02  0.949744904E+00 -0.135110837E+01
   H  0.120434404E+02  0.678970588E+00  0.741555037E+00
     4
 # iter = 35500  time[fs]=35.50000
   C -0.248904634E+01 -0.801076142E-01  0.135139277E-01
   C  0.234307596E+01 -0.171666221E-01  0.914585006E-01
   H -0.126161913E+02  0.977277300E+00 -0.139076377E+01
   H  0.123879065E+02  0.697980103E+00  0.761521588E+00
     4
 # iter = 36000  time[fs]=36.00000
   C -0.257367132E+01 -0.828875606E-01  0.142340745E-01
   C  0.242214541E+01 -0.180113073E-01  0.930434195E-01
   H -0.129728759E+02  0.100485421E+01 -0.143048384E+01
   H  0.127329229E+02  0.717021321E+00  0.781523348E+00
     4
 # iter = 36500  time[fs]=36.50000
   C -0.265895228E+01 -0.856795159E-01  0.149465987E-01
   C  0.250186925E+01 -0.188500086E-01  0.946382907E-01
   H -0.133300630E+02  0.103247336E+01 -0.147026524E+01
   H  0.130784606E+02  0.736092615E+00  0.801558473E+00
     4
 # iter = 37000  time[fs]=37.00000
   C -0.274484772E+01 -0.884827443E-01  0.156522361E-01
   C  0.258220606E+01 -0.196831597E-01  0.962422618E-01
   H -0.136877264E+02  0.106013260E+01 -0.151010485E+01
   H  0.134244929E+02  0.755192480E+00  0.821625257E+00
     4
 # iter = 37500  time[fs]=37.50000
   C -0.283131969E+01 -0.912965732E-01  0.163516379E-01
   C  0.266311793E+01 -0.205111536E-01  0.978545734E-01
   H -0.140458422E+02  0.108782999E+01 -0.154999981E+01
   H  0.137709952E+02  0.774319521E+00  0.841722127E+00
     4
 # iter = 38000  time[fs]=38.00000
   C -0.291833342E+01 -0.941203862E-01  0.170453824E-01
   C  0.274457014E+01 -0.213343469E-01  0.994745471E-01
   H -0.144043880E+02  0.111556369E+01 -0.158994745E+01
   H  0.141179446E+02  0.793472444E+00  0.861847620E+00
     4
 # iter = 38500  time[fs]=38.50000
   C -0.300585697E+01 -0.969536174E-01  0.177339838E-01
   C  0.282653080E+01 -0.221530642E-01  0.101101575E+00
   H -0.147633431E+02  0.114333203E+01 -0.162994529E+01
   H  0.144653197E+02  0.812650047E+00  0.882000381E+00
     4
 # iter = 39000  time[fs]=39.00000
   C -0.309386098E+01 -0.997957460E-01  0.184179012E-01
   C  0.290897060E+01 -0.229676013E-01  0.102735112E+00
   H -0.151226883E+02  0.117113341E+01 -0.166999103E+01
   H  0.148131007E+02  0.831851207E+00  0.902179146E+00
     4
 # iter = 39500  time[fs]=39.50000
   C -0.318231840E+01 -0.102646292E+00  0.190975449E-01
   C  0.299186254E+01 -0.237782285E-01  0.104374666E+00
   H -0.154824056E+02  0.119896638E+01 -0.171008252E+01
   H  0.151612693E+02  0.851074878E+00  0.922382739E+00
     4
 # iter = 40000  time[fs]=40.00000
   C -0.327120428E+01 -0.105504813E+00  0.197732824E-01
   C  0.307518168E+01 -0.245851929E-01  0.106019793E+00
   H -0.158424783E+02  0.122682955E+01 -0.175021776E+01
   H  0.155098081E+02  0.870320083E+00  0.942610064E+00
     4
 # iter = 40500  time[fs]=40.50000
   C -0.336049553E+01 -0.108370897E+00  0.204454442E-01
   C  0.315890501E+01 -0.253887210E-01  0.107670093E+00
   H -0.162028908E+02  0.125472163E+01 -0.179039486E+01
   H  0.158587011E+02  0.889585907E+00  0.962860091E+00
     4
 # iter = 41000  time[fs]=41.00000
   C -0.345017081E+01 -0.111244167E+00  0.211143275E-01
   C  0.324301120E+01 -0.261890211E-01  0.109325202E+00
   H -0.165636285E+02  0.128264143E+01 -0.183061206E+01
   H  0.162079331E+02  0.908871492E+00  0.983131861E+00
     4
 # iter = 41500  time[fs]=41.50000
   C -0.354021031E+01 -0.114124267E+00  0.217802004E-01
   C  0.332748049E+01 -0.269862844E-01  0.110984790E+00
   H -0.169246776E+02  0.131058781E+01 -0.187086772E+01
   H  0.165574901E+02  0.928176032E+00  0.100342447E+01
     4
 # iter = 42000  time[fs]=42.00000
   C -0.363059565E+01 -0.117010871E+00  0.224433052E-01
   C  0.341229453E+01 -0.277806873E-01  0.112648554E+00
   H -0.172860252E+02  0.133855972E+01 -0.191116029E+01
   H  0.169073586E+02  0.947498770E+00  0.102373708E+01
     4
 # iter = 42500  time[fs]=42.50000
   C -0.372130972E+01 -0.119903674E+00  0.231038612E-01
   C  0.349743626E+01 -0.285723925E-01  0.114316222E+00
   H -0.176476593E+02  0.136655614E+01 -0.195148830E+01
   H  0.172575262E+02  0.966838995E+00  0.104406888E+01
     4
 # iter = 43000  time[fs]=43.00000
   C -0.381233663E+01 -0.122802389E+00  0.237620675E-01
   C  0.358288979E+01 -0.293615504E-01  0.115987541E+00
   H -0.180095685E+02  0.139457613E+01 -0.199185039E+01
   H  0.176079812E+02  0.986196034E+00  0.106441913E+01
     4
 # iter = 43500  time[fs]=43.50000
   C -0.390366151E+01 -0.125706752E+00  0.244181048E-01
   C  0.366864031E+01 -0.301483002E-01  0.117662283E+00
   H -0.183717421E+02  0.142261882E+01 -0.203224526E+01
   H  0.179587124E+02  0.100556926E+01  0.108478713E+01
     4
 # iter = 44000  time[fs]=44.00000
   C -0.399527050E+01 -0.128616513E+00  0.250721377E-01
   C  0.375467400E+01 -0.309327709E-01  0.119340235E+00
   H -0.187341700E+02  0.145068335E+01 -0.207267168E+01
   H  0.183097094E+02  0.102495806E+01  0.110517220E+01
     4
 # iter = 44500  time[fs]=44.50000
   C -0.408715067E+01 -0.131531440E+00  0.257243162E-01
   C  0.384097791E+01 -0.317150823E-01  0.121021205E+00
   H -0.190968426E+02  0.147876894E+01 -0.211312851E+01
   H  0.186609624E+02  0.104436188E+01  0.112557372E+01
     4
 # iter = 45000  time[fs]=45.00000
   C -0.417928986E+01 -0.134451314E+00  0.263747774E-01
   C  0.392753995E+01 -0.324953458E-01  0.122705014E+00
   H -0.194597510E+02  0.150687484E+01 -0.215361465E+01
   H  0.190124619E+02  0.106378019E+01  0.114599109E+01
     4
 # iter = 45500  time[fs]=45.50000
   C -0.427167672E+01 -0.137375929E+00  0.270236465E-01
   C  0.401434879E+01 -0.332736649E-01  0.124391497E+00
   H -0.198228866E+02  0.153500033E+01 -0.219412906E+01
   H  0.193641992E+02  0.108321247E+01  0.116642375E+01
     4
 # iter = 46000  time[fs]=46.00000
   C -0.436430059E+01 -0.140305094E+00  0.276710383E-01
   C  0.410139377E+01 -0.340501363E-01  0.126080502E+00
   H -0.201862413E+02  0.156314474E+01 -0.223467077E+01
   H  0.197161658E+02  0.110265825E+01  0.118687117E+01
     4
 # iter = 46500  time[fs]=46.50000
   C -0.445715145E+01 -0.143238626E+00  0.283170579E-01
   C  0.418866492E+01 -0.348248500E-01  0.127771889E+00
   H -0.205498075E+02  0.159130742E+01 -0.227523884E+01
   H  0.200683538E+02  0.112211707E+01  0.120733284E+01
     4
 # iter = 47000  time[fs]=47.00000
   C -0.455021987E+01 -0.146176355E+00  0.289618022E-01
   C  0.427615283E+01 -0.355978903E-01  0.129465527E+00
   H -0.209135779E+02  0.161948778E+01 -0.231583240E+01
   H  0.204207557E+02  0.114158849E+01  0.122780827E+01
     4
 # iter = 47500  time[fs]=47.50000
   C -0.464349699E+01 -0.149118119E+00  0.296053598E-01
   C  0.436384866E+01 -0.363693360E-01  0.131161297E+00
   H -0.212775456E+02  0.164768523E+01 -0.235645059E+01
   H  0.207733643E+02  0.116107211E+01  0.124829701E+01
     4
 # iter = 48000  time[fs]=48.00000
   C -0.473697446E+01 -0.152063765E+00  0.302478128E-01
   C  0.445174407E+01 -0.371392607E-01  0.132859084E+00
   H -0.216417041E+02  0.167589923E+01 -0.239709263E+01
   H  0.211261728E+02  0.118056753E+01  0.126879864E+01
     4
 # iter = 48500  time[fs]=48.50000
   C -0.483064439E+01 -0.155013151E+00  0.308892365E-01
   C  0.453983121E+01 -0.379077336E-01  0.134558786E+00
   H -0.220060472E+02  0.170412924E+01 -0.243775775E+01
   H  0.214791747E+02  0.120007437E+01  0.128931272E+01
     4
 # iter = 49000  time[fs]=49.00000
   C -0.492449934E+01 -0.157966140E+00  0.315297005E-01
   C  0.462810264E+01 -0.386748196E-01  0.136260305E+00
   H -0.223705689E+02  0.173237478E+01 -0.247844523E+01
   H  0.218323639E+02  0.121959229E+01  0.130983888E+01
     4
 # iter = 49500  time[fs]=49.50000
   C -0.501853228E+01 -0.160922603E+00  0.321692693E-01
   C  0.471655136E+01 -0.394405796E-01  0.137963550E+00
   H -0.227352635E+02  0.176063536E+01 -0.251915437E+01
   H  0.221857344E+02  0.123912094E+01  0.133037673E+01
     4
 # iter = 50000  time[fs]=50.00000
   C -0.511273655E+01 -0.163882417E+00  0.328080024E-01
   C  0.480517073E+01 -0.402050710E-01  0.139668436E+00
   H -0.231001256E+02  0.178891052E+01 -0.255988452E+01
   H  0.225392807E+02  0.125866000E+01  0.135092592E+01
     4
 # iter = 50500  time[fs]=50.50000
   C -0.520710585E+01 -0.166845467E+00  0.334459548E-01
   C  0.489395448E+01 -0.409683476E-01  0.141374885E+00
   H -0.234651502E+02  0.181719985E+01 -0.260063504E+01
   H  0.228929974E+02  0.127820915E+01  0.137148610E+01
     4
 # iter = 51000  time[fs]=51.00000
   C -0.530163422E+01 -0.169811643E+00  0.340831777E-01
   C  0.498289663E+01 -0.417304604E-01  0.143082822E+00
   H -0.238303323E+02  0.184550291E+01 -0.264140534E+01
   H  0.232468794E+02  0.129776810E+01  0.139205695E+01
     4
 # iter = 51500  time[fs]=51.50000
   C -0.539631599E+01 -0.172780840E+00  0.347197186E-01
   C  0.507199156E+01 -0.424914571E-01  0.144792178E+00
   H -0.241956672E+02  0.187381931E+01 -0.268219484E+01
   H  0.236009217E+02  0.131733658E+01  0.141263815E+01
     4
 # iter = 52000  time[fs]=52.00000
   C -0.549114579E+01 -0.175752958E+00  0.353556213E-01
   C  0.516123391E+01 -0.432513832E-01  0.146502889E+00
   H -0.245611505E+02  0.190214868E+01 -0.272300298E+01
   H  0.239551198E+02  0.133691429E+01  0.143322941E+01
     4
 # iter = 52500  time[fs]=52.50000
   C -0.558611852E+01 -0.178727903E+00  0.359909270E-01
   C  0.525061857E+01 -0.440102812E-01  0.148214892E+00
   H -0.249267777E+02  0.193049065E+01 -0.276382925E+01
   H  0.243094691E+02  0.135650100E+01  0.145383044E+01
     4
 # iter = 53000  time[fs]=53.00000
   C -0.568122931E+01 -0.181705585E+00  0.366256737E-01
   C  0.534014072E+01 -0.447681917E-01  0.149928131E+00
   H -0.252925449E+02  0.195884486E+01 -0.280467313E+01
   H  0.246639653E+02  0.137609645E+01  0.147444097E+01
     4
 # iter = 53500  time[fs]=53.50000
   C -0.577647356E+01 -0.184685917E+00  0.372598969E-01
   C  0.542979576E+01 -0.455251529E-01  0.151642551E+00
   H -0.256584481E+02  0.198721100E+01 -0.284553414E+01
   H  0.250186044E+02  0.139570039E+01  0.149506073E+01
     4
 # iter = 54000  time[fs]=54.00000
   C -0.587184686E+01 -0.187668817E+00  0.378936296E-01
   C  0.551957929E+01 -0.462812009E-01  0.153358102E+00
   H -0.260244835E+02  0.201558872E+01 -0.288641182E+01
   H  0.253733824E+02  0.141531260E+01  0.151568948E+01
     4
 # iter = 54500  time[fs]=54.50000
   C -0.596734503E+01 -0.190654208E+00  0.385269028E-01
   C  0.560948714E+01 -0.470363702E-01  0.155074737E+00
   H -0.263906474E+02  0.204397773E+01 -0.292730572E+01
   H  0.257282955E+02  0.143493287E+01  0.153632696E+01
     4
 # iter = 55000  time[fs]=55.00000
   C -0.606296408E+01 -0.193642014E+00  0.391597453E-01
   C  0.569951534E+01 -0.477906932E-01  0.156792408E+00
   H -0.267569365E+02  0.207237773E+01 -0.296821541E+01
   H  0.260833401E+02  0.145456097E+01  0.155697295E+01
     4
 # iter = 55500  time[fs]=55.50000
   C -0.615870019E+01 -0.196632164E+00  0.397921839E-01
   C  0.578966008E+01 -0.485442009E-01  0.158511075E+00
   H -0.271233474E+02  0.210078844E+01 -0.300914048E+01
   H  0.264385127E+02  0.147419671E+01  0.157762723E+01
     4
 # iter = 56000  time[fs]=56.00000
   C -0.625454973E+01 -0.199624589E+00  0.404242438E-01
   C  0.587991774E+01 -0.492969226E-01  0.160230697E+00
   H -0.274898768E+02  0.212920958E+01 -0.305008053E+01
   H  0.267938099E+02  0.149383989E+01  0.159828958E+01
     4
 # iter = 56500  time[fs]=56.50000
   C -0.635050921E+01 -0.202619224E+00  0.410559486E-01
   C  0.597028486E+01 -0.500488863E-01  0.161951235E+00
   H -0.278565218E+02  0.215764088E+01 -0.309103519E+01
   H  0.271492287E+02  0.151349032E+01  0.161895979E+01
     4
 # iter = 57000  time[fs]=57.00000
   C -0.644657533E+01 -0.205616006E+00  0.416873204E-01
   C  0.606075812E+01 -0.508001184E-01  0.163672654E+00
   H -0.282232792E+02  0.218608211E+01 -0.313200408E+01
   H  0.275047657E+02  0.153314782E+01  0.163963767E+01
     4
 # iter = 57500  time[fs]=57.50000
   C -0.654274489E+01 -0.208614875E+00  0.423183797E-01
   C  0.615133435E+01 -0.515506443E-01  0.165394919E+00
   H -0.285901464E+02  0.221453300E+01 -0.317298686E+01
   H  0.278604182E+02  0.155281222E+01  0.166032302E+01
     4
 # iter = 58000  time[fs]=58.00000
   C -0.663901487E+01 -0.211615773E+00  0.429491460E-01
   C  0.624201054E+01 -0.523004880E-01  0.167117999E+00
   H -0.289571205E+02  0.224299333E+01 -0.321398319E+01
   H  0.282161831E+02  0.157248335E+01  0.168101567E+01
     4
 # iter = 58500  time[fs]=58.50000
   C -0.673538234E+01 -0.214618646E+00  0.435796375E-01
   C  0.633278376E+01 -0.530496725E-01  0.168841862E+00
   H -0.293241989E+02  0.227146286E+01 -0.325499273E+01
   H  0.285720578E+02  0.159216105E+01  0.170171543E+01
     4
 # iter = 59000  time[fs]=59.00000
   C -0.683184452E+01 -0.217623439E+00  0.442098711E-01
   C  0.642365125E+01 -0.537982196E-01  0.170566479E+00
   H -0.296913790E+02  0.229994139E+01 -0.329601517E+01
   H  0.289280396E+02  0.161184516E+01  0.172242213E+01
     4
 # iter = 59500  time[fs]=59.50000
   C -0.692839873E+01 -0.220630102E+00  0.448398630E-01
   C  0.651461034E+01 -0.545461502E-01  0.172291823E+00
   H -0.300586585E+02  0.232842870E+01 -0.333705021E+01
   H  0.292841259E+02  0.163153554E+01  0.174313562E+01
     4
 # iter = 60000  time[fs]=60.00000
   C -0.702504240E+01 -0.223638586E+00  0.454696282E-01
   C  0.660565846E+01 -0.552934842E-01  0.174017867E+00
   H -0.304260349E+02  0.235692458E+01 -0.337809755E+01
   H  0.296403142E+02  0.165123203E+01  0.176385572E+01
     4
 # iter = 60500  time[fs]=60.50000
   C -0.712177308E+01 -0.226648844E+00  0.460991807E-01
   C  0.669679318E+01 -0.560402407E-01  0.175744586E+00
   H -0.307935059E+02  0.238542885E+01 -0.341915692E+01
   H  0.299966021E+02  0.167093449E+01  0.178458229E+01
     4
 # iter = 61000  time[fs]=61.00000
   C -0.721858840E+01 -0.229660831E+00  0.467285341E-01
   C  0.678801212E+01 -0.567864379E-01  0.177471957E+00
   H -0.311610694E+02  0.241394130E+01 -0.346022802E+01
   H  0.303529874E+02  0.169064280E+01  0.180531518E+01
     4
 # iter = 61500  time[fs]=61.50000
   C -0.731548608E+01 -0.232674502E+00  0.473577008E-01
   C  0.687931303E+01 -0.575320932E-01  0.179199957E+00
   H -0.315287232E+02  0.244246176E+01 -0.350131061E+01
   H  0.307094678E+02  0.171035681E+01  0.182605425E+01
     4
 # iter = 62000  time[fs]=62.00000
   C -0.741246394E+01 -0.235689816E+00  0.479866925E-01
   C  0.697069373E+01 -0.582772232E-01  0.180928564E+00
   H -0.318964652E+02  0.247099005E+01 -0.354240443E+01
   H  0.310660411E+02  0.173007641E+01  0.184679935E+01
     4
 # iter = 62500  time[fs]=62.50000
   C -0.750951988E+01 -0.238706733E+00  0.486155205E-01
   C  0.706215213E+01 -0.590218440E-01  0.182657757E+00
   H -0.322642936E+02  0.249952600E+01 -0.358350922E+01
   H  0.314227053E+02  0.174980147E+01  0.186755035E+01
     4
 # iter = 63000  time[fs]=63.00000
   C -0.760665189E+01 -0.241725213E+00  0.492441953E-01
   C  0.715368621E+01 -0.597659707E-01  0.184387518E+00
   H -0.326322063E+02  0.252806943E+01 -0.362462475E+01
   H  0.317794584E+02  0.176953187E+01  0.188830713E+01
     4
 # iter = 63500  time[fs]=63.50000
   C -0.770385801E+01 -0.244745219E+00  0.498727266E-01
   C  0.724529405E+01 -0.605096181E-01  0.186117826E+00
   H -0.330002014E+02  0.255662020E+01 -0.366575078E+01
   H  0.321362983E+02  0.178926750E+01  0.190906956E+01
     4
 # iter = 64000  time[fs]=64.00000
   C -0.780113638E+01 -0.247766715E+00  0.505011239E-01
   C  0.733697376E+01 -0.612528001E-01  0.187848665E+00
   H -0.333682773E+02  0.258517815E+01 -0.370688710E+01
   H  0.324932233E+02  0.180900824E+01  0.192983752E+01
     4
 # iter = 64500  time[fs]=64.50000
   C -0.789848518E+01 -0.250789665E+00  0.511293960E-01
   C  0.742872357E+01 -0.619955304E-01  0.189580017E+00
   H -0.337364322E+02  0.261374312E+01 -0.374803348E+01
   H  0.328502315E+02  0.182875399E+01  0.195061089E+01
     4
 # iter = 65000  time[fs]=65.00000
   C -0.799590269E+01 -0.253814037E+00  0.517575511E-01
   C  0.752054173E+01 -0.627378217E-01  0.191311865E+00
   H -0.341046643E+02  0.264231497E+01 -0.378918972E+01
   H  0.332073212E+02  0.184850465E+01  0.197138955E+01
     4
 # iter = 65500  time[fs]=65.50000
   C -0.809338723E+01 -0.256839796E+00  0.523855972E-01
   C  0.761242658E+01 -0.634796865E-01  0.193044195E+00
   H -0.344729721E+02  0.267089355E+01 -0.383035561E+01
   H  0.335644906E+02  0.186826011E+01  0.199217341E+01
     4
 # iter = 66000  time[fs]=66.00000
   C -0.819093717E+01 -0.259866913E+00  0.530135416E-01
   C  0.770437650E+01 -0.642211367E-01  0.194776991E+00
   H -0.348413539E+02  0.269947874E+01 -0.387153095E+01
   H  0.339217380E+02  0.188802028E+01  0.201296234E+01
     4
 # iter = 66500  time[fs]=66.50000
   C -0.828855096E+01 -0.262895356E+00  0.536413914E-01
   C  0.779638994E+01 -0.649621839E-01  0.196510238E+00
   H -0.352098083E+02  0.272807039E+01 -0.391271556E+01
   H  0.342790619E+02  0.190778506E+01  0.203375625E+01
     4
 # iter = 67000  time[fs]=67.00000
   C -0.838622710E+01 -0.265925095E+00  0.542691533E-01
   C  0.788846540E+01 -0.657028390E-01  0.198243924E+00
   H -0.355783337E+02  0.275666839E+01 -0.395390924E+01
   H  0.346364608E+02  0.192755436E+01  0.205455504E+01
     4
 # iter = 67500  time[fs]=67.50000
   C -0.848396412E+01 -0.268956103E+00  0.548968334E-01
   C  0.798060144E+01 -0.664431126E-01  0.199978034E+00
   H -0.359469287E+02  0.278527259E+01 -0.399511182E+01
   H  0.349939330E+02  0.194732809E+01  0.207535861E+01
     4
 # iter = 68000  time[fs]=68.00000
   C -0.858176063E+01 -0.271988352E+00  0.555244377E-01
   C  0.807279665E+01 -0.671830150E-01  0.201712556E+00
   H -0.363155920E+02  0.281388289E+01 -0.403632312E+01
   H  0.353514772E+02  0.196710616E+01  0.209616686E+01
     4
 # iter = 68500  time[fs]=68.50000
   C -0.867961526E+01 -0.275021815E+00  0.561519720E-01
   C  0.816504968E+01 -0.679225559E-01  0.203447478E+00
   H -0.366843221E+02  0.284249917E+01 -0.407754297E+01
   H  0.357090918E+02  0.198688849E+01  0.211697971E+01
     4
 # iter = 69000  time[fs]=69.00000
   C -0.877752671E+01 -0.278056467E+00  0.567794413E-01
   C  0.825735922E+01 -0.686617449E-01  0.205182789E+00
   H -0.370531178E+02  0.287112130E+01 -0.411877121E+01
   H  0.360667757E+02  0.200667500E+01  0.213779706E+01
     4
 # iter = 69500  time[fs]=69.50000
   C -0.887549369E+01 -0.281092281E+00  0.574068510E-01
   C  0.834972402E+01 -0.694005911E-01  0.206918476E+00
   H -0.374219778E+02  0.289974918E+01 -0.416000768E+01
   H  0.364245273E+02  0.202646560E+01  0.215861883E+01
     4
 # iter = 70000  time[fs]=70.00000
   C -0.897351500E+01 -0.284129235E+00  0.580342056E-01
   C  0.844214284E+01 -0.701391032E-01  0.208654530E+00
   H -0.377909008E+02  0.292838270E+01 -0.420125221E+01
   H  0.367823454E+02  0.204626023E+01  0.217944494E+01
     4
 # iter = 70500  time[fs]=70.50000
   C -0.907158942E+01 -0.287167305E+00  0.586615097E-01
   C  0.853461450E+01 -0.708772897E-01  0.210390940E+00
   H -0.381598856E+02  0.295702176E+01 -0.424250467E+01
   H  0.371402287E+02  0.206605880E+01  0.220027530E+01
     4
 # iter = 71000  time[fs]=71.00000
   C -0.916971582E+01 -0.290206467E+00  0.592887676E-01
   C  0.862713786E+01 -0.716151589E-01  0.212127696E+00
   H -0.385289310E+02  0.298566624E+01 -0.428376490E+01
   H  0.374981760E+02  0.208586125E+01  0.222110983E+01
     4
 # iter = 71500  time[fs]=71.50000
   C -0.926789308E+01 -0.293246700E+00  0.599159835E-01
   C  0.871971180E+01 -0.723527185E-01  0.213864789E+00
   H -0.388980360E+02  0.301431607E+01 -0.432503275E+01
   H  0.378561861E+02  0.210566749E+01  0.224194846E+01
     4
 # iter = 72000  time[fs]=72.00000
   C -0.936612013E+01 -0.296287983E+00  0.605431610E-01
   C  0.881233526E+01 -0.730899763E-01  0.215602209E+00
   H -0.392671995E+02  0.304297112E+01 -0.436630810E+01
   H  0.382142579E+02  0.212547747E+01  0.226279111E+01
     4
 # iter = 72500  time[fs]=72.50000
   C -0.946439590E+01 -0.299330294E+00  0.611703040E-01
   C  0.890500718E+01 -0.738269395E-01  0.217339947E+00
   H -0.396364202E+02  0.307163133E+01 -0.440759081E+01
   H  0.385723902E+02  0.214529112E+01  0.228363771E+01
     4
 # iter = 73000  time[fs]=73.00000
   C -0.956271940E+01 -0.302373613E+00  0.617974158E-01
   C  0.899772657E+01 -0.745636153E-01  0.219077995E+00
   H -0.400056973E+02  0.310029658E+01 -0.444888073E+01
   H  0.389305819E+02  0.216510836E+01  0.230448819E+01
     4
 # iter = 73500  time[fs]=73.50000
   C -0.966108963E+01 -0.305417921E+00  0.624244997E-01
   C  0.909049244E+01 -0.753000105E-01  0.220816345E+00
   H -0.403750296E+02  0.312896679E+01 -0.449017776E+01
   H  0.392888319E+02  0.218492914E+01  0.232534248E+01
     4
 # iter = 74000  time[fs]=74.00000
   C -0.975950564E+01 -0.308463199E+00  0.630515590E-01
   C  0.918330383E+01 -0.760361317E-01  0.222554989E+00
   H -0.407444162E+02  0.315764188E+01 -0.453148175E+01
   H  0.396471393E+02  0.220475340E+01  0.234620051E+01
     4
 # iter = 74500  time[fs]=74.50000
   C -0.985796652E+01 -0.311509428E+00  0.636785964E-01
   C  0.927615984E+01 -0.767719855E-01  0.224293919E+00
   H -0.411138562E+02  0.318632176E+01 -0.457279259E+01
   H  0.400055029E+02  0.222458107E+01  0.236706221E+01
     4
 # iter = 75000  time[fs]=75.00000
   C -0.995647135E+01 -0.314556591E+00  0.643056149E-01
   C  0.936905957E+01 -0.775075779E-01  0.226033128E+00
   H -0.414833485E+02  0.321500635E+01 -0.461411017E+01
   H  0.403639219E+02  0.224441209E+01  0.238792753E+01
     4
 # iter = 75500  time[fs]=75.50000
   C -0.100550193E+02 -0.317604669E+00  0.649326172E-01
   C  0.946200214E+01 -0.782429150E-01  0.227772609E+00
   H -0.418528923E+02  0.324369557E+01 -0.465543436E+01
   H  0.407223951E+02  0.226424642E+01  0.240879640E+01
     4
 # iter = 76000  time[fs]=76.00000
   C -0.101536094E+02 -0.320653646E+00  0.655596057E-01
   C  0.955498672E+01 -0.789780026E-01  0.229512354E+00
   H -0.422224867E+02  0.327238933E+01 -0.469676505E+01
   H  0.410809218E+02  0.228408398E+01  0.242966875E+01
     4
 # iter = 76500  time[fs]=76.50000
   C -0.102522410E+02 -0.323703506E+00  0.661865828E-01
   C  0.964801249E+01 -0.797128464E-01  0.231252358E+00
   H -0.425921307E+02  0.330108757E+01 -0.473810214E+01
   H  0.414395010E+02  0.230392474E+01  0.245054454E+01
     4
 # iter = 77000  time[fs]=77.00000
   C -0.103509132E+02 -0.326754232E+00  0.668135509E-01
   C  0.974107865E+01 -0.804474517E-01  0.232992614E+00
   H -0.429618237E+02  0.332979021E+01 -0.477944551E+01
   H  0.417981318E+02  0.232376863E+01  0.247142370E+01
     4
 # iter = 77500  time[fs]=77.50000
   C -0.104496252E+02 -0.329805808E+00  0.674405121E-01
   C  0.983418442E+01 -0.811818238E-01  0.234733115E+00
   H -0.433315647E+02  0.335849717E+01 -0.482079506E+01
   H  0.421568133E+02  0.234361560E+01  0.249230618E+01
     4
 # iter = 78000  time[fs]=78.00000
   C -0.105483764E+02 -0.332858220E+00  0.680674685E-01
   C  0.992732907E+01 -0.819159679E-01  0.236473856E+00
   H -0.437013529E+02  0.338720840E+01 -0.486215070E+01
   H  0.425155447E+02  0.236346561E+01  0.251319192E+01
     4
 # iter = 78500  time[fs]=78.50000
   C -0.106471659E+02 -0.335911452E+00  0.686944220E-01
   C  0.100205119E+02 -0.826498889E-01  0.238214831E+00
   H -0.440711876E+02  0.341592380E+01 -0.490351232E+01
   H  0.428743252E+02  0.238331860E+01  0.253408087E+01
     4
 # iter = 79000  time[fs]=79.00000
   C -0.107459930E+02 -0.338965491E+00  0.693213745E-01
   C  0.101137321E+02 -0.833835917E-01  0.239956034E+00
   H -0.444410680E+02  0.344464333E+01 -0.494487982E+01
   H  0.432331539E+02  0.240317452E+01  0.255497298E+01
     4
 # iter = 79500  time[fs]=79.50000
   C -0.108448571E+02 -0.342020322E+00  0.699483278E-01
   C  0.102069890E+02 -0.841170808E-01  0.241697460E+00
   H -0.448109933E+02  0.347336691E+01 -0.498625312E+01
   H  0.435920301E+02  0.242303333E+01  0.257586819E+01
     4
 # iter = 80000  time[fs]=80.00000
   C -0.109437574E+02 -0.345075931E+00  0.705752835E-01
   C  0.103002820E+02 -0.848503608E-01  0.243439104E+00
   H -0.451809629E+02  0.350209448E+01 -0.502763211E+01
   H  0.439509530E+02  0.244289499E+01  0.259676646E+01
