     4
 # iter = 25000  time[fs]=25.00000
   C -0.100997583E+01  0.614872698E-02 -0.285720798E-02
   C  0.958955807E+00 -0.426409120E-01 -0.929315031E-02
   H -0.539630477E+01  0.593014509E+00  0.825630600E-01
   H  0.529425261E+01 -0.420191419E+00 -0.379529052E+00
     4
 # iter = 25500  time[fs]=25.50000
   C -0.105784827E+01  0.350543294E-02 -0.356676441E-02
   C  0.996949193E+00 -0.440165845E-01 -0.938774852E-02
   H -0.573433722E+01  0.620424303E+00  0.804082248E-01
   H  0.560078381E+01 -0.453071211E+00 -0.410385502E+00
     4
 # iter = 26000  time[fs]=26.00000
   C -0.111103469E+01  0.224107281E-03 -0.499452703E-02
   C  0.103834413E+01 -0.466673715E-01 -0.106579187E-01
   H -0.608034461E+01  0.642734024E+00  0.728986044E-01
   H  0.590455418E+01 -0.491578187E+00 -0.446846838E+00
     4
 # iter = 26500  time[fs]=26.50000
   C -0.116696108E+01 -0.152533551E-02 -0.495937108E-02
   C  0.108624261E+01 -0.470850339E-01 -0.960882584E-02
   H -0.641795065E+01  0.675998805E+00  0.761181995E-01
   H  0.622138640E+01 -0.519594102E+00 -0.472797360E+00
     4
 # iter = 27000  time[fs]=27.00000
   C -0.122514447E+01 -0.164816442E-02 -0.335658498E-02
   C  0.114044281E+01 -0.450827921E-01 -0.606544743E-02
   H -0.674612392E+01  0.720986502E+00  0.908583681E-01
   H  0.655183740E+01 -0.536302998E+00 -0.487423291E+00
     4
 # iter = 27500  time[fs]=27.50000
   C -0.128685652E+01 -0.178152316E-02 -0.181456798E-02
   C  0.119799395E+01 -0.432468082E-01 -0.262414177E-02
   H -0.707664054E+01  0.765702968E+00  0.105144265E+00
   H  0.688372047E+01 -0.553663064E+00 -0.502684703E+00
     4
 # iter = 28000  time[fs]=28.00000
   C -0.135292255E+01 -0.308533740E-02 -0.148577378E-02
   C  0.125673390E+01 -0.434053006E-01 -0.112184925E-02
   H -0.741780198E+01  0.801658352E+00  0.110502653E+00
   H  0.720838085E+01 -0.580132544E+00 -0.527041452E+00
     4
 # iter = 28500  time[fs]=28.50000
   C -0.142258520E+01 -0.510313034E-02 -0.190744118E-02
   C  0.131711304E+01 -0.448068751E-01 -0.814577001E-03
   H -0.776603493E+01  0.832258171E+00  0.110353831E+00
   H  0.752908919E+01 -0.612274292E+00 -0.557057770E+00
     4
 # iter = 29000  time[fs]=29.00000
   C -0.149444131E+01 -0.670169290E-02 -0.194107278E-02
   C  0.138069054E+01 -0.456219946E-01  0.120932819E-03
   H -0.811280914E+01  0.865883996E+00  0.113092450E+00
   H  0.785411345E+01 -0.641677023E+00 -0.584323560E+00
     4
 # iter = 29500  time[fs]=29.50000
   C -0.156785967E+01 -0.749280648E-02 -0.119396563E-02
   C  0.144785832E+01 -0.452155138E-01  0.231448135E-02
   H -0.845510888E+01  0.905422146E+00  0.121616184E+00
   H  0.818623721E+01 -0.665430090E+00 -0.605929219E+00
     4
 # iter = 30000  time[fs]=30.00000
   C -0.164317805E+01 -0.803283803E-02 -0.218674906E-03
   C  0.151752008E+01 -0.444653089E-01  0.488363774E-02
   H -0.879689987E+01  0.946794562E+00  0.131856806E+00
   H  0.852128732E+01 -0.687592677E+00 -0.625934841E+00
     4
 # iter = 30500  time[fs]=30.50000
   C -0.172082035E+01 -0.894112620E-02  0.368686227E-03
   C  0.158850000E+01 -0.443519479E-01  0.684395356E-02
   H -0.914262897E+01  0.985455184E+00  0.139276922E+00
   H  0.885463244E+01 -0.712694468E+00 -0.648870919E+00
     4
 # iter = 31000  time[fs]=31.00000
   C -0.180062434E+01 -0.102293725E-01  0.559134243E-03
   C  0.166061382E+01 -0.448858186E-01  0.818173326E-02
   H -0.949227935E+01  0.102133174E+01  0.143812042E+00
   H  0.918612653E+01 -0.740791606E+00 -0.674794305E+00
     4
 # iter = 31500  time[fs]=31.50000
   C -0.188203626E+01 -0.114986197E-01  0.753920658E-03
   C  0.173435170E+01 -0.454219147E-01  0.953915531E-02
   H -0.984281998E+01  0.105737480E+01  0.148419779E+00
   H  0.951865594E+01 -0.768917894E+00 -0.700739432E+00
     4
 # iter = 32000  time[fs]=32.00000
   C -0.196467106E+01 -0.125020340E-01  0.120182778E-02
   C  0.180997586E+01 -0.455597804E-01  0.113142478E-01
   H -0.101923517E+02  0.109541131E+01  0.154933374E+00
   H  0.985398950E+01 -0.795232682E+00 -0.724866208E+00
     4
 # iter = 32500  time[fs]=32.50000
   C -0.204851219E+01 -0.133467850E-01  0.179734918E-02
   C  0.188719580E+01 -0.454662071E-01  0.133381264E-01
   H -0.105415936E+02  0.113465745E+01  0.162574678E+00
   H  0.101912897E+02 -0.820508339E+00 -0.747947505E+00
     4
 # iter = 33000  time[fs]=33.00000
   C -0.213366774E+01 -0.142517790E-01  0.232300075E-02
   C  0.196555446E+01 -0.454874902E-01  0.152626861E-01
   H -0.108920958E+02  0.117350454E+01  0.169740106E+00
   H  0.105288989E+02 -0.846343542E+00 -0.771582451E+00
     4
 # iter = 33500  time[fs]=33.50000
   C -0.222010326E+01 -0.152818702E-01  0.271514549E-02
   C  0.204485212E+01 -0.457240987E-01  0.169858877E-01
   H -0.112442799E+02  0.121147808E+01  0.175959807E+00
   H  0.108662983E+02 -0.873203310E+00 -0.796236469E+00
     4
 # iter = 34000  time[fs]=34.00000
   C -0.230763785E+01 -0.163452468E-01  0.306663904E-02
   C  0.212514935E+01 -0.460263987E-01  0.186559987E-01
   H -0.115974181E+02  0.124925723E+01  0.181917160E+00
   H  0.112041275E+02 -0.900399444E+00 -0.821221727E+00
     4
 # iter = 34500  time[fs]=34.50000
   C -0.239610146E+01 -0.173519934E-01  0.346829575E-02
   C  0.220651216E+01 -0.462482429E-01  0.204179720E-01
   H -0.119508020E+02  0.128750629E+01  0.188280352E+00
   H  0.115430147E+02 -0.927259332E+00 -0.845865946E+00
     4
 # iter = 35000  time[fs]=35.00000
   C -0.248542397E+01 -0.183042641E-01  0.391873900E-02
   C  0.228886677E+01 -0.463911572E-01  0.222692339E-01
   H -0.123044058E+02  0.132621033E+01  0.195038010E+00
   H  0.118829116E+02 -0.953790531E+00 -0.870176981E+00
     4
 # iter = 35500  time[fs]=35.50000
   C -0.257559251E+01 -0.192544879E-01  0.436621377E-02
   C  0.237206565E+01 -0.465374052E-01  0.241265987E-01
   H -0.126585784E+02  0.136498342E+01  0.201807433E+00
   H  0.122234015E+02 -0.980372372E+00 -0.894534438E+00
     4
 # iter = 36000  time[fs]=36.00000
   C -0.266657666E+01 -0.202313613E-01  0.478260950E-02
   C  0.245600517E+01 -0.467315275E-01  0.259447112E-01
   H -0.130134971E+02  0.140361414E+01  0.208380212E+00
   H  0.125642446E+02 -0.100721010E+01 -0.919143815E+00
     4
 # iter = 36500  time[fs]=36.50000
   C -0.275831087E+01 -0.212229361E-01  0.518038523E-02
   C  0.254065200E+01 -0.469532445E-01  0.277431289E-01
   H -0.133690426E+02  0.144219037E+01  0.214846987E+00
   H  0.129055029E+02 -0.103421005E+01 -0.943911676E+00
     4
 # iter = 37000  time[fs]=37.00000
   C -0.285072505E+01 -0.222078666E-01  0.558133269E-02
   C  0.262599258E+01 -0.471674209E-01  0.295563456E-01
   H -0.137250287E+02  0.148086900E+01  0.221367201E+00
   H  0.132473094E+02 -0.106120996E+01 -0.968675963E+00
     4
 # iter = 37500  time[fs]=37.50000
   C -0.294376975E+01 -0.231810842E-01  0.599091166E-02
   C  0.271199148E+01 -0.473651154E-01  0.313927299E-01
   H -0.140813919E+02  0.151968675E+01  0.227979942E+00
   H  0.135896786E+02 -0.108816815E+01 -0.993395198E+00
     4
 # iter = 38000  time[fs]=38.00000
   C -0.303741287E+01 -0.241509794E-01  0.640107525E-02
   C  0.279859549E+01 -0.475590482E-01  0.332390498E-01
   H -0.144381697E+02  0.155858098E+01  0.234624778E+00
   H  0.139325271E+02 -0.111514269E+01 -0.101812763E+01
     4
 # iter = 38500  time[fs]=38.50000
   C -0.313162455E+01 -0.251247650E-01  0.680491338E-02
   C  0.288575663E+01 -0.477601606E-01  0.350839041E-01
   H -0.147953931E+02  0.159749763E+01  0.241249700E+00
   H  0.142757819E+02 -0.114218340E+01 -0.104292324E+01
     4
 # iter = 39000  time[fs]=39.00000
   C -0.322637077E+01 -0.261023347E-01  0.720279975E-02
   C  0.297344166E+01 -0.479677728E-01  0.369275594E-01
   H -0.151530405E+02  0.163643653E+01  0.247856431E+00
   H  0.146194248E+02 -0.116928649E+01 -0.106777839E+01
     4
 # iter = 39500  time[fs]=39.50000
   C -0.332161701E+01 -0.270803415E-01  0.759831766E-02
   C  0.306162524E+01 -0.481760972E-01  0.387754304E-01
   H -0.155110681E+02  0.167542131E+01  0.254470392E+00
   H  0.149634629E+02 -0.119642459E+01 -0.109266584E+01
     4
 # iter = 40000  time[fs]=40.00000
   C -0.341733309E+01 -0.280572388E-01  0.799322352E-02
   C  0.315028157E+01 -0.483822915E-01  0.406300216E-01
   H -0.158694469E+02  0.171446232E+01  0.261103582E+00
   H  0.153078910E+02 -0.122358388E+01 -0.111757193E+01
     4
 # iter = 40500  time[fs]=40.50000
   C -0.351349348E+01 -0.290338819E-01  0.838684834E-02
   C  0.323938321E+01 -0.485874130E-01  0.424899700E-01
   H -0.162281665E+02  0.175355215E+01  0.267750164E+00
   H  0.156526873E+02 -0.125076853E+01 -0.114250093E+01
     4
 # iter = 41000  time[fs]=41.00000
   C -0.361007504E+01 -0.300114901E-01  0.877813874E-02
   C  0.332890415E+01 -0.487931490E-01  0.443533100E-01
   H -0.165872207E+02  0.179268071E+01  0.274401506E+00
   H  0.159978280E+02 -0.127798557E+01 -0.116745999E+01
     4
 # iter = 41500  time[fs]=41.50000
   C -0.370705556E+01 -0.309903719E-01  0.916693420E-02
   C  0.341882160E+01 -0.489997700E-01  0.462195178E-01
   H -0.169465972E+02  0.183184463E+01  0.281055602E+00
   H  0.163432970E+02 -0.130523552E+01 -0.119244974E+01
     4
 # iter = 42000  time[fs]=42.00000
   C -0.380441391E+01 -0.319702150E-01  0.955367925E-02
   C  0.350911544E+01 -0.492065880E-01  0.480890496E-01
   H -0.173062804E+02  0.187104510E+01  0.287714941E+00
   H  0.166890835E+02 -0.133251450E+01 -0.121746637E+01
     4
 # iter = 42500  time[fs]=42.50000
   C -0.390213051E+01 -0.329507857E-01  0.993872593E-02
   C  0.359976688E+01 -0.494130711E-01  0.499622258E-01
   H -0.176662559E+02  0.191028276E+01  0.294381368E+00
   H  0.170351769E+02 -0.135981932E+01 -0.124250683E+01
     4
 # iter = 43000  time[fs]=43.00000
   C -0.400018748E+01 -0.339321407E-01  0.103221237E-01
   C  0.369075802E+01 -0.496191778E-01  0.518388935E-01
   H -0.180265124E+02  0.194955611E+01  0.301054533E+00
   H  0.173815652E+02 -0.138714910E+01 -0.126757030E+01
     4
 # iter = 43500  time[fs]=43.50000
   C -0.409856829E+01 -0.349144350E-01  0.107038129E-01
   C  0.378207204E+01 -0.498250458E-01  0.537187365E-01
   H -0.183870400E+02  0.198886295E+01  0.307733317E+00
   H  0.177282361E+02 -0.141450377E+01 -0.129265680E+01
     4
 # iter = 44000  time[fs]=44.00000
   C -0.419725747E+01 -0.358977453E-01  0.110838025E-01
   C  0.387369339E+01 -0.500307073E-01  0.556015581E-01
   H -0.187478287E+02  0.202820167E+01  0.314417137E+00
   H  0.180751785E+02 -0.144188282E+01 -0.131776589E+01
     4
 # iter = 44500  time[fs]=44.50000
   C -0.429624051E+01 -0.368820672E-01  0.114621740E-01
   C  0.396560764E+01 -0.502360810E-01  0.574872883E-01
   H -0.191088688E+02  0.206757130E+01  0.321105976E+00
   H  0.184223827E+02 -0.146928521E+01 -0.134289659E+01
     4
 # iter = 45000  time[fs]=45.00000
   C -0.439550387E+01 -0.378673840E-01  0.118390137E-01
   C  0.405780136E+01 -0.504410800E-01  0.593758737E-01
   H -0.194701510E+02  0.210697097E+01  0.327799882E+00
   H  0.187698394E+02 -0.149670989E+01 -0.136804794E+01
     4
 # iter = 45500  time[fs]=45.50000
   C -0.449503487E+01 -0.388537001E-01  0.122143800E-01
   C  0.415026193E+01 -0.506456640E-01  0.612672253E-01
   H -0.198316664E+02  0.214639969E+01  0.334498724E+00
   H  0.191175395E+02 -0.152415605E+01 -0.139321919E+01
     4
 # iter = 46000  time[fs]=46.00000
   C -0.459482169E+01 -0.398410306E-01  0.125883146E-01
   C  0.424297752E+01 -0.508498200E-01  0.631612356E-01
   H -0.201934071E+02  0.218585639E+01  0.341202274E+00
   H  0.194654745E+02 -0.155162302E+01 -0.141840973E+01
     4
 # iter = 46500  time[fs]=46.50000
   C -0.469485322E+01 -0.408293843E-01  0.129608599E-01
   C  0.433593703E+01 -0.510535347E-01  0.650578064E-01
   H -0.205553652E+02  0.222534011E+01  0.347910335E+00
   H  0.198136362E+02 -0.157911016E+01 -0.144361896E+01
     4
 # iter = 47000  time[fs]=47.00000
   C -0.479511903E+01 -0.418187613E-01  0.133320624E-01
   C  0.442913008E+01 -0.512567882E-01  0.669568538E-01
   H -0.209175333E+02  0.226484997E+01  0.354622762E+00
   H  0.201620169E+02 -0.160661678E+01 -0.146884627E+01
     4
 # iter = 47500  time[fs]=47.50000
   C -0.489560932E+01 -0.428091573E-01  0.137019686E-01
   C  0.452254687E+01 -0.514595611E-01  0.688583008E-01
   H -0.212799045E+02  0.230438512E+01  0.361339433E+00
   H  0.205106095E+02 -0.163414226E+01 -0.149409107E+01
     4
 # iter = 48000  time[fs]=48.00000
   C -0.499631486E+01 -0.438005674E-01  0.140706214E-01
   C  0.461617822E+01 -0.516618387E-01  0.707620716E-01
   H -0.216424721E+02  0.234394478E+01  0.368060222E+00
   H  0.208594068E+02 -0.166168598E+01 -0.151935279E+01
     4
 # iter = 48500  time[fs]=48.50000
   C -0.509722698E+01 -0.447929866E-01  0.144380607E-01
   C  0.471001546E+01 -0.518636111E-01  0.726680922E-01
   H -0.220052297E+02  0.238352818E+01  0.374784997E+00
   H  0.212084024E+02 -0.168924737E+01 -0.154463093E+01
     4
 # iter = 49000  time[fs]=49.00000
   C -0.519833749E+01 -0.457864081E-01  0.148043246E-01
   C  0.480405043E+01 -0.520648705E-01  0.745762916E-01
   H -0.223681714E+02  0.242313458E+01  0.381513636E+00
   H  0.215575899E+02 -0.171682589E+01 -0.156992497E+01
     4
 # iter = 49500  time[fs]=49.50000
   C -0.529963866E+01 -0.467808240E-01  0.151694500E-01
   C  0.489827542E+01 -0.522656104E-01  0.764866026E-01
   H -0.227312912E+02  0.246276328E+01  0.388246022E+00
   H  0.219069633E+02 -0.174442103E+01 -0.159523444E+01
     4
 # iter = 50000  time[fs]=50.00000
   C -0.540112319E+01 -0.477762247E-01  0.155334723E-01
   C  0.499268314E+01 -0.524658257E-01  0.783989611E-01
   H -0.230945838E+02  0.250241362E+01  0.394982045E+00
   H  0.222565169E+02 -0.177203229E+01 -0.162055889E+01
     4
 # iter = 50500  time[fs]=50.50000
   C -0.550278418E+01 -0.487726003E-01  0.158964252E-01
   C  0.508726673E+01 -0.526655129E-01  0.803133060E-01
   H -0.234580439E+02  0.254208496E+01  0.401721601E+00
   H  0.226062452E+02 -0.179965918E+01 -0.164589786E+01
     4
 # iter = 51000  time[fs]=51.00000
   C -0.560461510E+01 -0.497699399E-01  0.162583412E-01
   C  0.518201966E+01 -0.528646697E-01  0.822295784E-01
   H -0.238216664E+02  0.258177669E+01  0.408464587E+00
   H  0.229561430E+02 -0.182730126E+01 -0.167125096E+01
     4
 # iter = 51500  time[fs]=51.50000
   C -0.570660976E+01 -0.507682324E-01  0.166192512E-01
   C  0.527693577E+01 -0.530632953E-01  0.841477220E-01
   H -0.241854467E+02  0.262148824E+01  0.415210908E+00
   H  0.233062054E+02 -0.185495809E+01 -0.169661777E+01
     4
 # iter = 52000  time[fs]=52.00000
   C -0.580876230E+01 -0.517674658E-01  0.169791849E-01
   C  0.537200920E+01 -0.532613894E-01  0.860676828E-01
   H -0.245493801E+02  0.266121903E+01  0.421960470E+00
   H  0.236564274E+02 -0.188262927E+01 -0.172199792E+01
     4
 # iter = 52500  time[fs]=52.50000
   C -0.591106715E+01 -0.527676281E-01  0.173381707E-01
   C  0.546723440E+01 -0.534589530E-01  0.879894091E-01
   H -0.249134621E+02  0.270096855E+01  0.428713185E+00
   H  0.240068047E+02 -0.191031437E+01 -0.174739103E+01
     4
 # iter = 53000  time[fs]=53.00000
   C -0.601351903E+01 -0.537687068E-01  0.176962361E-01
   C  0.556260612E+01 -0.536559875E-01  0.899128515E-01
   H -0.252776887E+02  0.274073627E+01  0.435468967E+00
   H  0.243573327E+02 -0.193801304E+01 -0.177279675E+01
     4
 # iter = 53500  time[fs]=53.50000
   C -0.611611292E+01 -0.547706893E-01  0.180534072E-01
   C  0.565811933E+01 -0.538524952E-01  0.918379622E-01
   H -0.256420558E+02  0.278052170E+01  0.442227735E+00
   H  0.247080073E+02 -0.196572490E+01 -0.179821475E+01
     4
 # iter = 54000  time[fs]=54.00000
   C -0.621884403E+01 -0.557735627E-01  0.184097091E-01
   C  0.575376927E+01 -0.540484789E-01  0.937646957E-01
   H -0.260065596E+02  0.282032438E+01  0.448989409E+00
   H  0.250588244E+02 -0.199344959E+01 -0.182364470E+01
     4
 # iter = 54500  time[fs]=54.50000
   C -0.632170783E+01 -0.567773143E-01  0.187651661E-01
   C  0.584955142E+01 -0.542439417E-01  0.956930079E-01
   H -0.263711962E+02  0.286014384E+01  0.455753914E+00
   H  0.254097803E+02 -0.202118679E+01 -0.184908628E+01
     4
 # iter = 55000  time[fs]=55.00000
   C -0.642469998E+01 -0.577819310E-01  0.191198013E-01
   C  0.594546145E+01 -0.544388875E-01  0.976228569E-01
   H -0.267359623E+02  0.289997965E+01  0.462521178E+00
   H  0.257608711E+02 -0.204893616E+01 -0.187453921E+01
     4
 # iter = 55500  time[fs]=55.50000
   C -0.652781636E+01 -0.587873999E-01  0.194736371E-01
   C  0.604149525E+01 -0.546333202E-01  0.995542020E-01
   H -0.271008543E+02  0.293983140E+01  0.469291131E+00
   H  0.261120934E+02 -0.207669739E+01 -0.190000318E+01
     4
 # iter = 56000  time[fs]=56.00000
   C -0.663105302E+01 -0.597937080E-01  0.198266949E-01
   C  0.613764890E+01 -0.548272443E-01  0.101487004E+00
   H -0.274658690E+02  0.297969868E+01  0.476063706E+00
   H  0.264634437E+02 -0.210447019E+01 -0.192547792E+01
     4
 # iter = 56500  time[fs]=56.50000
   C -0.673440622E+01 -0.608008424E-01  0.201789953E-01
   C  0.623391864E+01 -0.550206645E-01  0.103421226E+00
   H -0.278310032E+02  0.301958110E+01  0.482838837E+00
   H  0.268149187E+02 -0.213225426E+01 -0.195096317E+01
     4
 # iter = 57000  time[fs]=57.00000
   C -0.683787235E+01 -0.618087904E-01  0.205305582E-01
   C  0.633030091E+01 -0.552135855E-01  0.105356832E+00
   H -0.281962538E+02  0.305947829E+01  0.489616463E+00
   H  0.271665153E+02 -0.216004932E+01 -0.197645867E+01
     4
 # iter = 57500  time[fs]=57.50000
   C -0.694144801E+01 -0.628175391E-01  0.208814027E-01
   C  0.642679227E+01 -0.554060125E-01  0.107293786E+00
   H -0.285616181E+02  0.309938989E+01  0.496396523E+00
   H  0.275182304E+02 -0.218785512E+01 -0.200196416E+01
     4
 # iter = 58000  time[fs]=58.00000
   C -0.704512989E+01 -0.638270761E-01  0.212315471E-01
   C  0.652338947E+01 -0.555979507E-01  0.109232056E+00
   H -0.289270931E+02  0.313931555E+01  0.503178959E+00
   H  0.278700610E+02 -0.221567138E+01 -0.202747942E+01
     4
 # iter = 58500  time[fs]=58.50000
   C -0.714891487E+01 -0.648373889E-01  0.215810094E-01
   C  0.662008937E+01 -0.557894055E-01  0.111171608E+00
   H -0.292926761E+02  0.317925494E+01  0.509963716E+00
   H  0.282220044E+02 -0.224349787E+01 -0.205300420E+01
     4
 # iter = 59000  time[fs]=59.00000
   C -0.725279994E+01 -0.658484650E-01  0.219298064E-01
   C  0.671688898E+01 -0.559803824E-01  0.113112413E+00
   H -0.296583645E+02  0.321920774E+01  0.516750739E+00
   H  0.285740578E+02 -0.227133433E+01 -0.207853829E+01
     4
 # iter = 59500  time[fs]=59.50000
   C -0.735678223E+01 -0.668602925E-01  0.222779547E-01
   C  0.681378543E+01 -0.561708868E-01  0.115054439E+00
   H -0.300241559E+02  0.325917362E+01  0.523539977E+00
   H  0.289262186E+02 -0.229918054E+01 -0.210408147E+01
     4
 # iter = 60000  time[fs]=60.00000
   C -0.746085896E+01 -0.678728591E-01  0.226254702E-01
   C  0.691077596E+01 -0.563609245E-01  0.116997658E+00
   H -0.303900477E+02  0.329915231E+01  0.530331379E+00
   H  0.292784842E+02 -0.232703628E+01 -0.212963354E+01
     4
 # iter = 60500  time[fs]=60.50000
   C -0.756502751E+01 -0.688861532E-01  0.229723682E-01
   C  0.700785795E+01 -0.565505011E-01  0.118942042E+00
   H -0.307560377E+02  0.333914349E+01  0.537124897E+00
   H  0.296308523E+02 -0.235490132E+01 -0.215519429E+01
     4
 # iter = 61000  time[fs]=61.00000
   C -0.766928533E+01 -0.699001630E-01  0.233186634E-01
   C  0.710502887E+01 -0.567396222E-01  0.120887564E+00
   H -0.311221235E+02  0.337914690E+01  0.543920483E+00
   H  0.299833204E+02 -0.238277546E+01 -0.218076353E+01
     4
 # iter = 61500  time[fs]=61.50000
   C -0.777362999E+01 -0.709148772E-01  0.236643703E-01
   C  0.720228628E+01 -0.569282936E-01  0.122834197E+00
   H -0.314883030E+02  0.341916226E+01  0.550718092E+00
   H  0.303358862E+02 -0.241065850E+01 -0.220634107E+01
     4
 # iter = 62000  time[fs]=62.00000
   C -0.787805914E+01 -0.719302843E-01  0.240095025E-01
   C  0.729962784E+01 -0.571165210E-01  0.124781917E+00
   H -0.318545740E+02  0.345918931E+01  0.557517681E+00
   H  0.306885476E+02 -0.243855024E+01 -0.223192674E+01
     4
 # iter = 62500  time[fs]=62.50000
   C -0.798257053E+01 -0.729463734E-01  0.243540735E-01
   C  0.739705133E+01 -0.573043102E-01  0.126730699E+00
   H -0.322209346E+02  0.349922779E+01  0.564319206E+00
   H  0.310413024E+02 -0.246645049E+01 -0.225752035E+01
     4
 # iter = 63000  time[fs]=63.00000
   C -0.808716200E+01 -0.739631334E-01  0.246980960E-01
   C  0.749455458E+01 -0.574916667E-01  0.128680520E+00
   H -0.325873827E+02  0.353927747E+01  0.571122626E+00
   H  0.313941486E+02 -0.249435907E+01 -0.228312174E+01
     4
 # iter = 63500  time[fs]=63.50000
   C -0.819183148E+01 -0.749805538E-01  0.250415826E-01
   C  0.759213552E+01 -0.576785962E-01  0.130631357E+00
   H -0.329539164E+02  0.357933809E+01  0.577927902E+00
   H  0.317470842E+02 -0.252227580E+01 -0.230873074E+01
     4
 # iter = 64000  time[fs]=64.00000
   C -0.829657695E+01 -0.759986239E-01  0.253845452E-01
   C  0.768979215E+01 -0.578651044E-01  0.132583187E+00
   H -0.333205339E+02  0.361940944E+01  0.584734996E+00
   H  0.321001072E+02 -0.255020051E+01 -0.233434719E+01
     4
 # iter = 64500  time[fs]=64.50000
   C -0.840139650E+01 -0.770173335E-01  0.257269956E-01
   C  0.778752256E+01 -0.580511969E-01  0.134535989E+00
   H -0.336872334E+02  0.365949129E+01  0.591543868E+00
   H  0.324532157E+02 -0.257813304E+01 -0.235997094E+01
     4
 # iter = 65000  time[fs]=65.00000
   C -0.850628826E+01 -0.780366724E-01  0.260689450E-01
   C  0.788532489E+01 -0.582368792E-01  0.136489743E+00
   H -0.340540132E+02  0.369958342E+01  0.598354484E+00
   H  0.328064081E+02 -0.260607322E+01 -0.238560185E+01
     4
 # iter = 65500  time[fs]=65.50000
   C -0.861125045E+01 -0.790566306E-01  0.264104043E-01
   C  0.798319737E+01 -0.584221569E-01  0.138444428E+00
   H -0.344208715E+02  0.373968562E+01  0.605166808E+00
   H  0.331596824E+02 -0.263402090E+01 -0.241123975E+01
     4
 # iter = 66000  time[fs]=66.00000
   C -0.871628135E+01 -0.800771985E-01  0.267513842E-01
   C  0.808113826E+01 -0.586070352E-01  0.140400025E+00
   H -0.347878068E+02  0.377979769E+01  0.611980806E+00
   H  0.335130371E+02 -0.266197592E+01 -0.243688453E+01
     4
 # iter = 66500  time[fs]=66.50000
   C -0.882137928E+01 -0.810983663E-01  0.270918947E-01
   C  0.817914592E+01 -0.587915198E-01  0.142356515E+00
   H -0.351548174E+02  0.381991944E+01  0.618796445E+00
   H  0.338664704E+02 -0.268993814E+01 -0.246253603E+01
     4
 # iter = 67000  time[fs]=67.00000
   C -0.892654264E+01 -0.821201248E-01  0.274319460E-01
   C  0.827721875E+01 -0.589756157E-01  0.144313881E+00
   H -0.355219019E+02  0.386005067E+01  0.625613692E+00
   H  0.342199808E+02 -0.271790742E+01 -0.248819412E+01
     4
 # iter = 67500  time[fs]=67.50000
   C -0.903176990E+01 -0.831424647E-01  0.277715475E-01
   C  0.837535519E+01 -0.591593285E-01  0.146272103E+00
   H -0.358890588E+02  0.390019119E+01  0.632432517E+00
   H  0.345735667E+02 -0.274588362E+01 -0.251385869E+01
     4
 # iter = 68000  time[fs]=68.00000
   C -0.913705954E+01 -0.841653770E-01  0.281107087E-01
   C  0.847355377E+01 -0.593426631E-01  0.148231166E+00
   H -0.362562865E+02  0.394034083E+01  0.639252889E+00
   H  0.349272266E+02 -0.277386661E+01 -0.253952959E+01
     4
 # iter = 68500  time[fs]=68.50000
   C -0.924241013E+01 -0.851888528E-01  0.284494385E-01
   C  0.857181304E+01 -0.595256248E-01  0.150191052E+00
   H -0.366235838E+02  0.398049942E+01  0.646074779E+00
   H  0.352809591E+02 -0.280185624E+01 -0.256520672E+01
     4
 # iter = 69000  time[fs]=69.00000
   C -0.934782026E+01 -0.862128835E-01  0.287877457E-01
   C  0.867013161E+01 -0.597082186E-01  0.152151745E+00
   H -0.369909492E+02  0.402066677E+01  0.652898158E+00
   H  0.356347627E+02 -0.282985241E+01 -0.259088995E+01
     4
 # iter = 69500  time[fs]=69.50000
   C -0.945328860E+01 -0.872374605E-01  0.291256389E-01
   C  0.876850814E+01 -0.598904495E-01  0.154113229E+00
   H -0.373583815E+02  0.406084273E+01  0.659722998E+00
   H  0.359886361E+02 -0.285785498E+01 -0.261657917E+01
     4
 # iter = 70000  time[fs]=70.00000
   C -0.955881383E+01 -0.882625755E-01  0.294631263E-01
   C  0.886694132E+01 -0.600723225E-01  0.156075490E+00
   H -0.377258794E+02  0.410102713E+01  0.666549272E+00
   H  0.363425779E+02 -0.288586383E+01 -0.264227427E+01
     4
 # iter = 70500  time[fs]=70.50000
   C -0.966439470E+01 -0.892882204E-01  0.298002159E-01
   C  0.896542991E+01 -0.602538424E-01  0.158038511E+00
   H -0.380934416E+02  0.414121983E+01  0.673376955E+00
   H  0.366965869E+02 -0.291387885E+01 -0.266797513E+01
     4
 # iter = 71000  time[fs]=71.00000
   C -0.977002998E+01 -0.903143871E-01  0.301369156E-01
   C  0.906397267E+01 -0.604350139E-01  0.160002280E+00
   H -0.384610668E+02  0.418142066E+01  0.680206020E+00
   H  0.370506618E+02 -0.294189993E+01 -0.269368167E+01
     4
 # iter = 71500  time[fs]=71.50000
   C -0.987571848E+01 -0.913410678E-01  0.304732328E-01
   C  0.916256844E+01 -0.606158419E-01  0.161966781E+00
   H -0.388287541E+02  0.422162948E+01  0.687036443E+00
   H  0.374048013E+02 -0.296992695E+01 -0.271939376E+01
     4
 # iter = 72000  time[fs]=72.00000
   C -0.998145908E+01 -0.923682547E-01  0.308091749E-01
   C  0.926121607E+01 -0.607963308E-01  0.163932002E+00
   H -0.391965021E+02  0.426184615E+01  0.693868199E+00
   H  0.377590042E+02 -0.299795981E+01 -0.274511132E+01
     4
 # iter = 72500  time[fs]=72.50000
   C -0.100872506E+02 -0.933959404E-01  0.311447492E-01
   C  0.935991445E+01 -0.609764854E-01  0.165897928E+00
   H -0.395643098E+02  0.430207052E+01  0.700701265E+00
   H  0.381132695E+02 -0.302599841E+01 -0.277083424E+01
     4
 # iter = 73000  time[fs]=73.00000
   C -0.101930921E+02 -0.944241175E-01  0.314799625E-01
   C  0.945866253E+01 -0.611563100E-01  0.167864548E+00
   H -0.399321761E+02  0.434230246E+01  0.707535617E+00
   H  0.384675959E+02 -0.305404264E+01 -0.279656244E+01
     4
 # iter = 73500  time[fs]=73.50000
   C -0.102989824E+02 -0.954527786E-01  0.318148216E-01
   C  0.955745925E+01 -0.613358092E-01  0.169831848E+00
   H -0.403001000E+02  0.438254184E+01  0.714371234E+00
   H  0.388219824E+02 -0.308209240E+01 -0.282229581E+01
     4
 # iter = 74000  time[fs]=74.00000
   C -0.104049206E+02 -0.964819167E-01  0.321493330E-01
   C  0.965630362E+01 -0.615149872E-01  0.171799816E+00
   H -0.406680804E+02  0.442278853E+01  0.721208094E+00
   H  0.391764279E+02 -0.311014760E+01 -0.284803428E+01
     4
 # iter = 74500  time[fs]=74.50000
   C -0.105109057E+02 -0.975115249E-01  0.324835032E-01
   C  0.975519465E+01 -0.616938484E-01  0.173768441E+00
   H -0.410361163E+02  0.446304240E+01  0.728046175E+00
   H  0.395309314E+02 -0.313820814E+01 -0.287377775E+01
     4
 # iter = 75000  time[fs]=75.00000
   C -0.106169366E+02 -0.985415962E-01  0.328173384E-01
   C  0.985413141E+01 -0.618723969E-01  0.175737710E+00
   H -0.414042068E+02  0.450330334E+01  0.734885458E+00
   H  0.398854918E+02 -0.316627394E+01 -0.289952613E+01
     4
 # iter = 75500  time[fs]=75.50000
   C -0.107230126E+02 -0.995721241E-01  0.331508445E-01
   C  0.995311297E+01 -0.620506370E-01  0.177707613E+00
   H -0.417723509E+02  0.454357121E+01  0.741725920E+00
   H  0.402401082E+02 -0.319434490E+01 -0.292527935E+01
     4
 # iter = 76000  time[fs]=76.00000
   C -0.108291327E+02 -0.100603102E+00  0.334840277E-01
   C  0.100521384E+02 -0.622285727E-01  0.179678138E+00
   H -0.421405477E+02  0.458384591E+01  0.748567544E+00
   H  0.405947796E+02 -0.322242094E+01 -0.295103733E+01
     4
 # iter = 76500  time[fs]=76.50000
   C -0.109352960E+02 -0.101634523E+00  0.338168934E-01
   C  0.101512070E+02 -0.624062080E-01  0.181649276E+00
   H -0.425087963E+02  0.462412731E+01  0.755410310E+00
   H  0.409495051E+02 -0.325050197E+01 -0.297679998E+01
     4
 # iter = 77000  time[fs]=77.00000
   C -0.110415017E+02 -0.102666382E+00  0.341494475E-01
   C  0.102503177E+02 -0.625835468E-01  0.183621014E+00
   H -0.428770958E+02  0.466441532E+01  0.762254199E+00
   H  0.413042837E+02 -0.327858792E+01 -0.300256723E+01
     4
 # iter = 77500  time[fs]=77.50000
   C -0.111477489E+02 -0.103698672E+00  0.344816952E-01
   C  0.103494698E+02 -0.627605931E-01  0.185593344E+00
   H -0.432454454E+02  0.470470982E+01  0.769099192E+00
   H  0.416591146E+02 -0.330667869E+01 -0.302833900E+01
     4
 # iter = 78000  time[fs]=78.00000
   C -0.112540370E+02 -0.104731386E+00  0.348136419E-01
   C  0.104486625E+02 -0.629373506E-01  0.187566255E+00
   H -0.436138442E+02  0.474501070E+01  0.775945273E+00
   H  0.420139968E+02 -0.333477421E+01 -0.305411522E+01
     4
 # iter = 78500  time[fs]=78.50000
   C -0.113603650E+02 -0.105764520E+00  0.351452928E-01
   C  0.105478950E+02 -0.631138231E-01  0.189539738E+00
   H -0.439822914E+02  0.478531787E+01  0.782792424E+00
   H  0.423689296E+02 -0.336287441E+01 -0.307989583E+01
     4
 # iter = 79000  time[fs]=79.00000
   C -0.114667323E+02 -0.106798067E+00  0.354766529E-01
   C  0.106471666E+02 -0.632900144E-01  0.191513783E+00
   H -0.443507863E+02  0.482563122E+01  0.789640627E+00
   H  0.427239122E+02 -0.339097921E+01 -0.310568074E+01
     4
 # iter = 79500  time[fs]=79.50000
   C -0.115731381E+02 -0.107832022E+00  0.358077271E-01
   C  0.107464766E+02 -0.634659279E-01  0.193488380E+00
   H -0.447193281E+02  0.486595066E+01  0.796489867E+00
   H  0.430789436E+02 -0.341908853E+01 -0.313146989E+01
     4
 # iter = 80000  time[fs]=80.00000
   C -0.116795818E+02 -0.108866378E+00  0.361385203E-01
   C  0.108458242E+02 -0.636415673E-01  0.195463522E+00
   H -0.450879159E+02  0.490627609E+01  0.803340127E+00
   H  0.434340232E+02 -0.344720232E+01 -0.315726322E+01
