     4
 # iter = 25000  time[fs]=25.00000
   C -0.952918896E+00  0.301140516E-01 -0.112377654E-01
   C  0.102381272E+01 -0.364090935E-01 -0.107245654E-01
   H -0.519180013E+01  0.370875491E-03 -0.481495248E+00
   H  0.532834928E+01  0.483651095E+00  0.646869332E+00
     4
 # iter = 25500  time[fs]=25.50000
   C -0.998630287E+00  0.293140036E-01 -0.102693122E-01
   C  0.106826914E+01 -0.401802928E-01 -0.139487836E-01
   H -0.553202255E+01 -0.977411741E-02 -0.518516861E+00
   H  0.563313466E+01  0.506278211E+00  0.679176802E+00
     4
 # iter = 26000  time[fs]=26.00000
   C -0.104856223E+01  0.276726425E-01 -0.102365770E-01
   C  0.111500213E+01 -0.450814972E-01 -0.181952695E-01
   H -0.588036367E+01 -0.253411237E-01 -0.561212696E+00
   H  0.593513986E+01  0.523756526E+00  0.706427689E+00
     4
 # iter = 26500  time[fs]=26.50000
   C -0.109960315E+01  0.280107424E-01 -0.830522495E-02
   C  0.116670850E+01 -0.481185848E-01 -0.204852068E-01
   H -0.622043155E+01 -0.302548675E-01 -0.593476984E+00
   H  0.625019636E+01  0.552156140E+00  0.744682539E+00
     4
 # iter = 27000  time[fs]=27.00000
   C -0.115135048E+01  0.304594018E-01 -0.433242263E-02
   C  0.122327136E+01 -0.491333967E-01 -0.206735069E-01
   H -0.655117271E+01 -0.237183689E-01 -0.614488258E+00
   H  0.657886461E+01  0.592250712E+00  0.794706548E+00
     4
 # iter = 27500  time[fs]=27.50000
   C -0.120566776E+01  0.329046683E-01 -0.422043743E-03
   C  0.128222945E+01 -0.503352449E-01 -0.209805862E-01
   H -0.688433488E+01 -0.176889025E-01 -0.636183943E+00
   H  0.690895758E+01  0.632044669E+00  0.844496602E+00
     4
 # iter = 28000  time[fs]=28.00000
   C -0.126382419E+01  0.338491776E-01  0.193709780E-02
   C  0.134179198E+01 -0.532854708E-01 -0.229772134E-01
   H -0.722819766E+01 -0.206264434E-01 -0.667007025E+00
   H  0.723182004E+01  0.663047564E+00  0.885555790E+00
     4
 # iter = 28500  time[fs]=28.50000
   C -0.132501833E+01  0.338882336E-01  0.334750420E-02
   C  0.140239307E+01 -0.573419215E-01 -0.260292414E-01
   H -0.757917917E+01 -0.291100438E-01 -0.703521448E+00
   H  0.755072358E+01  0.688669167E+00  0.921288458E+00
     4
 # iter = 29000  time[fs]=29.00000
   C -0.138759352E+01  0.344927244E-01  0.528613138E-02
   C  0.146540820E+01 -0.609413148E-01 -0.285801804E-01
   H -0.792874716E+01 -0.347499172E-01 -0.737324093E+00
   H  0.787393757E+01  0.717297126E+00  0.960077621E+00
     4
 # iter = 29500  time[fs]=29.50000
   C -0.145087761E+01  0.361673024E-01  0.826277498E-02
   C  0.153121211E+01 -0.635399417E-01 -0.300920789E-01
   H -0.827388049E+01 -0.346481327E-01 -0.765505546E+00
   H  0.820424637E+01  0.751821168E+00  0.100480890E+01
     4
 # iter = 30000  time[fs]=30.00000
   C -0.151543970E+01  0.381919657E-01  0.115618048E-01
   C  0.159890496E+01 -0.658858425E-01 -0.313178618E-01
   H -0.861853433E+01 -0.328660082E-01 -0.792117271E+00
   H  0.853747675E+01  0.788163389E+00  0.105140067E+01
     4
 # iter = 30500  time[fs]=30.50000
   C -0.158194621E+01  0.397646341E-01  0.143848525E-01
   C  0.166751478E+01 -0.688146467E-01 -0.330973148E-01
   H -0.896714574E+01 -0.339338713E-01 -0.821680965E+00
   H  0.886899712E+01  0.821777379E+00  0.109530325E+01
     4
 # iter = 31000  time[fs]=31.00000
   C -0.165029034E+01  0.408702950E-01  0.167200530E-01
   C  0.173691183E+01 -0.723335569E-01 -0.354411903E-01
   H -0.931969328E+01 -0.379139211E-01 -0.854251094E+00
   H  0.919866134E+01  0.852592100E+00  0.113644268E+01
     4
 # iter = 31500  time[fs]=31.50000
   C -0.171984578E+01  0.420258165E-01  0.190869501E-01
   C  0.180753836E+01 -0.758901598E-01 -0.378001161E-01
   H -0.967314494E+01 -0.418495259E-01 -0.886864074E+00
   H  0.952935585E+01  0.883560451E+00  0.117776929E+01
     4
 # iter = 32000  time[fs]=32.00000
   C -0.179019456E+01  0.435506718E-01  0.218073018E-01
   C  0.187963883E+01 -0.791408428E-01 -0.398330904E-01
   H -0.100256001E+02 -0.439074818E-01 -0.917680487E+00
   H  0.986284959E+01  0.916511121E+00  0.122110948E+01
     4
 # iter = 32500  time[fs]=32.50000
   C -0.186138739E+01  0.453053745E-01  0.247435817E-01
   C  0.195298324E+01 -0.822263422E-01 -0.416830973E-01
   H -0.103777743E+02 -0.448635178E-01 -0.947470523E+00
   H  0.101983051E+02  0.950660921E+00  0.126567797E+01
     4
 # iter = 33000  time[fs]=33.00000
   C -0.193362852E+01  0.470055280E-01  0.276130789E-01
   C  0.202719700E+01 -0.854407133E-01 -0.436461336E-01
   H -0.107312138E+02 -0.463181162E-01 -0.977829697E+00
   H  0.105340645E+02  0.984401343E+00  0.130986434E+01
     4
 # iter = 33500  time[fs]=33.50000
   C -0.200693033E+01  0.485663445E-01  0.303324571E-01
   C  0.210212308E+01 -0.888682010E-01 -0.458081279E-01
   H -0.110863377E+02 -0.487393024E-01 -0.100922153E+01
   H  0.108696091E+02  0.101725842E+01  0.135319293E+01
     4
 # iter = 34000  time[fs]=34.00000
   C -0.208110907E+01  0.501060520E-01  0.330211976E-01
   C  0.217782485E+01 -0.923795906E-01 -0.480413308E-01
   H -0.114424175E+02 -0.514431554E-01 -0.104095802E+01
   H  0.112055784E+02  0.104991217E+01  0.139634219E+01
     4
 # iter = 34500  time[fs]=34.50000
   C -0.215598959E+01  0.517403948E-01  0.357961306E-01
   C  0.225436874E+01 -0.958487153E-01 -0.502208542E-01
   H -0.117987437E+02 -0.537610279E-01 -0.107236677E+01
   H  0.115426005E+02  0.108302773E+01  0.143997586E+01
     4
 # iter = 35000  time[fs]=35.00000
   C -0.223152151E+01  0.534657739E-01  0.386546014E-01
   C  0.233170052E+01 -0.992755575E-01 -0.523478005E-01
   H -0.121552896E+02 -0.557032436E-01 -0.110345471E+01
   H  0.118806273E+02  0.111659070E+01  0.148407823E+01
     4
 # iter = 35500  time[fs]=35.50000
   C -0.230772445E+01  0.552134339E-01  0.415286783E-01
   C  0.240970185E+01 -0.102729104E+00 -0.544921395E-01
   H -0.125124026E+02 -0.576511593E-01 -0.113460010E+01
   H  0.122192420E+02  0.115021546E+01  0.152826249E+01
     4
 # iter = 36000  time[fs]=36.00000
   C -0.238459161E+01  0.569453989E-01  0.443811055E-01
   C  0.248829089E+01 -0.106246208E+00 -0.566915911E-01
   H -0.128702589E+02 -0.598120890E-01 -0.116600740E+01
   H  0.125582048E+02  0.118369093E+01  0.157231648E+01
     4
 # iter = 36500  time[fs]=36.50000
   C -0.246206735E+01  0.586763978E-01  0.472272431E-01
   C  0.256744494E+01 -0.109808452E+00 -0.589285041E-01
   H -0.132287385E+02 -0.620946690E-01 -0.119758263E+01
   H  0.128975778E+02  0.121710543E+01  0.161632750E+01
     4
 # iter = 37000  time[fs]=37.00000
   C -0.254008731E+01  0.604333640E-01  0.500945794E-01
   C  0.264715744E+01 -0.113384801E+00 -0.611725221E-01
   H -0.135876550E+02 -0.643388591E-01 -0.122916332E+01
   H  0.132374938E+02  0.125061623E+01  0.166045191E+01
     4
 # iter = 37500  time[fs]=37.50000
   C -0.261861130E+01  0.622221591E-01  0.529894647E-01
   C  0.272740253E+01 -0.116966646E+00 -0.634156386E-01
   H -0.139469442E+02 -0.665049071E-01 -0.126070749E+01
   H  0.135779675E+02  0.128426040E+01  0.170472592E+01
     4
 # iter = 38000  time[fs]=38.00000
   C -0.269761937E+01  0.640312271E-01  0.559007750E-01
   C  0.280813861E+01 -0.120563927E+00 -0.656683330E-01
   H -0.143066433E+02 -0.686525294E-01 -0.129227281E+01
   H  0.139189156E+02  0.131797559E+01  0.174908636E+01
     4
 # iter = 38500  time[fs]=38.50000
   C -0.277709255E+01  0.658505678E-01  0.588188932E-01
   C  0.288932809E+01 -0.124185123E+00 -0.679395645E-01
   H -0.146667826E+02 -0.708330732E-01 -0.132390868E+01
   H  0.142602649E+02  0.135170798E+01  0.179347870E+01
     4
 # iter = 39000  time[fs]=39.00000
   C -0.285700459E+01  0.676796981E-01  0.617436756E-01
   C  0.297094554E+01 -0.127828843E+00 -0.702283730E-01
   H -0.150273405E+02 -0.730442480E-01 -0.135561106E+01
   H  0.146019975E+02  0.138545765E+01  0.183790233E+01
     4
 # iter = 39500  time[fs]=39.50000
   C -0.293732710E+01  0.695223638E-01  0.646791705E-01
   C  0.305297189E+01 -0.131489385E+00 -0.725294421E-01
   H -0.153882729E+02 -0.752601241E-01 -0.138735235E+01
   H  0.149441204E+02  0.141924849E+01  0.188238049E+01
     4
 # iter = 40000  time[fs]=40.00000
   C -0.301803586E+01  0.713800053E-01  0.676270877E-01
   C  0.313538741E+01 -0.135163604E+00 -0.748399771E-01
   H -0.157495505E+02 -0.774682164E-01 -0.141911852E+01
   H  0.152866285E+02  0.145309105E+01  0.192692313E+01
     4
 # iter = 40500  time[fs]=40.50000
   C -0.309911140E+01  0.732509769E-01  0.705860222E-01
   C  0.321817066E+01 -0.138851728E+00 -0.771605206E-01
   H -0.161111628E+02 -0.796738891E-01 -0.145091350E+01
   H  0.156295000E+02  0.148697813E+01  0.197152251E+01
     4
 # iter = 41000  time[fs]=41.00000
   C -0.318053626E+01  0.751331869E-01  0.735540983E-01
   C  0.330130121E+01 -0.142554564E+00 -0.794921626E-01
   H -0.164731034E+02 -0.818853239E-01 -0.148274412E+01
   H  0.159727112E+02  0.152089983E+01  0.201616819E+01
     4
 # iter = 41500  time[fs]=41.50000
   C -0.326229314E+01  0.770257497E-01  0.765306237E-01
   C  0.338476116E+01 -0.146271744E+00 -0.818347939E-01
   H -0.168353601E+02 -0.841041138E-01 -0.151461071E+01
   H  0.163162461E+02  0.155485294E+01  0.206085649E+01
     4
 # iter = 42000  time[fs]=42.00000
   C -0.334436520E+01  0.789286084E-01  0.795157154E-01
   C  0.346853470E+01 -0.150002118E+00 -0.841874976E-01
   H -0.171979170E+02 -0.863273819E-01 -0.154650921E+01
   H  0.166600939E+02  0.158883883E+01  0.210558830E+01
     4
 # iter = 42500  time[fs]=42.50000
   C -0.342673685E+01  0.808416272E-01  0.825093942E-01
   C  0.355260701E+01 -0.153744698E+00 -0.865495013E-01
   H -0.175607599E+02 -0.885529177E-01 -0.157843629E+01
   H  0.170042440E+02  0.162285828E+01  0.215036398E+01
     4
 # iter = 43000  time[fs]=43.00000
   C -0.350939389E+01  0.827643153E-01  0.855113106E-01
   C  0.363696388E+01 -0.157498948E+00 -0.889204622E-01
   H -0.179238772E+02 -0.907807243E-01 -0.161039092E+01
   H  0.173486845E+02  0.165690993E+01  0.219518177E+01
     4
 # iter = 43500  time[fs]=43.50000
   C -0.359232321E+01  0.846960757E-01  0.885209949E-01
   C  0.372159192E+01 -0.161264511E+00 -0.913002015E-01
   H -0.182872591E+02 -0.930115929E-01 -0.164237290E+01
   H  0.176934033E+02  0.169099174E+01  0.224003922E+01
     4
 # iter = 44000  time[fs]=44.00000
   C -0.367551249E+01  0.866364316E-01  0.915380861E-01
   C  0.380647868E+01 -0.165040968E+00 -0.936884616E-01
   H -0.186508957E+02 -0.952457964E-01 -0.167438157E+01
   H  0.180383893E+02  0.172510221E+01  0.228493450E+01
     4
 # iter = 44500  time[fs]=44.50000
   C -0.375895007E+01  0.885850304E-01  0.945623360E-01
   C  0.389161260E+01 -0.168827824E+00 -0.960848984E-01
   H -0.190147772E+02 -0.974830575E-01 -0.170641578E+01
   H  0.183836327E+02  0.175924049E+01  0.232986640E+01
     4
 # iter = 45000  time[fs]=45.00000
   C -0.384262503E+01  0.905415527E-01  0.975935203E-01
   C  0.397698287E+01 -0.172624605E+00 -0.984891738E-01
   H -0.193788942E+02 -0.997230508E-01 -0.173847438E+01
   H  0.187291243E+02  0.179340582E+01  0.237483386E+01
     4
 # iter = 45500  time[fs]=45.50000
   C -0.392652716E+01  0.925056683E-01  0.100631395E+00
   C  0.406257932E+01 -0.176430896E+00 -0.100901000E+00
   H -0.197432381E+02 -0.101965643E+00 -0.177055646E+01
   H  0.190748553E+02  0.182759731E+01  0.241983566E+01
     4
 # iter = 46000  time[fs]=46.00000
   C -0.401064686E+01  0.944770487E-01  0.103675710E+00
   C  0.414839236E+01 -0.180246326E+00 -0.103320121E+00
   H -0.201078008E+02 -0.104210811E+00 -0.180266124E+01
   H  0.194208171E+02  0.186181401E+01  0.246487058E+01
     4
 # iter = 46500  time[fs]=46.50000
   C -0.409497513E+01  0.964553881E-01  0.106726231E+00
   C  0.423441299E+01 -0.184070542E+00 -0.105746292E+00
   H -0.204725747E+02 -0.106458515E+00 -0.183478799E+01
   H  0.197670015E+02  0.189605505E+01  0.250993745E+01
     4
 # iter = 47000  time[fs]=47.00000
   C -0.417950346E+01  0.984404062E-01  0.109782744E+00
   C  0.432063273E+01 -0.187903203E+00 -0.108179270E+00
   H -0.208375523E+02 -0.108708671E+00 -0.186693595E+01
   H  0.201134010E+02  0.193031962E+01  0.255503523E+01
     4
 # iter = 47500  time[fs]=47.50000
   C -0.426422386E+01  0.100431841E+00  0.112845046E+00
   C  0.440704362E+01 -0.191743984E+00 -0.110618824E+00
   H -0.212027268E+02 -0.110961187E+00 -0.189910440E+01
   H  0.204600084E+02  0.196460698E+01  0.260016293E+01
     4
 # iter = 48000  time[fs]=48.00000
   C -0.434912877E+01  0.102429444E+00  0.115912942E+00
   C  0.449363812E+01 -0.195592580E+00 -0.113064732E+00
   H -0.215680914E+02 -0.113215982E+00 -0.193129267E+01
   H  0.208068168E+02  0.199891642E+01  0.264531959E+01
     4
 # iter = 48500  time[fs]=48.50000
   C -0.443421106E+01  0.104432979E+00  0.118986247E+00
   C  0.458040913E+01 -0.199448704E+00 -0.115516787E+00
   H -0.219336400E+02 -0.115472991E+00 -0.196350011E+01
   H  0.211538197E+02  0.203324725E+01  0.269050429E+01
     4
 # iter = 49000  time[fs]=49.00000
   C -0.451946400E+01  0.106442223E+00  0.122064782E+00
   C  0.466734993E+01 -0.203312084E+00 -0.117974790E+00
   H -0.222993666E+02 -0.117732151E+00 -0.199572611E+01
   H  0.215010107E+02  0.206759880E+01  0.273571617E+01
     4
 # iter = 49500  time[fs]=49.50000
   C -0.460488120E+01  0.108456963E+00  0.125148379E+00
   C  0.475445417E+01 -0.207182463E+00 -0.120438551E+00
   H -0.226652654E+02 -0.119993398E+00 -0.202797009E+01
   H  0.218483840E+02  0.210197044E+01  0.278095439E+01
     4
 # iter = 50000  time[fs]=50.00000
   C -0.469045663E+01  0.110477000E+00  0.128236876E+00
   C  0.484171582E+01 -0.211059594E+00 -0.122907890E+00
   H -0.230313310E+02 -0.122256672E+00 -0.206023151E+01
   H  0.221959338E+02  0.213636158E+01  0.282621817E+01
     4
 # iter = 50500  time[fs]=50.50000
   C -0.477618458E+01  0.112502145E+00  0.131330118E+00
   C  0.492912919E+01 -0.214943247E+00 -0.125382632E+00
   H -0.233975584E+02 -0.124521914E+00 -0.209250982E+01
   H  0.225436549E+02  0.217077165E+01  0.287150674E+01
     4
 # iter = 51000  time[fs]=51.00000
   C -0.486205961E+01  0.114532218E+00  0.134427960E+00
   C  0.501668888E+01 -0.218833199E+00 -0.127862613E+00
   H -0.237639425E+02 -0.126789068E+00 -0.212480453E+01
   H  0.228915420E+02  0.220520009E+01  0.291681938E+01
     4
 # iter = 51500  time[fs]=51.50000
   C -0.494807657E+01  0.116567048E+00  0.137530259E+00
   C  0.510438974E+01 -0.222729240E+00 -0.130347675E+00
   H -0.241304786E+02 -0.129058082E+00 -0.215711514E+01
   H  0.232395901E+02  0.223964638E+01  0.296215540E+01
     4
 # iter = 52000  time[fs]=52.00000
   C -0.503423058E+01  0.118606473E+00  0.140636881E+00
   C  0.519222691E+01 -0.226631172E+00 -0.132837665E+00
   H -0.244971622E+02 -0.131328904E+00 -0.218944121E+01
   H  0.235877946E+02  0.227411002E+01  0.300751413E+01
     4
 # iter = 52500  time[fs]=52.50000
   C -0.512051698E+01  0.120650338E+00  0.143747698E+00
   C  0.528019576E+01 -0.230538803E+00 -0.135332439E+00
   H -0.248639890E+02 -0.133601486E+00 -0.222178227E+01
   H  0.239361510E+02  0.230859053E+01  0.305289494E+01
     4
 # iter = 53000  time[fs]=53.00000
   C -0.520693134E+01  0.122698497E+00  0.146862587E+00
   C  0.536829186E+01 -0.234451952E+00 -0.137831858E+00
   H -0.252309549E+02 -0.135875780E+00 -0.225413792E+01
   H  0.242846549E+02  0.234308744E+01  0.309829722E+01
     4
 # iter = 53500  time[fs]=53.50000
   C -0.529346946E+01  0.124750810E+00  0.149981427E+00
   C  0.545651103E+01 -0.238370446E+00 -0.140335789E+00
   H -0.255980560E+02 -0.138151742E+00 -0.228650775E+01
   H  0.246333021E+02  0.237760032E+01  0.314372038E+01
     4
 # iter = 54000  time[fs]=54.00000
   C -0.538012732E+01  0.126807143E+00  0.153104108E+00
   C  0.554484927E+01 -0.242294120E+00 -0.142844104E+00
   H -0.259652883E+02 -0.140429329E+00 -0.231889136E+01
   H  0.249820888E+02  0.241212873E+01  0.318916387E+01
     4
 # iter = 54500  time[fs]=54.50000
   C -0.546690108E+01  0.128867369E+00  0.156230519E+00
   C  0.563330276E+01 -0.246222815E+00 -0.145356681E+00
   H -0.263326485E+02 -0.142708498E+00 -0.235128839E+01
   H  0.253310110E+02  0.244667227E+01  0.323462714E+01
     4
 # iter = 55000  time[fs]=55.00000
   C -0.555378710E+01  0.130931367E+00  0.159360558E+00
   C  0.572186786E+01 -0.250156382E+00 -0.147873403E+00
   H -0.267001328E+02 -0.144989210E+00 -0.238369847E+01
   H  0.256800652E+02  0.248123055E+01  0.328010968E+01
     4
 # iter = 55500  time[fs]=55.50000
   C -0.564078189E+01  0.132999021E+00  0.162494122E+00
   C  0.581054111E+01 -0.254094676E+00 -0.150394156E+00
   H -0.270677381E+02 -0.147271426E+00 -0.241612126E+01
   H  0.260292478E+02  0.251580318E+01  0.332561099E+01
     4
 # iter = 56000  time[fs]=56.00000
   C -0.572788212E+01  0.135070220E+00  0.165631118E+00
   C  0.589931918E+01 -0.258037559E+00 -0.152918832E+00
   H -0.274354610E+02 -0.149555109E+00 -0.244855643E+01
   H  0.263785554E+02  0.255038980E+01  0.337113059E+01
     4
 # iter = 56500  time[fs]=56.50000
   C -0.581508460E+01  0.137144858E+00  0.168771451E+00
   C  0.598819891E+01 -0.261984898E+00 -0.155447327E+00
   H -0.278032985E+02 -0.151840223E+00 -0.248100366E+01
   H  0.267279849E+02  0.258499008E+01  0.341666802E+01
     4
 # iter = 57000  time[fs]=57.00000
   C -0.590238629E+01  0.139222834E+00  0.171915034E+00
   C  0.607717726E+01 -0.265936569E+00 -0.157979542E+00
   H -0.281712477E+02 -0.154126734E+00 -0.251346264E+01
   H  0.270775330E+02  0.261960365E+01  0.346222284E+01
     4
 # iter = 57500  time[fs]=57.50000
   C -0.598978427E+01  0.141304051E+00  0.175061782E+00
   C  0.616625132E+01 -0.269892448E+00 -0.160515378E+00
   H -0.285393057E+02 -0.156414609E+00 -0.254593309E+01
   H  0.274271968E+02  0.265423021E+01  0.350779462E+01
     4
 # iter = 58000  time[fs]=58.00000
   C -0.607727574E+01  0.143388416E+00  0.178211611E+00
   C  0.625541833E+01 -0.273852420E+00 -0.163054744E+00
   H -0.289074697E+02 -0.158703816E+00 -0.257841472E+01
   H  0.277769734E+02  0.268886945E+01  0.355338295E+01
     4
 # iter = 58500  time[fs]=58.50000
   C -0.616485805E+01  0.145475840E+00  0.181364443E+00
   C  0.634467560E+01 -0.277816373E+00 -0.165597551E+00
   H -0.292757372E+02 -0.160994323E+00 -0.261090725E+01
   H  0.281268600E+02  0.272352105E+01  0.359898743E+01
     4
 # iter = 59000  time[fs]=59.00000
   C -0.625252861E+01  0.147566236E+00  0.184520202E+00
   C  0.643402060E+01 -0.281784200E+00 -0.168143711E+00
   H -0.296441055E+02 -0.163286101E+00 -0.264341042E+01
   H  0.284768539E+02  0.275818472E+01  0.364460768E+01
     4
 # iter = 59500  time[fs]=59.50000
   C -0.634028497E+01  0.149659524E+00  0.187678814E+00
   C  0.652345087E+01 -0.285755798E+00 -0.170693143E+00
   H -0.300125722E+02 -0.165579121E+00 -0.267592399E+01
   H  0.288269526E+02  0.279286020E+01  0.369024334E+01
     4
 # iter = 60000  time[fs]=60.00000
   C -0.642812477E+01  0.151755625E+00  0.190840210E+00
   C  0.661296406E+01 -0.289731068E+00 -0.173245766E+00
   H -0.303811349E+02 -0.167873356E+00 -0.270844769E+01
   H  0.291771535E+02  0.282754720E+01  0.373589403E+01
     4
 # iter = 60500  time[fs]=60.50000
   C -0.651604574E+01  0.153854463E+00  0.194004320E+00
   C  0.670255792E+01 -0.293709914E+00 -0.175801504E+00
   H -0.307497914E+02 -0.170168777E+00 -0.274098130E+01
   H  0.295274542E+02  0.286224546E+01  0.378155943E+01
     4
 # iter = 61000  time[fs]=61.00000
   C -0.660404570E+01  0.155955965E+00  0.197171079E+00
   C  0.679223027E+01 -0.297692245E+00 -0.178360281E+00
   H -0.311185395E+02 -0.172465360E+00 -0.277352459E+01
   H  0.298778525E+02  0.289695474E+01  0.382723919E+01
     4
 # iter = 61500  time[fs]=61.50000
   C -0.669212256E+01  0.158060061E+00  0.200340424E+00
   C  0.688197903E+01 -0.301677974E+00 -0.180922026E+00
   H -0.314873770E+02 -0.174763079E+00 -0.280607734E+01
   H  0.302283460E+02  0.293167478E+01  0.387293300E+01
     4
 # iter = 62000  time[fs]=62.00000
   C -0.678027431E+01  0.160166685E+00  0.203512293E+00
   C  0.697180221E+01 -0.305667015E+00 -0.183486669E+00
   H -0.318563020E+02 -0.177061910E+00 -0.283863933E+01
   H  0.305789326E+02  0.296640535E+01  0.391864055E+01
     4
 # iter = 62500  time[fs]=62.50000
   C -0.686849900E+01  0.162275771E+00  0.206686627E+00
   C  0.706169786E+01 -0.309659286E+00 -0.186054145E+00
   H -0.322253123E+02 -0.179361828E+00 -0.287121037E+01
   H  0.309296103E+02  0.300114622E+01  0.396436153E+01
     4
 # iter = 63000  time[fs]=63.00000
   C -0.695679478E+01  0.164387258E+00  0.209863370E+00
   C  0.715166414E+01 -0.313654708E+00 -0.188624387E+00
   H -0.325944061E+02 -0.181662812E+00 -0.290379024E+01
   H  0.312803769E+02  0.303589717E+01  0.401009566E+01
     4
 # iter = 63500  time[fs]=63.50000
   C -0.704515984E+01  0.166501085E+00  0.213042465E+00
   C  0.724169926E+01 -0.317653206E+00 -0.191197333E+00
   H -0.329635816E+02 -0.183964839E+00 -0.293637876E+01
   H  0.316312305E+02  0.307065799E+01  0.405584265E+01
     4
 # iter = 64000  time[fs]=64.00000
   C -0.713359247E+01  0.168617194E+00  0.216223860E+00
   C  0.733180150E+01 -0.321654706E+00 -0.193772923E+00
   H -0.333328369E+02 -0.186267888E+00 -0.296897575E+01
   H  0.319821693E+02  0.310542846E+01  0.410160223E+01
     4
 # iter = 64500  time[fs]=64.50000
   C -0.722209098E+01  0.170735531E+00  0.219407503E+00
   C  0.742196920E+01 -0.325659138E+00 -0.196351098E+00
   H -0.337021703E+02 -0.188571937E+00 -0.300158101E+01
   H  0.323331914E+02  0.314020839E+01  0.414737414E+01
     4
 # iter = 65000  time[fs]=65.00000
   C -0.731065378E+01  0.172856041E+00  0.222593345E+00
   C  0.751220076E+01 -0.329666433E+00 -0.198931801E+00
   H -0.340715802E+02 -0.190876968E+00 -0.303419439E+01
   H  0.326842950E+02  0.317499758E+01  0.419315812E+01
     4
 # iter = 65500  time[fs]=65.50000
   C -0.739927931E+01  0.174978672E+00  0.225781336E+00
   C  0.760249463E+01 -0.333676524E+00 -0.201514979E+00
   H -0.344410649E+02 -0.193182959E+00 -0.306681570E+01
   H  0.330354784E+02  0.320979584E+01  0.423895392E+01
     4
 # iter = 66000  time[fs]=66.00000
   C -0.748796608E+01  0.177103374E+00  0.228971431E+00
   C  0.769284934E+01 -0.337689350E+00 -0.204100576E+00
   H -0.348106228E+02 -0.195489893E+00 -0.309944478E+01
   H  0.333867399E+02  0.324460299E+01  0.428476130E+01
     4
 # iter = 66500  time[fs]=66.50000
   C -0.757671264E+01  0.179230099E+00  0.232163583E+00
   C  0.778326344E+01 -0.341704847E+00 -0.206688543E+00
   H -0.351802524E+02 -0.197797750E+00 -0.313208148E+01
   H  0.337380780E+02  0.327941885E+01  0.433058004E+01
     4
 # iter = 67000  time[fs]=67.00000
   C -0.766551760E+01  0.181358801E+00  0.235357749E+00
   C  0.787373554E+01 -0.345722957E+00 -0.209278829E+00
   H -0.355499523E+02 -0.200106513E+00 -0.316472565E+01
   H  0.340894910E+02  0.331424324E+01  0.437640990E+01
     4
 # iter = 67500  time[fs]=67.50000
   C -0.775437961E+01  0.183489434E+00  0.238553887E+00
   C  0.796426431E+01 -0.349743621E+00 -0.211871386E+00
   H -0.359197210E+02 -0.202416164E+00 -0.319737712E+01
   H  0.344409774E+02  0.334907601E+01  0.442225066E+01
     4
 # iter = 68000  time[fs]=68.00000
   C -0.784329737E+01  0.185621954E+00  0.241751956E+00
   C  0.805484845E+01 -0.353766784E+00 -0.214466168E+00
   H -0.362895571E+02 -0.204726688E+00 -0.323003576E+01
   H  0.347925358E+02  0.338391699E+01  0.446810211E+01
     4
 # iter = 68500  time[fs]=68.50000
   C -0.793226962E+01  0.187756319E+00  0.244951914E+00
   C  0.814548671E+01 -0.357792392E+00 -0.217063128E+00
   H -0.366594593E+02 -0.207038066E+00 -0.326270143E+01
   H  0.351441648E+02  0.341876601E+01  0.451396405E+01
     4
 # iter = 69000  time[fs]=69.00000
   C -0.802129515E+01  0.189892490E+00  0.248153725E+00
   C  0.823617788E+01 -0.361820393E+00 -0.219662222E+00
   H -0.370294263E+02 -0.209350284E+00 -0.329537398E+01
   H  0.354958629E+02  0.345362294E+01  0.455983627E+01
     4
 # iter = 69500  time[fs]=69.50000
   C -0.811037276E+01  0.192030425E+00  0.251357350E+00
   C  0.832692078E+01 -0.365850736E+00 -0.222263409E+00
   H -0.373994567E+02 -0.211663325E+00 -0.332805330E+01
   H  0.358476288E+02  0.348848761E+01  0.460571858E+01
     4
 # iter = 70000  time[fs]=70.00000
   C -0.819950134E+01  0.194170088E+00  0.254562753E+00
   C  0.841771428E+01 -0.369883372E+00 -0.224866645E+00
   H -0.377695494E+02 -0.213977176E+00 -0.336073924E+01
   H  0.361994612E+02  0.352335988E+01  0.465161079E+01
     4
 # iter = 70500  time[fs]=70.50000
   C -0.828867976E+01  0.196311440E+00  0.257769898E+00
   C  0.850855728E+01 -0.373918254E+00 -0.227471892E+00
   H -0.381397032E+02 -0.216291820E+00 -0.339343168E+01
   H  0.365513588E+02  0.355823962E+01  0.469751271E+01
     4
 # iter = 71000  time[fs]=71.00000
   C -0.837790696E+01  0.198454446E+00  0.260978751E+00
   C  0.859944873E+01 -0.377955335E+00 -0.230079110E+00
   H -0.385099169E+02 -0.218607244E+00 -0.342613051E+01
   H  0.369033204E+02  0.359312668E+01  0.474342417E+01
     4
 # iter = 71500  time[fs]=71.50000
   C -0.846718191E+01  0.200599072E+00  0.264189279E+00
   C  0.869038759E+01 -0.381994571E+00 -0.232688261E+00
   H -0.388801893E+02 -0.220923434E+00 -0.345883559E+01
   H  0.372553449E+02  0.362802093E+01  0.478934499E+01
     4
 # iter = 72000  time[fs]=72.00000
   C -0.855650361E+01  0.202745283E+00  0.267401450E+00
   C  0.878137286E+01 -0.386035919E+00 -0.235299308E+00
   H -0.392505194E+02 -0.223240377E+00 -0.349154683E+01
   H  0.376074309E+02  0.366292224E+01  0.483527500E+01
     4
 # iter = 72500  time[fs]=72.50000
   C -0.864587107E+01  0.204893048E+00  0.270615231E+00
   C  0.887240358E+01 -0.390079336E+00 -0.237912214E+00
   H -0.396209062E+02 -0.225558059E+00 -0.352426410E+01
   H  0.379595774E+02  0.369783049E+01  0.488121404E+01
     4
 # iter = 73000  time[fs]=73.00000
   C -0.873528336E+01  0.207042334E+00  0.273830592E+00
   C  0.896347880E+01 -0.394124782E+00 -0.240526946E+00
   H -0.399913485E+02 -0.227876467E+00 -0.355698730E+01
   H  0.383117834E+02  0.373274556E+01  0.492716194E+01
     4
 # iter = 73500  time[fs]=73.50000
   C -0.882473957E+01  0.209193110E+00  0.277047505E+00
   C  0.905459763E+01 -0.398172216E+00 -0.243143470E+00
   H -0.403618453E+02 -0.230195589E+00 -0.358971632E+01
   H  0.386640476E+02  0.376766731E+01  0.497311855E+01
     4
 # iter = 74000  time[fs]=74.00000
   C -0.891423880E+01  0.211345347E+00  0.280265938E+00
   C  0.914575917E+01 -0.402221601E+00 -0.245761751E+00
   H -0.407323957E+02 -0.232515413E+00 -0.362245105E+01
   H  0.390163691E+02  0.380259565E+01  0.501908372E+01
     4
 # iter = 74500  time[fs]=74.50000
   C -0.900378019E+01  0.213499017E+00  0.283485866E+00
   C  0.923696258E+01 -0.406272900E+00 -0.248381758E+00
   H -0.411029988E+02 -0.234835927E+00 -0.365519141E+01
   H  0.393687468E+02  0.383753044E+01  0.506505729E+01
     4
 # iter = 75000  time[fs]=75.00000
   C -0.909336291E+01  0.215654090E+00  0.286707259E+00
   C  0.932820701E+01 -0.410326074E+00 -0.251003461E+00
   H -0.414736535E+02 -0.237157120E+00 -0.368793728E+01
   H  0.397211799E+02  0.387247159E+01  0.511103913E+01
     4
 # iter = 75500  time[fs]=75.50000
   C -0.918298615E+01  0.217810540E+00  0.289930092E+00
   C  0.941949167E+01 -0.414381091E+00 -0.253626828E+00
   H -0.418443590E+02 -0.239478979E+00 -0.372068858E+01
   H  0.400736672E+02  0.390741899E+01  0.515702909E+01
     4
 # iter = 76000  time[fs]=76.00000
   C -0.927264912E+01  0.219968340E+00  0.293154339E+00
   C  0.951081577E+01 -0.418437914E+00 -0.256251829E+00
   H -0.422151144E+02 -0.241801495E+00 -0.375344521E+01
   H  0.404262078E+02  0.394237252E+01  0.520302704E+01
     4
 # iter = 76500  time[fs]=76.50000
   C -0.936235104E+01  0.222127464E+00  0.296379973E+00
   C  0.960217854E+01 -0.422496511E+00 -0.258878437E+00
   H -0.425859188E+02 -0.244124656E+00 -0.378620708E+01
   H  0.407788010E+02  0.397733210E+01  0.524903284E+01
     4
 # iter = 77000  time[fs]=77.00000
   C -0.945209119E+01  0.224287887E+00  0.299606972E+00
   C  0.969357926E+01 -0.426556850E+00 -0.261506622E+00
   H -0.429567714E+02 -0.246448452E+00 -0.381897410E+01
   H  0.411314456E+02  0.401229761E+01  0.529504636E+01
     4
 # iter = 77500  time[fs]=77.50000
   C -0.954186883E+01  0.226449586E+00  0.302835311E+00
   C  0.978501719E+01 -0.430618897E+00 -0.264136358E+00
   H -0.433276714E+02 -0.248772873E+00 -0.385174619E+01
   H  0.414841409E+02  0.404726896E+01  0.534106747E+01
     4
 # iter = 78000  time[fs]=78.00000
   C -0.963168325E+01  0.228612536E+00  0.306064966E+00
   C  0.987649163E+01 -0.434682624E+00 -0.266767617E+00
   H -0.436986180E+02 -0.251097909E+00 -0.388452326E+01
   H  0.418368861E+02  0.408224606E+01  0.538709606E+01
     4
 # iter = 78500  time[fs]=78.50000
   C -0.972153379E+01  0.230776713E+00  0.309295915E+00
   C  0.996800192E+01 -0.438748000E+00 -0.269400374E+00
   H -0.440696103E+02 -0.253423550E+00 -0.391730523E+01
   H  0.421896803E+02  0.411722881E+01  0.543313199E+01
     4
 # iter = 79000  time[fs]=79.00000
   C -0.981141976E+01  0.232942097E+00  0.312528135E+00
   C  0.100595474E+02 -0.442814995E+00 -0.272034604E+00
   H -0.444406477E+02 -0.255749786E+00 -0.395009203E+01
   H  0.425425227E+02  0.415221712E+01  0.547917516E+01
     4
 # iter = 79500  time[fs]=79.50000
   C -0.990134053E+01  0.235108665E+00  0.315761606E+00
   C  0.101511274E+02 -0.446883582E+00 -0.274670281E+00
   H -0.448117295E+02 -0.258076609E+00 -0.398288357E+01
   H  0.428954124E+02  0.418721091E+01  0.552522543E+01
     4
 # iter = 80000  time[fs]=80.00000
   C -0.999129545E+01  0.237276396E+00  0.318996305E+00
   C  0.102427413E+02 -0.450953732E+00 -0.277307382E+00
   H -0.451828548E+02 -0.260404009E+00 -0.401567977E+01
   H  0.432483488E+02  0.422221008E+01  0.557128272E+01
