     4
 # iter = 25000  time[fs]=25.00000
   C -0.970242527E+00  0.192486641E-01 -0.501028140E-01
   C  0.100286583E+01  0.249435420E-01 -0.413216644E-01
   H -0.526608110E+01  0.283224644E+00  0.345271575E+00
   H  0.533058433E+01  0.327605896E+00 -0.389006701E+00
     4
 # iter = 25500  time[fs]=25.50000
   C -0.101594660E+01  0.171856888E-01 -0.532420952E-01
   C  0.104401534E+01  0.223767482E-01 -0.428789635E-01
   H -0.560628981E+01  0.290843808E+00  0.361572908E+00
   H  0.564190615E+01  0.337771375E+00 -0.421303301E+00
     4
 # iter = 26000  time[fs]=26.00000
   C -0.106684434E+01  0.143089335E-01 -0.572037384E-01
   C  0.108841387E+01  0.186558449E-01 -0.455602118E-01
   H -0.595457226E+01  0.293188266E+00  0.372685414E+00
   H  0.595049121E+01  0.342680083E+00 -0.459201495E+00
     4
 # iter = 26500  time[fs]=26.50000
   C -0.112020204E+01  0.129794447E-01 -0.596294794E-01
   C  0.113911743E+01  0.172145449E-01 -0.459310104E-01
   H -0.629454010E+01  0.306324763E+00  0.394666386E+00
   H  0.627215936E+01  0.358412624E+00 -0.486586063E+00
     4
 # iter = 27000  time[fs]=27.00000
   C -0.117554308E+01  0.133161728E-01 -0.604023264E-01
   C  0.119593524E+01  0.182225358E-01 -0.438216120E-01
   H -0.662514702E+01  0.331036815E+00  0.428291561E+00
   H  0.660746371E+01  0.385751701E+00 -0.502643744E+00
     4
 # iter = 27500  time[fs]=27.50000
   C -0.123428331E+01  0.135665847E-01 -0.612760884E-01
   C  0.125597450E+01  0.191247790E-01 -0.417875055E-01
   H -0.695815150E+01  0.355349393E+00  0.461579464E+00
   H  0.694421307E+01  0.412709492E+00 -0.519335196E+00
     4
 # iter = 28000  time[fs]=28.00000
   C -0.129735376E+01  0.124909090E-01 -0.634912567E-01
   C  0.131711766E+01  0.181134764E-01 -0.416372500E-01
   H -0.730184135E+01  0.370788244E+00  0.486050272E+00
   H  0.727374914E+01  0.430802363E+00 -0.545120714E+00
     4
 # iter = 28500  time[fs]=28.50000
   C -0.136397319E+01  0.105918804E-01 -0.665453863E-01
   C  0.137981528E+01  0.159191573E-01 -0.426412493E-01
   H -0.765263707E+01  0.380767457E+00  0.505113128E+00
   H  0.759934062E+01  0.443446270E+00 -0.576564720E+00
     4
 # iter = 29000  time[fs]=29.00000
   C -0.143265973E+01  0.910091655E-02 -0.692070356E-01
   C  0.144560735E+01  0.143339569E-01 -0.430084304E-01
   H -0.800200600E+01  0.393673606E+00  0.527150227E+00
   H  0.792925437E+01  0.459034423E+00 -0.605257170E+00
     4
 # iter = 29500  time[fs]=29.50000
   C -0.150276152E+01  0.844395757E-02 -0.710500192E-01
   C  0.151488560E+01  0.139767244E-01 -0.421211184E-01
   H -0.834692855E+01  0.412399500E+00  0.555050564E+00
   H  0.826627286E+01  0.480461345E+00 -0.628288574E+00
     4
 # iter = 30000  time[fs]=30.00000
   C -0.157466977E+01  0.802627707E-02 -0.726686654E-01
   C  0.158657781E+01  0.139795114E-01 -0.408485100E-01
   H -0.869136418E+01  0.432875895E+00  0.584741572E+00
   H  0.860622154E+01  0.503653211E+00 -0.649719237E+00
     4
 # iter = 30500  time[fs]=30.50000
   C -0.164886578E+01  0.718422793E-02 -0.747261204E-01
   C  0.165953292E+01  0.133742054E-01 -0.401599806E-01
   H -0.903975404E+01  0.450564972E+00  0.611682497E+00
   H  0.894446787E+01  0.524067251E+00 -0.674079844E+00
     4
 # iter = 31000  time[fs]=31.00000
   C -0.172519544E+01  0.590922269E-02 -0.772304064E-01
   C  0.173357420E+01  0.121473562E-01 -0.400702166E-01
   H -0.939207824E+01  0.465399932E+00  0.635803905E+00
   H  0.928086498E+01  0.541635842E+00 -0.701427335E+00
     4
 # iter = 31500  time[fs]=31.50000
   C -0.180307962E+01  0.463525893E-02 -0.797469251E-01
   C  0.180918739E+01  0.109305237E-01 -0.399488508E-01
   H -0.974530470E+01  0.480334859E+00  0.660057495E+00
   H  0.961829869E+01  0.559315048E+00 -0.728796158E+00
     4
 # iter = 32000  time[fs]=32.00000
   C -0.188211918E+01  0.363158459E-02 -0.820058146E-01
   C  0.188663363E+01  0.101152608E-01 -0.394054777E-01
   H -0.100975330E+02  0.497200227E+00  0.686271601E+00
   H  0.995853742E+01  0.578936389E+00 -0.754346251E+00
     4
 # iter = 32500  time[fs]=32.50000
   C -0.196231099E+01  0.278489082E-02 -0.841197716E-01
   C  0.196563014E+01  0.953572292E-02 -0.386070421E-01
   H -0.104494801E+02  0.515216573E+00  0.713664837E+00
   H  0.103007432E+02  0.599719148E+00 -0.778850552E+00
     4
 # iter = 33000  time[fs]=33.00000
   C -0.204378481E+01  0.186089269E-02 -0.863224807E-01
   C  0.204573002E+01  0.884986787E-02 -0.378966318E-01
   H -0.108026939E+02  0.532779567E+00  0.740631135E+00
   H  0.106432579E+02  0.620057037E+00 -0.803908264E+00
     4
 # iter = 33500  time[fs]=33.50000
   C -0.212651512E+01  0.791284123E-03 -0.886816664E-01
   C  0.212673904E+01  0.795762635E-02 -0.373753020E-01
   H -0.111575943E+02  0.549418211E+00  0.766697915E+00
   H  0.109855624E+02  0.639478155E+00 -0.829984857E+00
     4
 # iter = 34000  time[fs]=34.00000
   C -0.221031705E+01 -0.323391035E-03 -0.910962268E-01
   C  0.220871858E+01  0.700506394E-02 -0.368979128E-01
   H -0.115134530E+02  0.565814300E+00  0.792545526E+00
   H  0.113282962E+02  0.658664461E+00 -0.856392516E+00
     4
 # iter = 34500  time[fs]=34.50000
   C -0.229501631E+01 -0.138485099E-02 -0.934673475E-01
   C  0.229173518E+01  0.613499211E-02 -0.363225210E-01
   H -0.118695607E+02  0.582634557E+00  0.818839370E+00
   H  0.116720871E+02  0.678282871E+00 -0.882458974E+00
     4
 # iter = 35000  time[fs]=35.00000
   C -0.238054554E+01 -0.239437446E-02 -0.957958019E-01
   C  0.237571767E+01  0.534516172E-02 -0.356521897E-01
   H -0.122258911E+02  0.599866567E+00  0.845565820E+00
   H  0.120168867E+02  0.698320586E+00 -0.908192111E+00
     4
 # iter = 35500  time[fs]=35.50000
   C -0.246689831E+01 -0.340765750E-02 -0.981368086E-01
   C  0.246052218E+01  0.455405558E-02 -0.349691990E-01
   H -0.125827921E+02  0.617126858E+00  0.872340290E+00
   H  0.123622782E+02  0.718393442E+00 -0.933971560E+00
     4
 # iter = 36000  time[fs]=36.00000
   C -0.255404850E+01 -0.445490389E-02 -0.100520121E+00
   C  0.254604787E+01  0.371734862E-02 -0.343185870E-01
   H -0.129404403E+02  0.634206241E+00  0.898952570E+00
   H  0.127080216E+02  0.738291741E+00 -0.960002839E+00
     4
 # iter = 36500  time[fs]=36.50000
   C -0.264193141E+01 -0.552255022E-02 -0.102931751E+00
   C  0.263226288E+01  0.285453636E-02 -0.336815251E-01
   H -0.132987159E+02  0.651194502E+00  0.925491495E+00
   H  0.130541789E+02  0.758105044E+00 -0.986192527E+00
     4
 # iter = 37000  time[fs]=37.00000
   C -0.273047686E+01 -0.658697977E-02 -0.105347685E+00
   C  0.271915466E+01  0.199979215E-02 -0.330244630E-01
   H -0.136574324E+02  0.668250257E+00  0.952114809E+00
   H  0.134008830E+02  0.777991830E+00 -0.101237857E+01
     4
 # iter = 37500  time[fs]=37.50000
   C -0.281963642E+01 -0.764222223E-02 -0.107761577E+00
   C  0.280668905E+01  0.116159202E-02 -0.323395074E-01
   H -0.140165259E+02  0.685411883E+00  0.978860074E+00
   H  0.137481482E+02  0.797990247E+00 -0.103851951E+01
     4
 # iter = 38000  time[fs]=38.00000
   C -0.290937992E+01 -0.869690085E-02 -0.110181701E+00
   C  0.289481433E+01  0.327162519E-03 -0.316399771E-01
   H -0.143760336E+02  0.702618334E+00  0.100566549E+01
   H  0.140958913E+02  0.818038949E+00 -0.106467360E+01
     4
 # iter = 38500  time[fs]=38.50000
   C -0.299967924E+01 -0.975842312E-02 -0.112615133E+00
   C  0.298348387E+01 -0.514478969E-03 -0.309373650E-01
   H -0.147359861E+02  0.719817029E+00  0.103247778E+01
   H  0.144440389E+02  0.838085078E+00 -0.109089082E+01
     4
 # iter = 39000  time[fs]=39.00000
   C -0.309050136E+01 -0.108263436E-01 -0.115061121E+00
   C  0.307266544E+01 -0.136285258E-02 -0.302316690E-01
   H -0.150963617E+02  0.737009133E+00  0.105929744E+01
   H  0.147925732E+02  0.858129585E+00 -0.111716756E+01
     4
 # iter = 39500  time[fs]=39.50000
   C -0.318181243E+01 -0.118967601E-01 -0.117515470E+00
   C  0.316233451E+01 -0.221242571E-02 -0.295178042E-01
   H -0.154571165E+02  0.754219539E+00  0.108614876E+01
   H  0.151415010E+02  0.878197182E+00 -0.114347658E+01
     4
 # iter = 40000  time[fs]=40.00000
   C -0.327358297E+01 -0.129677489E-01 -0.119975987E+00
   C  0.325246608E+01 -0.306053671E-02 -0.287935288E-01
   H -0.158182210E+02  0.771459754E+00  0.111304268E+01
   H  0.154908172E+02  0.898299198E+00 -0.116980421E+01
     4
 # iter = 40500  time[fs]=40.50000
   C -0.336578828E+01 -0.140400099E-01 -0.122443115E+00
   C  0.334303348E+01 -0.390833627E-02 -0.280603875E-01
   H -0.161796649E+02  0.788723491E+00  0.113997237E+01
   H  0.158404998E+02  0.918429159E+00 -0.119615474E+01
     4
 # iter = 41000  time[fs]=41.00000
   C -0.345840599E+01 -0.151146623E-01 -0.124917734E+00
   C  0.343401140E+01 -0.475757589E-02 -0.273205018E-01
   H -0.165414417E+02  0.806001701E+00  0.116692828E+01
   H  0.161905253E+02  0.938577839E+00 -0.122253531E+01
     4
 # iter = 41500  time[fs]=41.50000
   C -0.355141456E+01 -0.161918653E-01 -0.127399777E+00
   C  0.352537769E+01 -0.560859828E-02 -0.265745622E-01
   H -0.169035392E+02  0.823291976E+00  0.119390754E+01
   H  0.165408773E+02  0.958742671E+00 -0.124894657E+01
     4
 # iter = 42000  time[fs]=42.00000
   C -0.364479336E+01 -0.172711281E-01 -0.129888541E+00
   C  0.361711277E+01 -0.646079026E-02 -0.258222828E-01
   H -0.172659416E+02  0.840596433E+00  0.122091181E+01
   H  0.168915453E+02  0.978925620E+00 -0.127538472E+01
     4
 # iter = 42500  time[fs]=42.50000
   C -0.373852334E+01 -0.183520623E-01 -0.132383438E+00
   C  0.370919835E+01 -0.731368028E-02 -0.250635000E-01
   H -0.176286344E+02  0.857916565E+00  0.124794216E+01
   H  0.172425186E+02  0.999128040E+00 -0.130184669E+01
     4
 # iter = 43000  time[fs]=43.00000
   C -0.383258708E+01 -0.194346081E-01 -0.134884221E+00
   C  0.380161700E+01 -0.816726913E-02 -0.242985050E-01
   H -0.179916063E+02  0.875251690E+00  0.127499754E+01
   H  0.175937850E+02  0.101934911E+01 -0.132833166E+01
     4
 # iter = 43500  time[fs]=43.50000
   C -0.392696849E+01 -0.205188254E-01 -0.137390773E+00
   C  0.389435234E+01 -0.902172548E-02 -0.235277403E-01
   H -0.183548472E+02  0.892600377E+00  0.130207612E+01
   H  0.179453325E+02  0.103958728E+01 -0.135483968E+01
     4
 # iter = 44000  time[fs]=44.00000
   C -0.402165250E+01 -0.216047018E-01 -0.139902913E+00
   C  0.398738920E+01 -0.987710676E-02 -0.227515218E-01
   H -0.187183473E+02  0.909961748E+00  0.132917668E+01
   H  0.182971499E+02  0.105984154E+01 -0.138137029E+01
     4
 # iter = 44500  time[fs]=44.50000
   C -0.411662497E+01 -0.226921473E-01 -0.142420395E+00
   C  0.408071351E+01 -0.107333525E-01 -0.219700333E-01
   H -0.190820967E+02  0.927335508E+00  0.135629860E+01
   H  0.186492275E+02  0.108011148E+01 -0.140792252E+01
     4
 # iter = 45000  time[fs]=45.00000
   C -0.421187267E+01 -0.237810680E-01 -0.144942975E+00
   C  0.417431217E+01 -0.115903916E-01 -0.211834345E-01
   H -0.194460860E+02  0.944721441E+00  0.138344133E+01
   H  0.190015560E+02  0.110039678E+01 -0.143449541E+01
     4
 # iter = 45500  time[fs]=45.50000
   C -0.430738324E+01 -0.248714011E-01 -0.147470451E+00
   C  0.426817285E+01 -0.124481939E-01 -0.203919139E-01
   H -0.198103066E+02  0.962119166E+00  0.141060421E+01
   H  0.193541264E+02  0.112069695E+01 -0.146108821E+01
     4
 # iter = 46000  time[fs]=46.00000
   C -0.440314515E+01 -0.259631023E-01 -0.150002643E+00
   C  0.436228402E+01 -0.133067522E-01 -0.195956714E-01
   H -0.201747502E+02  0.979528220E+00  0.143778649E+01
   H  0.197069302E+02  0.114101144E+01 -0.148770030E+01
     4
 # iter = 46500  time[fs]=46.50000
   C -0.449914753E+01 -0.270561273E-01 -0.152539384E+00
   C  0.445663484E+01 -0.141660558E-01 -0.187948923E-01
   H -0.205394091E+02  0.996948179E+00  0.146498747E+01
   H  0.200599592E+02  0.116133971E+01 -0.151433111E+01
     4
 # iter = 47000  time[fs]=47.00000
   C -0.459538021E+01 -0.281504276E-01 -0.155080503E+00
   C  0.455121514E+01 -0.150260844E-01 -0.179897427E-01
   H -0.209042759E+02  0.101437869E+01  0.149220654E+01
   H  0.204132057E+02  0.118168133E+01 -0.154098000E+01
     4
 # iter = 47500  time[fs]=47.50000
   C -0.469183361E+01 -0.292459553E-01 -0.157625841E+00
   C  0.464601537E+01 -0.158868157E-01 -0.171803768E-01
   H -0.212693437E+02  0.103181942E+01  0.151944313E+01
   H  0.207666626E+02  0.120203588E+01 -0.156764640E+01
     4
 # iter = 48000  time[fs]=48.00000
   C -0.478849870E+01 -0.303426666E-01 -0.160175246E+00
   C  0.474102653E+01 -0.167482302E-01 -0.163669430E-01
   H -0.216346057E+02  0.104927005E+01  0.154669669E+01
   H  0.211203229E+02  0.122240297E+01 -0.159432974E+01
     4
 # iter = 48500  time[fs]=48.50000
   C -0.488536700E+01 -0.314405210E-01 -0.162728576E+00
   C  0.483624017E+01 -0.176103110E-01 -0.155495842E-01
   H -0.220000556E+02  0.106673028E+01  0.157396669E+01
   H  0.214741799E+02  0.124278219E+01 -0.162102950E+01
     4
 # iter = 49000  time[fs]=49.00000
   C -0.498243050E+01 -0.325394804E-01 -0.165285696E+00
   C  0.493164828E+01 -0.184730418E-01 -0.147284360E-01
   H -0.223656874E+02  0.108419979E+01  0.160125262E+01
   H  0.218282275E+02  0.126317318E+01 -0.164774519E+01
     4
 # iter = 49500  time[fs]=49.50000
   C -0.507968164E+01 -0.336395081E-01 -0.167846478E+00
   C  0.502724333E+01 -0.193364064E-01 -0.139036269E-01
   H -0.227314954E+02  0.110167832E+01  0.162855399E+01
   H  0.221824597E+02  0.128357558E+01 -0.167447632E+01
     4
 # iter = 50000  time[fs]=50.00000
   C -0.517711326E+01 -0.347405690E-01 -0.170410797E+00
   C  0.512301818E+01 -0.202003889E-01 -0.130752787E-01
   H -0.230974739E+02  0.111916558E+01  0.165587034E+01
   H  0.225368706E+02  0.130398906E+01 -0.170122245E+01
     4
 # iter = 50500  time[fs]=50.50000
   C -0.527471863E+01 -0.358426299E-01 -0.172978539E+00
   C  0.521896611E+01 -0.210649739E-01 -0.122435075E-01
   H -0.234636179E+02  0.113666132E+01  0.168320123E+01
   H  0.228914550E+02  0.132441328E+01 -0.172798312E+01
     4
 # iter = 51000  time[fs]=51.00000
   C -0.537249133E+01 -0.369456591E-01 -0.175549592E+00
   C  0.531508073E+01 -0.219301469E-01 -0.114084242E-01
   H -0.238299223E+02  0.115416530E+01  0.171054624E+01
   H  0.232462076E+02  0.134484795E+01 -0.175475793E+01
     4
 # iter = 51500  time[fs]=51.50000
   C -0.547042530E+01 -0.380496264E-01 -0.178123850E+00
   C  0.541135599E+01 -0.227958935E-01 -0.105701342E-01
   H -0.241963824E+02  0.117167727E+01  0.173790496E+01
   H  0.236011234E+02  0.136529275E+01 -0.178154647E+01
     4
 # iter = 52000  time[fs]=52.00000
   C -0.556851481E+01 -0.391545032E-01 -0.180701211E+00
   C  0.550778616E+01 -0.236622001E-01 -0.972873825E-02
   H -0.245629935E+02  0.118919702E+01  0.176527701E+01
   H  0.239561976E+02  0.138574742E+01 -0.180834836E+01
     4
 # iter = 52500  time[fs]=52.50000
   C -0.566675439E+01 -0.402602619E-01 -0.183281581E+00
   C  0.560436581E+01 -0.245290535E-01 -0.888433248E-02
   H -0.249297514E+02  0.120672433E+01  0.179266202E+01
   H  0.243114258E+02  0.140621168E+01 -0.183516323E+01
     4
 # iter = 53000  time[fs]=53.00000
   C -0.576513887E+01 -0.413668764E-01 -0.185864866E+00
   C  0.570108977E+01 -0.253964407E-01 -0.803700866E-02
   H -0.252966518E+02  0.122425898E+01  0.182005963E+01
   H  0.246668035E+02  0.142668526E+01 -0.186199073E+01
     4
 # iter = 53500  time[fs]=53.50000
   C -0.586366331E+01 -0.424743216E-01 -0.188450979E+00
   C  0.579795313E+01 -0.262643495E-01 -0.718685454E-02
   H -0.256636907E+02  0.124180078E+01  0.184746950E+01
   H  0.250223267E+02  0.144716792E+01 -0.188883053E+01
     4
 # iter = 54000  time[fs]=54.00000
   C -0.596232303E+01 -0.435825734E-01 -0.191039836E+00
   C  0.589495121E+01 -0.271327677E-01 -0.633395403E-02
   H -0.260308643E+02  0.125934954E+01  0.187489131E+01
   H  0.253779912E+02  0.146765942E+01 -0.191568229E+01
     4
 # iter = 54500  time[fs]=54.50000
   C -0.606111358E+01 -0.446916091E-01 -0.193631355E+00
   C  0.599207956E+01 -0.280016839E-01 -0.547838743E-02
   H -0.263981689E+02  0.127690508E+01  0.190232474E+01
   H  0.257337932E+02  0.148815952E+01 -0.194254570E+01
     4
 # iter = 55000  time[fs]=55.00000
   C -0.616003070E+01 -0.458014066E-01 -0.196225461E+00
   C  0.608933396E+01 -0.288710867E-01 -0.462023163E-02
   H -0.267656011E+02  0.129446722E+01  0.192976948E+01
   H  0.260897291E+02  0.150866801E+01 -0.196942048E+01
     4
 # iter = 55500  time[fs]=55.50000
   C -0.625907033E+01 -0.469119448E-01 -0.198822080E+00
   C  0.618671036E+01 -0.297409654E-01 -0.375956029E-02
   H -0.271331573E+02  0.131203578E+01  0.195722525E+01
   H  0.264457954E+02  0.152918466E+01 -0.199630631E+01
     4
 # iter = 56000  time[fs]=56.00000
   C -0.635822863E+01 -0.480232036E-01 -0.201421139E+00
   C  0.628420491E+01 -0.306113094E-01 -0.289644404E-02
   H -0.275008343E+02  0.132961061E+01  0.198469177E+01
   H  0.268019885E+02  0.154970928E+01 -0.202320294E+01
     4
 # iter = 56500  time[fs]=56.50000
   C -0.645750188E+01 -0.491351636E-01 -0.204022573E+00
   C  0.638181392E+01 -0.314821084E-01 -0.203095058E-02
   H -0.278686290E+02  0.134719156E+01  0.201216877E+01
   H  0.271583052E+02  0.157024166E+01 -0.205011009E+01
     4
 # iter = 57000  time[fs]=57.00000
   C -0.655688658E+01 -0.502478061E-01 -0.206626315E+00
   C  0.647953390E+01 -0.323533527E-01 -0.116314493E-02
   H -0.282365384E+02  0.136477845E+01  0.203965599E+01
   H  0.275147425E+02  0.159078162E+01 -0.207702750E+01
     4
 # iter = 57500  time[fs]=57.50000
   C -0.665637935E+01 -0.513611134E-01 -0.209232303E+00
   C  0.657736147E+01 -0.332250326E-01 -0.293089476E-03
   H -0.286045596E+02  0.138237117E+01  0.206715319E+01
   H  0.278712971E+02  0.161132897E+01 -0.210395493E+01
     4
 # iter = 58000  time[fs]=58.00000
   C -0.675597697E+01 -0.524750683E-01 -0.211840478E+00
   C  0.667529343E+01 -0.340971390E-01  0.579155833E-03
   H -0.289726897E+02  0.139996955E+01  0.209466011E+01
   H  0.282279664E+02  0.163188354E+01 -0.213089214E+01
     4
 # iter = 58500  time[fs]=58.50000
   C -0.685567635E+01 -0.535896543E-01 -0.214450780E+00
   C  0.677332670E+01 -0.349696627E-01  0.145353339E-02
   H -0.293409262E+02  0.141757347E+01  0.212217653E+01
   H  0.285847473E+02  0.165244515E+01 -0.215783889E+01
     4
 # iter = 59000  time[fs]=59.00000
   C -0.695547455E+01 -0.547048554E-01 -0.217063156E+00
   C  0.687145834E+01 -0.358425952E-01  0.232998778E-02
   H -0.297092663E+02  0.143518280E+01  0.214970224E+01
   H  0.289416373E+02  0.167301364E+01 -0.218479496E+01
     4
 # iter = 59500  time[fs]=59.50000
   C -0.705536873E+01 -0.558206564E-01 -0.219677552E+00
   C  0.696968553E+01 -0.367159279E-01  0.320846573E-02
   H -0.300777077E+02  0.145279741E+01  0.217723700E+01
   H  0.292986337E+02  0.169358885E+01 -0.221176014E+01
     4
 # iter = 60000  time[fs]=60.00000
   C -0.715535618E+01 -0.569370426E-01 -0.222293915E+00
   C  0.706800557E+01 -0.375896526E-01  0.408891593E-02
   H -0.304462479E+02  0.147041718E+01  0.220478061E+01
   H  0.296557339E+02  0.171417063E+01 -0.223873422E+01
     4
 # iter = 60500  time[fs]=60.50000
   C -0.725543429E+01 -0.580539998E-01 -0.224912197E+00
   C  0.716641586E+01 -0.384637614E-01  0.497128900E-02
   H -0.308148846E+02  0.148804200E+01  0.223233288E+01
   H  0.300129357E+02  0.173475882E+01 -0.226571701E+01
     4
 # iter = 61000  time[fs]=61.00000
   C -0.735560058E+01 -0.591715143E-01 -0.227532351E+00
   C  0.726491392E+01 -0.393382466E-01  0.585553735E-02
   H -0.311836155E+02  0.150567174E+01  0.225989360E+01
   H  0.303702365E+02  0.175535330E+01 -0.229270829E+01
     4
 # iter = 61500  time[fs]=61.50000
   C -0.745585264E+01 -0.602895730E-01 -0.230154330E+00
   C  0.736349735E+01 -0.402131006E-01  0.674161512E-02
   H -0.315524384E+02  0.152330630E+01  0.228746259E+01
   H  0.307276342E+02  0.177595390E+01 -0.231970790E+01
     4
 # iter = 62000  time[fs]=62.00000
   C -0.755618818E+01 -0.614081630E-01 -0.232778090E+00
   C  0.746216387E+01 -0.410883162E-01  0.762947810E-02
   H -0.319213514E+02  0.154094557E+01  0.231503967E+01
   H  0.310851265E+02  0.179656052E+01 -0.234671565E+01
     4
 # iter = 62500  time[fs]=62.50000
   C -0.765660497E+01 -0.625272722E-01 -0.235403588E+00
   C  0.756091126E+01 -0.419638862E-01  0.851908365E-02
   H -0.322903523E+02  0.155858945E+01  0.234262466E+01
   H  0.314427114E+02  0.181717300E+01 -0.237373135E+01
     4
 # iter = 63000  time[fs]=63.00000
   C -0.775710089E+01 -0.636468887E-01 -0.238030784E+00
   C  0.765973740E+01 -0.428398039E-01  0.941039060E-02
   H -0.326594392E+02  0.157623785E+01  0.237021739E+01
   H  0.318003867E+02  0.183779123E+01 -0.240075485E+01
     4
 # iter = 63500  time[fs]=63.50000
   C -0.785767389E+01 -0.647670010E-01 -0.240659637E+00
   C  0.775864027E+01 -0.437160625E-01  0.103033592E-01
   H -0.330286102E+02  0.159389066E+01  0.239781771E+01
   H  0.321581506E+02  0.185841509E+01 -0.242778598E+01
     4
 # iter = 64000  time[fs]=64.00000
   C -0.795832200E+01 -0.658875981E-01 -0.243290109E+00
   C  0.785761788E+01 -0.445926556E-01  0.111979512E-01
   H -0.333978635E+02  0.161154779E+01  0.242542543E+01
   H  0.325160010E+02  0.187904445E+01 -0.245482458E+01
     4
 # iter = 64500  time[fs]=64.50000
   C -0.805904333E+01 -0.670086692E-01 -0.245922163E+00
   C  0.795666835E+01 -0.454695768E-01  0.120941294E-01
   H -0.337671974E+02  0.162920916E+01  0.245304043E+01
   H  0.328739362E+02  0.189967921E+01 -0.248187048E+01
     4
 # iter = 65000  time[fs]=65.00000
   C -0.815983604E+01 -0.681302041E-01 -0.248555764E+00
   C  0.805578987E+01 -0.463468199E-01  0.129918580E-01
   H -0.341366100E+02  0.164687467E+01  0.248066253E+01
   H  0.332319543E+02  0.192031925E+01 -0.250892356E+01
     4
 # iter = 65500  time[fs]=65.50000
   C -0.826069837E+01 -0.692521926E-01 -0.251190876E+00
   C  0.815498067E+01 -0.472243791E-01  0.138911024E-01
   H -0.345060997E+02  0.166454424E+01  0.250829161E+01
   H  0.335900537E+02  0.194096447E+01 -0.253598365E+01
     4
 # iter = 66000  time[fs]=66.00000
   C -0.836162863E+01 -0.703746252E-01 -0.253827466E+00
   C  0.825423905E+01 -0.481022484E-01  0.147918291E-01
   H -0.348756650E+02  0.168221779E+01  0.253592751E+01
   H  0.339482325E+02  0.196161476E+01 -0.256305062E+01
     4
 # iter = 66500  time[fs]=66.50000
   C -0.846262517E+01 -0.714974924E-01 -0.256465501E+00
   C  0.835356340E+01 -0.489804223E-01  0.156940057E-01
   H -0.352453043E+02  0.169989524E+01  0.256357011E+01
   H  0.343064892E+02  0.198227002E+01 -0.259012434E+01
     4
 # iter = 67000  time[fs]=67.00000
   C -0.856368642E+01 -0.726207851E-01 -0.259104951E+00
   C  0.845295214E+01 -0.498588952E-01  0.165976008E-01
   H -0.356150160E+02  0.171757650E+01  0.259121926E+01
   H  0.346648223E+02  0.200293016E+01 -0.261720466E+01
     4
 # iter = 67500  time[fs]=67.50000
   C -0.866481085E+01 -0.737444946E-01 -0.261745785E+00
   C  0.855240374E+01 -0.507376618E-01  0.175025840E-01
   H -0.359847987E+02  0.173526152E+01  0.261887484E+01
   H  0.350232301E+02  0.202359507E+01 -0.264429147E+01
     4
 # iter = 68000  time[fs]=68.00000
   C -0.876599698E+01 -0.748686123E-01 -0.264387974E+00
   C  0.865191673E+01 -0.516167168E-01  0.184089260E-01
   H -0.363546510E+02  0.175295021E+01  0.264653674E+01
   H  0.353817111E+02  0.204426467E+01 -0.267138463E+01
     4
 # iter = 68500  time[fs]=68.50000
   C -0.886724338E+01 -0.759931299E-01 -0.267031488E+00
   C  0.875148970E+01 -0.524960552E-01  0.193165982E-01
   H -0.367245715E+02  0.177064250E+01  0.267420481E+01
   H  0.357402640E+02  0.206493887E+01 -0.269848403E+01
     4
 # iter = 69000  time[fs]=69.00000
   C -0.896854870E+01 -0.771180394E-01 -0.269676301E+00
   C  0.885112128E+01 -0.533756719E-01  0.202255731E-01
   H -0.370945588E+02  0.178833833E+01  0.270187895E+01
   H  0.360988873E+02  0.208561757E+01 -0.272558954E+01
     4
 # iter = 69500  time[fs]=69.50000
   C -0.906991159E+01 -0.782433331E-01 -0.272322386E+00
   C  0.895081014E+01 -0.542555623E-01  0.211358237E-01
   H -0.374646117E+02  0.180603762E+01  0.272955905E+01
   H  0.364575797E+02  0.210630070E+01 -0.275270106E+01
     4
 # iter = 70000  time[fs]=70.00000
   C -0.917133076E+01 -0.793690034E-01 -0.274969716E+00
   C  0.905055501E+01 -0.551357215E-01  0.220473243E-01
   H -0.378347289E+02  0.182374032E+01  0.275724499E+01
   H  0.368163398E+02  0.212698818E+01 -0.277981847E+01
     4
 # iter = 70500  time[fs]=70.50000
   C -0.927280498E+01 -0.804950428E-01 -0.277618267E+00
   C  0.915035463E+01 -0.560161450E-01  0.229600496E-01
   H -0.382049092E+02  0.184144636E+01  0.278493666E+01
   H  0.371751663E+02  0.214767991E+01 -0.280694166E+01
     4
 # iter = 71000  time[fs]=71.00000
   C -0.937433304E+01 -0.816214445E-01 -0.280268014E+00
   C  0.925020782E+01 -0.568968283E-01  0.238739751E-01
   H -0.385751513E+02  0.185915567E+01  0.281263396E+01
   H  0.375340581E+02  0.216837583E+01 -0.283407053E+01
     4
 # iter = 71500  time[fs]=71.50000
   C -0.947591376E+01 -0.827482013E-01 -0.282918934E+00
   C  0.935011340E+01 -0.577777670E-01  0.247890773E-01
   H -0.389454542E+02  0.187686821E+01  0.284033678E+01
   H  0.378930138E+02  0.218907586E+01 -0.286120497E+01
     4
 # iter = 72000  time[fs]=72.00000
   C -0.957754603E+01 -0.838753066E-01 -0.285571003E+00
   C  0.945007026E+01 -0.586589569E-01  0.257053329E-01
   H -0.393158166E+02  0.189458391E+01  0.286804504E+01
   H  0.382520323E+02  0.220977992E+01 -0.288834489E+01
     4
 # iter = 72500  time[fs]=72.50000
   C -0.967922875E+01 -0.850027539E-01 -0.288224200E+00
   C  0.955007731E+01 -0.595403939E-01  0.266227197E-01
   H -0.396862376E+02  0.191230271E+01  0.289575862E+01
   H  0.386111125E+02  0.223048795E+01 -0.291549019E+01
     4
 # iter = 73000  time[fs]=73.00000
   C -0.978096086E+01 -0.861305369E-01 -0.290878501E+00
   C  0.965013349E+01 -0.604220738E-01  0.275412160E-01
   H -0.400567160E+02  0.193002456E+01  0.292347744E+01
   H  0.389702531E+02  0.225119987E+01 -0.294264077E+01
     4
 # iter = 73500  time[fs]=73.50000
   C -0.988274133E+01 -0.872586492E-01 -0.293533887E+00
   C  0.975023777E+01 -0.613039928E-01  0.284608006E-01
   H -0.404272507E+02  0.194774940E+01  0.295120140E+01
   H  0.393294533E+02  0.227191562E+01 -0.296979655E+01
     4
 # iter = 74000  time[fs]=74.00000
   C -0.998456917E+01 -0.883870851E-01 -0.296190337E+00
   C  0.985038918E+01 -0.621861470E-01  0.293814530E-01
   H -0.407978409E+02  0.196547719E+01  0.297893042E+01
   H  0.396887118E+02  0.229263512E+01 -0.299695742E+01
     4
 # iter = 74500  time[fs]=74.50000
   C -0.100864434E+02 -0.895158385E-01 -0.298847831E+00
   C  0.995058673E+01 -0.630685326E-01  0.303031533E-01
   H -0.411684855E+02  0.198320787E+01  0.300666440E+01
   H  0.400480276E+02  0.231335833E+01 -0.302412331E+01
     4
 # iter = 75000  time[fs]=75.00000
   C -0.101883631E+02 -0.906449039E-01 -0.301506350E+00
   C  0.100508295E+02 -0.639511459E-01  0.312258821E-01
   H -0.415391835E+02  0.200094140E+01  0.303440327E+01
   H  0.404073998E+02  0.233408516E+01 -0.305129413E+01
     4
 # iter = 75500  time[fs]=75.50000
   C -0.102903273E+02 -0.917742756E-01 -0.304165874E+00
   C  0.101511166E+02 -0.648339833E-01  0.321496206E-01
   H -0.419099340E+02  0.201867772E+01  0.306214694E+01
   H  0.407668274E+02  0.235481557E+01 -0.307846980E+01
     4
 # iter = 76000  time[fs]=76.00000
   C -0.103923352E+02 -0.929039484E-01 -0.306826385E+00
   C  0.102514471E+02 -0.657170414E-01  0.330743503E-01
   H -0.422807362E+02  0.203641679E+01  0.308989532E+01
   H  0.411263094E+02  0.237554948E+01 -0.310565023E+01
     4
 # iter = 76500  time[fs]=76.50000
   C -0.104943860E+02 -0.940339169E-01 -0.309487867E+00
   C  0.103518202E+02 -0.666003167E-01  0.340000535E-01
   H -0.426515890E+02  0.205415857E+01  0.311764835E+01
   H  0.414858448E+02  0.239628685E+01 -0.313283535E+01
     4
 # iter = 77000  time[fs]=77.00000
   C -0.105964787E+02 -0.951641761E-01 -0.312150300E+00
   C  0.104522351E+02 -0.674838058E-01  0.349267127E-01
   H -0.430224918E+02  0.207190300E+01  0.314540594E+01
   H  0.418454329E+02  0.241702762E+01 -0.316002508E+01
     4
 # iter = 77500  time[fs]=77.50000
   C -0.106986125E+02 -0.962947210E-01 -0.314813669E+00
   C  0.105526909E+02 -0.683675056E-01  0.358543110E-01
   H -0.433934435E+02  0.208965004E+01  0.317316802E+01
   H  0.422050726E+02  0.243777172E+01 -0.318721935E+01
     4
 # iter = 78000  time[fs]=78.00000
   C -0.108007868E+02 -0.974255467E-01 -0.317477957E+00
   C  0.106531868E+02 -0.692514127E-01  0.367828319E-01
   H -0.437644435E+02  0.210739966E+01  0.320093452E+01
   H  0.425647632E+02  0.245851911E+01 -0.321441808E+01
     4
 # iter = 78500  time[fs]=78.50000
   C -0.109030006E+02 -0.985566485E-01 -0.320143147E+00
   C  0.107537222E+02 -0.701355240E-01  0.377122594E-01
   H -0.441354908E+02  0.212515181E+01  0.322870537E+01
   H  0.429245037E+02  0.247926974E+01 -0.324162119E+01
     4
 # iter = 79000  time[fs]=79.00000
   C -0.110052534E+02 -0.996880219E-01 -0.322809225E+00
   C  0.108542962E+02 -0.710198366E-01  0.386425779E-01
   H -0.445065848E+02  0.214290645E+01  0.325648049E+01
   H  0.432842935E+02  0.250002355E+01 -0.326882863E+01
     4
 # iter = 79500  time[fs]=79.50000
   C -0.111075443E+02 -0.100819662E+00 -0.325476175E+00
   C  0.109549082E+02 -0.719043474E-01  0.395737720E-01
   H -0.448777247E+02  0.216066354E+01  0.328425981E+01
   H  0.436441316E+02  0.252078049E+01 -0.329604032E+01
     4
 # iter = 80000  time[fs]=80.00000
   C -0.112098726E+02 -0.101951565E+00 -0.328143982E+00
   C  0.110555574E+02 -0.727890534E-01  0.405058270E-01
   H -0.452489097E+02  0.217842304E+01  0.331204328E+01
   H  0.440040173E+02  0.254154051E+01 -0.332325619E+01
