     4
 # iter = 25000  time[fs]=25.00000
   C -0.989073055E+00 -0.406882451E-01 -0.238620053E-01
   C  0.100174272E+01  0.281913747E-03 -0.191875673E-01
   H -0.522026442E+01 -0.442153914E+00 -0.588054375E+00
   H  0.526098462E+01  0.417028025E+00  0.581985351E+00
     4
 # iter = 25500  time[fs]=25.50000
   C -0.103700175E+01 -0.417973051E-01 -0.227655801E-01
   C  0.104394292E+01 -0.218672389E-02 -0.220200870E-01
   H -0.556118418E+01 -0.477162203E+00 -0.630745667E+00
   H  0.556875013E+01  0.436276698E+00  0.613140029E+00
     4
 # iter = 26000  time[fs]=26.00000
   C -0.108937147E+01 -0.438803572E-01 -0.225723482E-01
   C  0.108862523E+01 -0.564056382E-02 -0.259095569E-01
   H -0.591018917E+01 -0.517807831E+00 -0.679160418E+00
   H  0.587379051E+01  0.450355817E+00  0.639222662E+00
     4
 # iter = 26500  time[fs]=26.50000
   C -0.114315795E+01 -0.442063034E-01 -0.205562052E-01
   C  0.113859681E+01 -0.697635908E-02 -0.277477984E-01
   H -0.625088198E+01 -0.547980369E+00 -0.717177690E+00
   H  0.619192529E+01  0.475336718E+00  0.676294822E+00
     4
 # iter = 27000  time[fs]=27.00000
   C -0.119794240E+01 -0.426325048E-01 -0.165793179E-01
   C  0.119372671E+01 -0.604823369E-02 -0.273841029E-01
   H -0.658221280E+01 -0.566861906E+00 -0.743971204E+00
   H  0.652370564E+01  0.511994384E+00  0.725122797E+00
     4
 # iter = 27500  time[fs]=27.50000
   C -0.125548633E+01 -0.411771071E-01 -0.126643940E-01
   C  0.125143648E+01 -0.517892664E-02 -0.271365590E-01
   H -0.691594059E+01 -0.586400339E+00 -0.771482117E+00
   H  0.685693732E+01  0.548334591E+00  0.773704566E+00
     4
 # iter = 28000  time[fs]=28.00000
   C -0.131698218E+01 -0.412671539E-01 -0.102427671E-01
   C  0.130984789E+01 -0.601279385E-02 -0.286451547E-01
   H -0.726035340E+01 -0.615046517E+00 -0.808155530E+00
   H  0.718295951E+01  0.575868082E+00  0.813544190E+00
     4
 # iter = 28500  time[fs]=28.50000
   C -0.138163413E+01 -0.423190299E-01 -0.873482316E-02
   C  0.136940587E+01 -0.789252001E-02 -0.312485358E-01
   H -0.761186978E+01 -0.649364778E+00 -0.850550660E+00
   H  0.750503937E+01  0.598005605E+00  0.848046842E+00
     4
 # iter = 29000  time[fs]=29.00000
   C -0.144782658E+01 -0.429085919E-01 -0.672012097E-02
   C  0.143153873E+01 -0.919776964E-02 -0.333226450E-01
   H -0.796195439E+01 -0.680949106E+00 -0.890256973E+00
   H  0.783144276E+01  0.623135660E+00  0.885596264E+00
     4
 # iter = 29500  time[fs]=29.50000
   C -0.151489278E+01 -0.425420319E-01 -0.370825694E-02
   C  0.149663088E+01 -0.937095362E-02 -0.343064593E-01
   H -0.830758609E+01 -0.706890174E+00 -0.924361257E+00
   H  0.816495123E+01  0.654148765E+00  0.929078740E+00
     4
 # iter = 30000  time[fs]=30.00000
   C -0.158336151E+01 -0.419042041E-01 -0.387203105E-03
   C  0.156373702E+01 -0.920149223E-02 -0.349862381E-01
   H -0.865272411E+01 -0.731243439E+00 -0.956915643E+00
   H  0.850138928E+01  0.686967770E+00  0.974413276E+00
     4
 # iter = 30500  time[fs]=30.50000
   C -0.165385706E+01 -0.417598234E-01  0.247547626E-02
   C  0.163183721E+01 -0.956915479E-02 -0.362388575E-01
   H -0.900180969E+01 -0.758534673E+00 -0.992442995E+00
   H  0.883612350E+01  0.717046963E+00  0.101705072E+01
     4
 # iter = 31000  time[fs]=31.00000
   C -0.172626209E+01 -0.421176033E-01  0.486846741E-02
   C  0.170079132E+01 -0.104881240E-01 -0.380758649E-01
   H -0.935482263E+01 -0.788819601E+00 -0.103099643E+01
   H  0.916900630E+01  0.744315946E+00  0.105691766E+01
     4
 # iter = 31500  time[fs]=31.50000
   C -0.179996140E+01 -0.424755198E-01  0.729142363E-02
   C  0.177105685E+01 -0.113876928E-01 -0.399241550E-01
   H -0.970873015E+01 -0.819133959E+00 -0.106960932E+01
   H  0.950292290E+01  0.771728195E+00  0.109696487E+01
     4
 # iter = 32000  time[fs]=32.00000
   C -0.187454150E+01 -0.425219532E-01  0.100538044E-01
   C  0.184288541E+01 -0.119144051E-01 -0.414280855E-01
   H -0.100616314E+02 -0.847638204E+00 -0.110644004E+01
   H  0.983964127E+01  0.801112933E+00  0.113901916E+01
     4
 # iter = 32500  time[fs]=32.50000
   C -0.195004082E+01 -0.423871154E-01  0.130234303E-01
   C  0.191603375E+01 -0.122197500E-01 -0.427371506E-01
   H -0.104142432E+02 -0.875103850E+00 -0.114225822E+01
   H  0.101783231E+02  0.831687464E+00  0.118229566E+01
     4
 # iter = 33000  time[fs]=33.00000
   C -0.202664649E+01 -0.423410062E-01  0.159285080E-01
   C  0.199010817E+01 -0.126147265E-01 -0.441605290E-01
   H -0.107681135E+02 -0.903128139E+00 -0.117865943E+01
   H  0.105173099E+02  0.861843745E+00  0.122518430E+01
     4
 # iter = 33500  time[fs]=33.50000
   C -0.210436220E+01 -0.424620827E-01  0.186889447E-01
   C  0.206494238E+01 -0.131908949E-01 -0.457881205E-01
   H -0.111236623E+02 -0.932175574E+00 -0.121610665E+01
   H  0.108560825E+02  0.891108230E+00  0.126720972E+01
     4
 # iter = 34000  time[fs]=34.00000
   C -0.218300387E+01 -0.426339309E-01  0.214196605E-01
   C  0.214060044E+01 -0.138166265E-01 -0.474867807E-01
   H -0.114801612E+02 -0.961558364E+00 -0.125391069E+01
   H  0.111952798E+02  0.920161346E+00  0.130905070E+01
     4
 # iter = 34500  time[fs]=34.50000
   C -0.226239649E+01 -0.427428191E-01  0.242330222E-01
   C  0.221714989E+01 -0.143631346E-01 -0.491263377E-01
   H -0.118369008E+02 -0.990604307E+00 -0.129139808E+01
   H  0.115355298E+02  0.949668602E+00  0.135137124E+01
     4
 # iter = 35000  time[fs]=35.00000
   C -0.234248568E+01 -0.427900253E-01  0.271265024E-01
   C  0.229453256E+01 -0.148330057E-01 -0.507081093E-01
   H -0.121938549E+02 -0.101932086E+01 -0.132857514E+01
   H  0.118767838E+02  0.979615941E+00  0.139415589E+01
     4
 # iter = 35500  time[fs]=35.50000
   C -0.242328499E+01 -0.428397025E-01  0.300348034E-01
   C  0.237262354E+01 -0.153005892E-01 -0.523052817E-01
   H -0.125513715E+02 -0.104808697E+01 -0.136581976E+01
   H  0.122186248E+02  0.100961806E+01  0.143701808E+01
     4
 # iter = 36000  time[fs]=36.00000
   C -0.250478304E+01 -0.429266056E-01  0.329221205E-01
   C  0.245133621E+01 -0.158064662E-01 -0.539573687E-01
   H -0.129096273E+02 -0.107710767E+01 -0.140333599E+01
   H  0.125608130E+02  0.103946420E+01  0.147974587E+01
     4
 # iter = 36500  time[fs]=36.50000
   C -0.258692200E+01 -0.430349840E-01  0.358032390E-01
   C  0.253064584E+01 -0.163333268E-01 -0.556460792E-01
   H -0.132685025E+02 -0.110628933E+01 -0.144102931E+01
   H  0.129034101E+02  0.106924294E+01  0.152242675E+01
     4
 # iter = 37000  time[fs]=37.00000
   C -0.266963603E+01 -0.431375048E-01  0.387046043E-01
   C  0.261054465E+01 -0.168505128E-01 -0.573398522E-01
   H -0.136278110E+02 -0.113546975E+01 -0.147873671E+01
   H  0.132465490E+02  0.109911184E+01  0.156521728E+01
     4
 # iter = 37500  time[fs]=37.50000
   C -0.275288296E+01 -0.432272308E-01  0.416323352E-01
   C  0.269100483E+01 -0.173506148E-01 -0.590304457E-01
   H -0.139874887E+02 -0.116460728E+01 -0.151641577E+01
   H  0.135902442E+02  0.112910821E+01  0.160815383E+01
     4
 # iter = 38000  time[fs]=38.00000
   C -0.283664033E+01 -0.433140923E-01  0.445757464E-01
   C  0.277198228E+01 -0.178454467E-01 -0.607289052E-01
   H -0.143475731E+02 -0.119375992E+01 -0.155412377E+01
   H  0.139344123E+02  0.115916994E+01  0.165117342E+01
     4
 # iter = 38500  time[fs]=38.50000
   C -0.292088695E+01 -0.434066290E-01  0.475256006E-01
   C  0.285343712E+01 -0.183451703E-01 -0.624446822E-01
   H -0.147080949E+02 -0.122297742E+01 -0.159190983E+01
   H  0.142789800E+02  0.118924344E+01  0.169422166E+01
     4
 # iter = 39000  time[fs]=39.00000
   C -0.300559490E+01 -0.435043244E-01  0.504817684E-01
   C  0.293534226E+01 -0.188495349E-01 -0.641768681E-01
   H -0.150690326E+02 -0.125225598E+01 -0.162976952E+01
   H  0.146239294E+02  0.121932899E+01  0.173729808E+01
     4
 # iter = 39500  time[fs]=39.50000
   C -0.309073443E+01 -0.436026796E-01  0.534481503E-01
   C  0.301767733E+01 -0.193536889E-01 -0.659200015E-01
   H -0.154303422E+02 -0.128156826E+01 -0.166767494E+01
   H  0.149692675E+02  0.124945068E+01  0.178042606E+01
     4
 # iter = 40000  time[fs]=40.00000
   C -0.317627996E+01 -0.436994878E-01  0.564263977E-01
   C  0.310042129E+01 -0.198553635E-01 -0.676712476E-01
   H -0.157919947E+02 -0.131090045E+01 -0.170561176E+01
   H  0.153149891E+02  0.127961924E+01  0.182361568E+01
     4
 # iter = 40500  time[fs]=40.50000
   C -0.326221074E+01 -0.437955774E-01  0.594151658E-01
   C  0.318355141E+01 -0.203557284E-01 -0.694312498E-01
   H -0.161539797E+02 -0.134025670E+01 -0.174358362E+01
   H  0.156610724E+02  0.130982766E+01  0.186685931E+01
     4
 # iter = 41000  time[fs]=41.00000
   C -0.334850805E+01 -0.438922657E-01  0.624126569E-01
   C  0.326704601E+01 -0.208564837E-01 -0.712012181E-01
   H -0.165162908E+02 -0.136964404E+01 -0.178159710E+01
   H  0.160074938E+02  0.134006620E+01  0.191014662E+01
     4
 # iter = 41500  time[fs]=41.50000
   C -0.343515353E+01 -0.439897654E-01  0.654182108E-01
   C  0.335088613E+01 -0.213580401E-01 -0.729811064E-01
   H -0.168789161E+02 -0.139906302E+01 -0.181965229E+01
   H  0.163542371E+02  0.137033181E+01  0.195347404E+01
     4
 # iter = 42000  time[fs]=42.00000
   C -0.352212936E+01 -0.440875413E-01  0.684319448E-01
   C  0.343505499E+01 -0.218599311E-01 -0.747700219E-01
   H -0.172418398E+02 -0.142850974E+01 -0.185774491E+01
   H  0.167012916E+02  0.140062601E+01  0.199684255E+01
     4
 # iter = 42500  time[fs]=42.50000
   C -0.360941906E+01 -0.441851789E-01  0.714538832E-01
   C  0.351953690E+01 -0.223618089E-01 -0.765672185E-01
   H -0.176050476E+02 -0.145798104E+01 -0.189587141E+01
   H  0.170486469E+02  0.143094973E+01  0.204025262E+01
     4
 # iter = 43000  time[fs]=43.00000
   C -0.369700761E+01 -0.442826452E-01  0.744836941E-01
   C  0.360431684E+01 -0.228637453E-01 -0.783723952E-01
   H -0.179685284E+02 -0.148747605E+01 -0.193403055E+01
   H  0.173962908E+02  0.146130175E+01  0.208370256E+01
     4
 # iter = 43500  time[fs]=43.50000
   C -0.378488111E+01 -0.443800460E-01  0.775209296E-01
   C  0.368938062E+01 -0.233659569E-01 -0.801854193E-01
   H -0.183322721E+02 -0.151699472E+01 -0.197222195E+01
   H  0.177442114E+02  0.149168013E+01  0.212719003E+01
     4
 # iter = 44000  time[fs]=44.00000
   C -0.387302653E+01 -0.444774048E-01  0.805652458E-01
   C  0.377471510E+01 -0.238685528E-01 -0.820060723E-01
   H -0.186962692E+02 -0.154653654E+01 -0.201044476E+01
   H  0.180923975E+02  0.152208352E+01  0.217071324E+01
     4
 # iter = 44500  time[fs]=44.50000
   C -0.396143157E+01 -0.445746561E-01  0.836164075E-01
   C  0.386030808E+01 -0.243715292E-01 -0.838340432E-01
   H -0.190605097E+02 -0.157610048E+01 -0.204869767E+01
   H  0.184408395E+02  0.155251118E+01  0.221427109E+01
     4
 # iter = 45000  time[fs]=45.00000
   C -0.405008469E+01 -0.446717301E-01  0.866742018E-01
   C  0.394614815E+01 -0.248748679E-01 -0.856690244E-01
   H -0.194249845E+02 -0.160568552E+01 -0.208697936E+01
   H  0.187895280E+02  0.158296247E+01  0.225786256E+01
     4
 # iter = 45500  time[fs]=45.50000
   C -0.413897512E+01 -0.447685927E-01  0.897383967E-01
   C  0.403222455E+01 -0.253785827E-01 -0.875107579E-01
   H -0.197896850E+02 -0.163529086E+01 -0.212528877E+01
   H  0.191384544E+02  0.161343660E+01  0.230148652E+01
     4
 # iter = 46000  time[fs]=46.00000
   C -0.422809275E+01 -0.448652313E-01  0.928087545E-01
   C  0.411852721E+01 -0.258827045E-01 -0.893590183E-01
   H -0.201546032E+02 -0.166491585E+01 -0.216362497E+01
   H  0.194876099E+02  0.164393272E+01  0.234514180E+01
     4
 # iter = 46500  time[fs]=46.50000
   C -0.431742808E+01 -0.449616329E-01  0.958850521E-01
   C  0.420504662E+01 -0.263872572E-01 -0.912135881E-01
   H -0.205197313E+02 -0.169455985E+01 -0.220198710E+01
   H  0.198369867E+02  0.167445004E+01  0.238882730E+01
     4
 # iter = 47000  time[fs]=47.00000
   C -0.440697216E+01 -0.450577794E-01  0.989670850E-01
   C  0.429177387E+01 -0.268922528E-01 -0.930742510E-01
   H -0.208850622E+02 -0.172422222E+01 -0.224037427E+01
   H  0.201865770E+02  0.170498788E+01  0.243254204E+01
     4
 # iter = 47500  time[fs]=47.50000
   C -0.449671656E+01 -0.451536527E-01  0.102054661E+00
   C  0.437870056E+01 -0.273976985E-01 -0.949407990E-01
   H -0.212505890E+02 -0.175390232E+01 -0.227878563E+01
   H  0.205363738E+02  0.173554557E+01  0.247628506E+01
     4
 # iter = 48000  time[fs]=48.00000
   C -0.458665334E+01 -0.452492389E-01  0.105147595E+00
   C  0.446581878E+01 -0.279036012E-01 -0.968130353E-01
   H -0.216163050E+02 -0.178359956E+01 -0.231722038E+01
   H  0.208863700E+02  0.176612247E+01  0.252005548E+01
     4
 # iter = 48500  time[fs]=48.50000
   C -0.467677499E+01 -0.453445274E-01  0.108245709E+00
   C  0.455312105E+01 -0.284099683E-01 -0.986907745E-01
   H -0.219822041E+02 -0.181331341E+01 -0.235567778E+01
   H  0.212365593E+02  0.179671799E+01  0.256385242E+01
     4
 # iter = 49000  time[fs]=49.00000
   C -0.476707445E+01 -0.454395094E-01  0.111348834E+00
   C  0.464060030E+01 -0.289168052E-01 -0.100573839E+00
   H -0.223482802E+02 -0.184304332E+01 -0.239415711E+01
   H  0.215869354E+02  0.182733154E+01  0.260767507E+01
     4
 # iter = 49500  time[fs]=49.50000
   C -0.485754500E+01 -0.455341774E-01  0.114456809E+00
   C  0.472824986E+01 -0.294241158E-01 -0.102462061E+00
   H -0.227145279E+02 -0.187278880E+01 -0.243265768E+01
   H  0.219374924E+02  0.185796256E+01  0.265152263E+01
     4
 # iter = 50000  time[fs]=50.00000
   C -0.494818030E+01 -0.456285247E-01  0.117569481E+00
   C  0.481606342E+01 -0.299319022E-01 -0.104355276E+00
   H -0.230809416E+02 -0.190254936E+01 -0.247117884E+01
   H  0.222882246E+02  0.188861052E+01  0.269539436E+01
     4
 # iter = 50500  time[fs]=50.50000
   C -0.503897437E+01 -0.457225461E-01  0.120686701E+00
   C  0.490403500E+01 -0.304401657E-01 -0.106253331E+00
   H -0.234475163E+02 -0.193232455E+01 -0.250971997E+01
   H  0.226391267E+02  0.191927493E+01  0.273928954E+01
     4
 # iter = 51000  time[fs]=51.00000
   C -0.512992149E+01 -0.458162374E-01  0.123808331E+00
   C  0.499215890E+01 -0.309489069E-01 -0.108156078E+00
   H -0.238142470E+02 -0.196211394E+01 -0.254828047E+01
   H  0.229901935E+02  0.194995530E+01  0.278320749E+01
     4
 # iter = 51500  time[fs]=51.50000
   C -0.522101627E+01 -0.459095954E-01  0.126934235E+00
   C  0.508042977E+01 -0.314581252E-01 -0.110063375E+00
   H -0.241811290E+02 -0.199191709E+01 -0.258685977E+01
   H  0.233414201E+02  0.198065118E+01  0.282714755E+01
     4
 # iter = 52000  time[fs]=52.00000
   C -0.531225359E+01 -0.460026177E-01  0.130064285E+00
   C  0.516884248E+01 -0.319678198E-01 -0.111975088E+00
   H -0.245481579E+02 -0.202173362E+01 -0.262545733E+01
   H  0.236928019E+02  0.201136211E+01  0.287110909E+01
     4
 # iter = 52500  time[fs]=52.50000
   C -0.540362856E+01 -0.460953028E-01  0.133198359E+00
   C  0.525739217E+01 -0.324779887E-01 -0.113891085E+00
   H -0.249153295E+02 -0.205156314E+01 -0.266407263E+01
   H  0.240443342E+02  0.204208767E+01  0.291509152E+01
     4
 # iter = 53000  time[fs]=53.00000
   C -0.549513654E+01 -0.461876496E-01  0.136336338E+00
   C  0.534607423E+01 -0.329886299E-01 -0.115811244E+00
   H -0.252826395E+02 -0.208140528E+01 -0.270270517E+01
   H  0.243960129E+02  0.207282747E+01  0.295909425E+01
     4
 # iter = 53500  time[fs]=53.50000
   C -0.558677314E+01 -0.462796578E-01  0.139478111E+00
   C  0.543488427E+01 -0.334997405E-01 -0.117735446E+00
   H -0.256500841E+02 -0.211125969E+01 -0.274135448E+01
   H  0.247478338E+02  0.210358110E+01  0.300311674E+01
     4
 # iter = 54000  time[fs]=54.00000
   C -0.567853414E+01 -0.463713273E-01  0.142623568E+00
   C  0.552381809E+01 -0.340113175E-01 -0.119663575E+00
   H -0.260176596E+02 -0.214112604E+01 -0.278002008E+01
   H  0.250997929E+02  0.213434821E+01  0.304715845E+01
     4
 # iter = 54500  time[fs]=54.50000
   C -0.577041554E+01 -0.464626589E-01  0.145772606E+00
   C  0.561287170E+01 -0.345233574E-01 -0.121595524E+00
   H -0.263853622E+02 -0.217100400E+01 -0.281870155E+01
   H  0.254518865E+02  0.216512842E+01  0.309121888E+01
     4
 # iter = 55000  time[fs]=55.00000
   C -0.586241352E+01 -0.465536534E-01  0.148925126E+00
   C  0.570204130E+01 -0.350358563E-01 -0.123531186E+00
   H -0.267531886E+02 -0.220089326E+01 -0.285739845E+01
   H  0.258041109E+02  0.219592141E+01  0.313529753E+01
     4
 # iter = 55500  time[fs]=55.50000
   C -0.595452442E+01 -0.466443122E-01  0.152081032E+00
   C  0.579132326E+01 -0.355488103E-01 -0.125470461E+00
   H -0.271211354E+02 -0.223079352E+01 -0.289611040E+01
   H  0.261564627E+02  0.222672682E+01  0.317939394E+01
     4
 # iter = 56000  time[fs]=56.00000
   C -0.604674478E+01 -0.467346368E-01  0.155240232E+00
   C  0.588071411E+01 -0.360622150E-01 -0.127413251E+00
   H -0.274891995E+02 -0.226070451E+01 -0.293483698E+01
   H  0.265089384E+02  0.225754436E+01  0.322350765E+01
     4
 # iter = 56500  time[fs]=56.50000
   C -0.613907125E+01 -0.468246293E-01  0.158402638E+00
   C  0.597021052E+01 -0.365760661E-01 -0.129359464E+00
   H -0.278573777E+02 -0.229062593E+01 -0.297357784E+01
   H  0.268615349E+02  0.228837371E+01  0.326763823E+01
     4
 # iter = 57000  time[fs]=57.00000
   C -0.623150067E+01 -0.469142916E-01  0.161568166E+00
   C  0.605980934E+01 -0.370903588E-01 -0.131309010E+00
   H -0.282256672E+02 -0.232055754E+01 -0.301233261E+01
   H  0.272142490E+02  0.231921457E+01  0.331178526E+01
     4
 # iter = 57500  time[fs]=57.50000
   C -0.632402997E+01 -0.470036262E-01  0.164736733E+00
   C  0.614950752E+01 -0.376050884E-01 -0.133261803E+00
   H -0.285940651E+02 -0.235049906E+01 -0.305110094E+01
   H  0.275670779E+02  0.235006667E+01  0.335594833E+01
     4
 # iter = 58000  time[fs]=58.00000
   C -0.641665625E+01 -0.470926356E-01  0.167908262E+00
   C  0.623930217E+01 -0.381202502E-01 -0.135217759E+00
   H -0.289625686E+02 -0.238045027E+01 -0.308988250E+01
   H  0.279200185E+02  0.238092972E+01  0.340012706E+01
     4
 # iter = 58500  time[fs]=58.50000
   C -0.650937671E+01 -0.471813224E-01  0.171082677E+00
   C  0.632919051E+01 -0.386358391E-01 -0.137176799E+00
   H -0.293311752E+02 -0.241041091E+01 -0.312867696E+01
   H  0.282730681E+02  0.241180348E+01  0.344432106E+01
     4
 # iter = 59000  time[fs]=59.00000
   C -0.660218869E+01 -0.472696895E-01  0.174259904E+00
   C  0.641916986E+01 -0.391518502E-01 -0.139138846E+00
   H -0.296998823E+02 -0.244038077E+01 -0.316748402E+01
   H  0.286262242E+02  0.244268767E+01  0.348852999E+01
     4
 # iter = 59500  time[fs]=59.50000
   C -0.669508960E+01 -0.473577397E-01  0.177439875E+00
   C  0.650923767E+01 -0.396682784E-01 -0.141103825E+00
   H -0.300686874E+02 -0.247035963E+01 -0.320630338E+01
   H  0.289794840E+02  0.247358207E+01  0.353275349E+01
     4
 # iter = 60000  time[fs]=60.00000
   C -0.678807699E+01 -0.474454762E-01  0.180622520E+00
   C  0.659939150E+01 -0.401851186E-01 -0.143071665E+00
   H -0.304375883E+02 -0.250034726E+01 -0.324513474E+01
   H  0.293328452E+02  0.250448642E+01  0.357699122E+01
     4
 # iter = 60500  time[fs]=60.50000
   C -0.688114849E+01 -0.475329020E-01  0.183807777E+00
   C  0.668962898E+01 -0.407023658E-01 -0.145042297E+00
   H -0.308065826E+02 -0.253034347E+01 -0.328397783E+01
   H  0.296863053E+02  0.253540051E+01  0.362124286E+01
     4
 # iter = 61000  time[fs]=61.00000
   C -0.697430183E+01 -0.476200202E-01  0.186995580E+00
   C  0.677994785E+01 -0.412200148E-01 -0.147015654E+00
   H -0.311756682E+02 -0.256034806E+01 -0.332283238E+01
   H  0.300398621E+02  0.256632410E+01  0.366550809E+01
     4
 # iter = 61500  time[fs]=61.50000
   C -0.706753483E+01 -0.477068342E-01  0.190185870E+00
   C  0.687034594E+01 -0.417380604E-01 -0.148991672E+00
   H -0.315448429E+02 -0.259036084E+01 -0.336169813E+01
   H  0.303935132E+02  0.259725700E+01  0.370978661E+01
     4
 # iter = 62000  time[fs]=62.00000
   C -0.716084540E+01 -0.477933472E-01  0.193378588E+00
   C  0.696082117E+01 -0.422564977E-01 -0.150970288E+00
   H -0.319141048E+02 -0.262038163E+01 -0.340057483E+01
   H  0.307472566E+02  0.262819899E+01  0.375407813E+01
     4
 # iter = 62500  time[fs]=62.50000
   C -0.725423151E+01 -0.478795625E-01  0.196573678E+00
   C  0.705137153E+01 -0.427753214E-01 -0.152951444E+00
   H -0.322834518E+02 -0.265041024E+01 -0.343946224E+01
   H  0.311010902E+02  0.265914986E+01  0.379838236E+01
     4
 # iter = 63000  time[fs]=63.00000
   C -0.734769122E+01 -0.479654834E-01  0.199771085E+00
   C  0.714199507E+01 -0.432945267E-01 -0.154935080E+00
   H -0.326528820E+02 -0.268044650E+01 -0.347836011E+01
   H  0.314550119E+02  0.269010944E+01  0.384269903E+01
     4
 # iter = 63500  time[fs]=63.50000
   C -0.744122266E+01 -0.480511133E-01  0.202970756E+00
   C  0.723268994E+01 -0.438141083E-01 -0.156921142E+00
   H -0.330223936E+02 -0.271049026E+01 -0.351726823E+01
   H  0.318090199E+02  0.272107753E+01  0.388702787E+01
     4
 # iter = 64000  time[fs]=64.00000
   C -0.753482403E+01 -0.481364555E-01  0.206172640E+00
   C  0.732345435E+01 -0.443340614E-01 -0.158909573E+00
   H -0.333919848E+02 -0.274054134E+01 -0.355618637E+01
   H  0.321631122E+02  0.275205396E+01  0.393136862E+01
     4
 # iter = 64500  time[fs]=64.50000
   C -0.762849360E+01 -0.482215135E-01  0.209376688E+00
   C  0.741428657E+01 -0.448543810E-01 -0.160900323E+00
   H -0.337616539E+02 -0.277059959E+01 -0.359511432E+01
   H  0.325172871E+02  0.278303854E+01  0.397572104E+01
     4
 # iter = 65000  time[fs]=65.00000
   C -0.772222969E+01 -0.483062905E-01  0.212582852E+00
   C  0.750518493E+01 -0.453750622E-01 -0.162893341E+00
   H -0.341313992E+02 -0.280066486E+01 -0.363405187E+01
   H  0.328715427E+02  0.281403110E+01  0.402008488E+01
     4
 # iter = 65500  time[fs]=65.50000
   C -0.781603070E+01 -0.483907899E-01  0.215791085E+00
   C  0.759614783E+01 -0.458961000E-01 -0.164888577E+00
   H -0.345012191E+02 -0.283073700E+01 -0.367299883E+01
   H  0.332258773E+02  0.284503149E+01  0.406445990E+01
     4
 # iter = 66000  time[fs]=66.00000
   C -0.790989505E+01 -0.484750151E-01  0.219001344E+00
   C  0.768717372E+01 -0.464174898E-01 -0.166885983E+00
   H -0.348711120E+02 -0.286081587E+01 -0.371195500E+01
   H  0.335802894E+02  0.287603955E+01  0.410884589E+01
     4
 # iter = 66500  time[fs]=66.50000
   C -0.800382126E+01 -0.485589695E-01  0.222213584E+00
   C  0.777826110E+01 -0.469392268E-01 -0.168885515E+00
   H -0.352410765E+02 -0.289090134E+01 -0.375092020E+01
   H  0.339347773E+02  0.290705511E+01  0.415324262E+01
     4
 # iter = 67000  time[fs]=67.00000
   C -0.809780787E+01 -0.486426562E-01  0.225427764E+00
   C  0.786940854E+01 -0.474613063E-01 -0.170887126E+00
   H -0.356111110E+02 -0.292099327E+01 -0.378989423E+01
   H  0.342893394E+02  0.293807803E+01  0.419764987E+01
     4
 # iter = 67500  time[fs]=67.50000
   C -0.819185348E+01 -0.487260787E-01  0.228643842E+00
   C  0.796061463E+01 -0.479837236E-01 -0.172890774E+00
   H -0.359812141E+02 -0.295109153E+01 -0.382887693E+01
   H  0.346439742E+02  0.296910816E+01  0.424206744E+01
     4
 # iter = 68000  time[fs]=68.00000
   C -0.828595674E+01 -0.488092401E-01  0.231861781E+00
   C  0.805187803E+01 -0.485064742E-01 -0.174896418E+00
   H -0.363513844E+02 -0.298119599E+01 -0.386786812E+01
   H  0.349986804E+02  0.300014537E+01  0.428649513E+01
     4
 # iter = 68500  time[fs]=68.50000
   C -0.838011634E+01 -0.488921437E-01  0.235081540E+00
   C  0.814319744E+01 -0.490295535E-01 -0.176904015E+00
   H -0.367216206E+02 -0.301130653E+01 -0.390686764E+01
   H  0.353534564E+02  0.303118951E+01  0.433093274E+01
     4
 # iter = 69000  time[fs]=69.00000
   C -0.847433101E+01 -0.489747928E-01  0.238303084E+00
   C  0.823457160E+01 -0.495529572E-01 -0.178913527E+00
   H -0.370919215E+02 -0.304142304E+01 -0.394587533E+01
   H  0.357083009E+02  0.306224045E+01  0.437538009E+01
     4
 # iter = 69500  time[fs]=69.50000
   C -0.856859953E+01 -0.490571904E-01  0.241526375E+00
   C  0.832599929E+01 -0.500766808E-01 -0.180924915E+00
   H -0.374622856E+02 -0.307154540E+01 -0.398489102E+01
   H  0.360632125E+02  0.309329807E+01  0.441983698E+01
     4
 # iter = 70000  time[fs]=70.00000
   C -0.866292071E+01 -0.491393398E-01  0.244751380E+00
   C  0.841747933E+01 -0.506007200E-01 -0.182938143E+00
   H -0.378327119E+02 -0.310167350E+01 -0.402391457E+01
   H  0.364181900E+02  0.312436223E+01  0.446430324E+01
     4
 # iter = 70500  time[fs]=70.50000
   C -0.875729341E+01 -0.492212440E-01  0.247978065E+00
   C  0.850901058E+01 -0.511250705E-01 -0.184953174E+00
   H -0.382031990E+02 -0.313180723E+01 -0.406294583E+01
   H  0.367732321E+02  0.315543281E+01  0.450877869E+01
     4
 # iter = 71000  time[fs]=71.00000
   C -0.885171653E+01 -0.493029062E-01  0.251206395E+00
   C  0.860059194E+01 -0.516497281E-01 -0.186969972E+00
   H -0.385737459E+02 -0.316194649E+01 -0.410198465E+01
   H  0.371283376E+02  0.318650970E+01  0.455326317E+01
     4
 # iter = 71500  time[fs]=71.50000
   C -0.894618897E+01 -0.493843293E-01  0.254436341E+00
   C  0.869222233E+01 -0.521746888E-01 -0.188988505E+00
   H -0.389443515E+02 -0.319209116E+01 -0.414103090E+01
   H  0.374835053E+02  0.321759278E+01  0.459775650E+01
     4
 # iter = 72000  time[fs]=72.00000
   C -0.904070971E+01 -0.494655164E-01  0.257667869E+00
   C  0.878390073E+01 -0.526999483E-01 -0.191008739E+00
   H -0.393150145E+02 -0.322224116E+01 -0.418008443E+01
   H  0.378387340E+02  0.324868194E+01  0.464225854E+01
     4
 # iter = 72500  time[fs]=72.50000
   C -0.913527773E+01 -0.495464704E-01  0.260900951E+00
   C  0.887562612E+01 -0.532255028E-01 -0.193030641E+00
   H -0.396857340E+02 -0.325239639E+01 -0.421914512E+01
   H  0.381940226E+02  0.327977707E+01  0.468676912E+01
     4
 # iter = 73000  time[fs]=73.00000
   C -0.922989206E+01 -0.496271943E-01  0.264135557E+00
   C  0.896739754E+01 -0.537513483E-01 -0.195054181E+00
   H -0.400565090E+02 -0.328255674E+01 -0.425821284E+01
   H  0.385493700E+02  0.331087806E+01  0.473128809E+01
     4
 # iter = 73500  time[fs]=73.50000
   C -0.932455174E+01 -0.497076910E-01  0.267371658E+00
   C  0.905921403E+01 -0.542774809E-01 -0.197079328E+00
   H -0.404273384E+02 -0.331272214E+01 -0.429728747E+01
   H  0.389047751E+02  0.334198480E+01  0.477581530E+01
     4
 # iter = 74000  time[fs]=74.00000
   C -0.941925585E+01 -0.497879633E-01  0.270609226E+00
   C  0.915107468E+01 -0.548038968E-01 -0.199106053E+00
   H -0.407982212E+02 -0.334289248E+01 -0.433636887E+01
   H  0.392602370E+02  0.337309720E+01  0.482035061E+01
     4
 # iter = 74500  time[fs]=74.50000
   C -0.951400350E+01 -0.498680140E-01  0.273848235E+00
   C  0.924297861E+01 -0.553305922E-01 -0.201134326E+00
   H -0.411691565E+02 -0.337306769E+01 -0.437545693E+01
   H  0.396157545E+02  0.340421516E+01  0.486489388E+01
     4
 # iter = 75000  time[fs]=75.00000
   C -0.960879383E+01 -0.499478459E-01  0.277088659E+00
   C  0.933492495E+01 -0.558575634E-01 -0.203164120E+00
   H -0.415401434E+02 -0.340324768E+01 -0.441455154E+01
   H  0.399713268E+02  0.343533859E+01  0.490944498E+01
     4
 # iter = 75500  time[fs]=75.50000
   C -0.970362599E+01 -0.500274617E-01  0.280330471E+00
   C  0.942691286E+01 -0.563848068E-01 -0.205195407E+00
   H -0.419111809E+02 -0.343343236E+01 -0.445365258E+01
   H  0.403269529E+02  0.346646738E+01  0.495400376E+01
     4
 # iter = 76000  time[fs]=76.00000
   C -0.979849916E+01 -0.501068642E-01  0.283573647E+00
   C  0.951894153E+01 -0.569123188E-01 -0.207228161E+00
   H -0.422822683E+02 -0.346362166E+01 -0.449275995E+01
   H  0.406826317E+02  0.349760146E+01  0.499857010E+01
     4
 # iter = 76500  time[fs]=76.50000
   C -0.989341255E+01 -0.501860559E-01  0.286818163E+00
   C  0.961101017E+01 -0.574400959E-01 -0.209262356E+00
   H -0.426534045E+02 -0.349381550E+01 -0.453187353E+01
   H  0.410383625E+02  0.352874072E+01  0.504314387E+01
     4
 # iter = 77000  time[fs]=77.00000
   C -0.998836539E+01 -0.502650396E-01  0.290063994E+00
   C  0.970311801E+01 -0.579681347E-01 -0.211297967E+00
   H -0.430245888E+02 -0.352401380E+01 -0.457099322E+01
   H  0.413941444E+02  0.355988508E+01  0.508772495E+01
     4
 # iter = 77500  time[fs]=77.50000
   C -0.100833569E+02 -0.503438177E-01  0.293311119E+00
   C  0.979526431E+01 -0.584964317E-01 -0.213334969E+00
   H -0.433958204E+02 -0.355421648E+01 -0.461011893E+01
   H  0.417499764E+02  0.359103447E+01  0.513231322E+01
     4
 # iter = 78000  time[fs]=78.00000
   C -0.101783864E+02 -0.504223929E-01  0.296559515E+00
   C  0.988744833E+01 -0.590249836E-01 -0.215373339E+00
   H -0.437670985E+02 -0.358442348E+01 -0.464925054E+01
   H  0.421058577E+02  0.362218879E+01  0.517690857E+01
     4
 # iter = 78500  time[fs]=78.50000
   C -0.102734532E+02 -0.505007676E-01  0.299809159E+00
   C  0.997966938E+01 -0.595537871E-01 -0.217413053E+00
   H -0.441384223E+02 -0.361463472E+01 -0.468838797E+01
   H  0.424617876E+02  0.365334797E+01  0.522151086E+01
     4
 # iter = 79000  time[fs]=79.00000
   C -0.103685565E+02 -0.505789443E-01  0.303060031E+00
   C  0.100719268E+02 -0.600828390E-01 -0.219454088E+00
   H -0.445097910E+02 -0.364485014E+01 -0.472753112E+01
   H  0.428177652E+02  0.368451193E+01  0.526612001E+01
     4
 # iter = 79500  time[fs]=79.50000
   C -0.104636958E+02 -0.506569255E-01  0.306312110E+00
   C  0.101642198E+02 -0.606121360E-01 -0.221496422E+00
   H -0.448812039E+02 -0.367506966E+01 -0.476667989E+01
   H  0.431737897E+02  0.371568059E+01  0.531073589E+01
     4
 # iter = 80000  time[fs]=80.00000
   C -0.105588702E+02 -0.507347134E-01  0.309565376E+00
   C  0.102565479E+02 -0.611416752E-01 -0.223540034E+00
   H -0.452526603E+02 -0.370529322E+01 -0.480583421E+01
   H  0.435298604E+02  0.374685388E+01  0.535535839E+01
