     4
 # iter = 25000  time[fs]=25.00000
   C -0.939283599E+00  0.108346505E-01 -0.234995260E-01
   C  0.105163476E+01  0.667417777E-02  0.368394693E-01
   H -0.527976217E+01 -0.515282711E+00  0.427113740E+00
   H  0.537824183E+01  0.683716653E+00 -0.435212371E+00
     4
 # iter = 25500  time[fs]=25.50000
   C -0.983503115E+00  0.118899671E-01 -0.261715220E-01
   C  0.109632680E+01  0.317845130E-02  0.375071389E-01
   H -0.561656562E+01 -0.554850128E+00  0.447108822E+00
   H  0.568708988E+01  0.717875416E+00 -0.472933473E+00
     4
 # iter = 26000  time[fs]=26.00000
   C -0.103209153E+01  0.120549873E-01 -0.298743752E-01
   C  0.114343890E+01 -0.138091987E-02  0.372592140E-01
   H -0.596135582E+01 -0.600104747E+00  0.461927567E+00
   H  0.599312424E+01  0.746982021E+00 -0.516307472E+00
     4
 # iter = 26500  time[fs]=26.50000
   C -0.108203282E+01  0.140559005E-01 -0.318761281E-01
   C  0.119575428E+01 -0.392808634E-02  0.391657106E-01
   H -0.629775074E+01 -0.634926313E+00  0.487631733E+00
   H  0.631217679E+01  0.787096821E+00 -0.549214731E+00
     4
 # iter = 27000  time[fs]=27.00000
   C -0.113291667E+01  0.180297832E-01 -0.320334729E-01
   C  0.125314906E+01 -0.431274008E-02  0.433702711E-01
   H -0.662471415E+01 -0.658492442E+00  0.524996240E+00
   H  0.664481003E+01  0.838984654E+00 -0.570837741E+00
     4
 # iter = 27500  time[fs]=27.50000
   C -0.118651303E+01  0.219524903E-01 -0.323640699E-01
   C  0.131307752E+01 -0.482673432E-02  0.475738708E-01
   H -0.695401783E+01 -0.682750956E+00  0.562034423E+00
   H  0.697884021E+01  0.890641882E+00 -0.593133054E+00
     4
 # iter = 28000  time[fs]=28.00000
   C -0.124402156E+01  0.243914705E-01 -0.342938244E-01
   C  0.137368586E+01 -0.709123985E-02  0.501480996E-01
   H -0.729395991E+01 -0.716152087E+00  0.590262601E+00
   H  0.730561496E+01  0.933571182E+00 -0.624557422E+00
     4
 # iter = 28500  time[fs]=28.50000
   C -0.130465200E+01  0.259258105E-01 -0.372369665E-01
   C  0.143541767E+01 -0.104510711E-01  0.517410984E-01
   H -0.764096523E+01 -0.755256457E+00  0.613090318E+00
   H  0.762840779E+01  0.971176783E+00 -0.661672447E+00
     4
 # iter = 29000  time[fs]=29.00000
   C -0.136679315E+01  0.279757405E-01 -0.397667100E-01
   C  0.149968867E+01 -0.132988356E-01  0.539534605E-01
   H -0.798650250E+01 -0.791653210E+00  0.638901990E+00
   H  0.795548941E+01  0.101184171E+01 -0.696065747E+00
     4
 # iter = 29500  time[fs]=29.50000
   C -0.142978228E+01  0.310311977E-01 -0.413868238E-01
   C  0.156688149E+01 -0.150787412E-01  0.573344134E-01
   H -0.832755488E+01 -0.822430069E+00  0.670586979E+00
   H  0.828964559E+01  0.105845148E+01 -0.724825644E+00
     4
 # iter = 30000  time[fs]=30.00000
   C -0.149415200E+01  0.344034061E-01 -0.427801141E-01
   C  0.163606293E+01 -0.165677628E-01  0.611006893E-01
   H -0.866808667E+01 -0.851641809E+00  0.704070710E+00
   H  0.862670460E+01  0.110692422E+01 -0.752010322E+00
     4
 # iter = 30500  time[fs]=30.50000
   C -0.156052996E+01  0.373240171E-01 -0.447092951E-01
   C  0.170622563E+01 -0.186325771E-01  0.643796632E-01
   H -0.901254357E+01 -0.883813865E+00  0.734810312E+00
   H  0.896203628E+01  0.115270998E+01 -0.782148537E+00
     4
 # iter = 31000  time[fs]=31.00000
   C -0.162880140E+01  0.397812223E-01 -0.471808741E-01
   C  0.177723220E+01 -0.212839617E-01  0.671549998E-01
   H -0.936090820E+01 -0.919000498E+00  0.762735847E+00
   H  0.929549577E+01  0.119573471E+01 -0.815295588E+00
     4
 # iter = 31500  time[fs]=31.50000
   C -0.169835314E+01  0.422743875E-01 -0.496905226E-01
   C  0.184953617E+01 -0.239544271E-01  0.699890165E-01
   H -0.971014953E+01 -0.954235258E+00  0.790799616E+00
   H  0.962997058E+01  0.123894870E+01 -0.848484514E+00
     4
 # iter = 32000  time[fs]=32.00000
   C -0.176877348E+01  0.451126598E-01 -0.519244706E-01
   C  0.192338717E+01 -0.262916422E-01  0.732292283E-01
   H -0.100583683E+02 -0.987676868E+00  0.820830200E+00
   H  0.996723063E+01  0.128417829E+01 -0.879873961E+00
     4
 # iter = 32500  time[fs]=32.50000
   C -0.184010246E+01  0.481634371E-01 -0.540110296E-01
   C  0.199854521E+01 -0.284429881E-01  0.767237708E-01
   H -0.104062834E+02 -0.102009598E+01  0.852045578E+00
   H  0.103064393E+02  0.133063808E+01 -0.910235644E+00
     4
 # iter = 33000  time[fs]=33.00000
   C -0.191252869E+01  0.511544895E-01 -0.562184515E-01
   C  0.207462129E+01 -0.307138434E-01  0.801631018E-01
   H -0.107554448E+02 -0.105308931E+01  0.882838792E+00
   H  0.106459396E+02  0.137671755E+01 -0.941167629E+00
     4
 # iter = 33500  time[fs]=33.50000
   C -0.198605702E+01  0.540053792E-01 -0.586234867E-01
   C  0.215145128E+01 -0.331927209E-01  0.834548533E-01
   H -0.111062739E+02 -0.108712060E+01  0.912736796E+00
   H  0.109852136E+02  0.142194092E+01 -0.973134370E+00
     4
 # iter = 34000  time[fs]=34.00000
   C -0.206050436E+01  0.568307718E-01 -0.611080530E-01
   C  0.222909879E+01 -0.357475387E-01  0.867275401E-01
   H -0.114580433E+02 -0.112150103E+01  0.942419902E+00
   H  0.113249014E+02  0.146698660E+01 -0.100544714E+01
     4
 # iter = 34500  time[fs]=34.50000
   C -0.213569650E+01  0.597428025E-01 -0.635568513E-01
   C  0.230763084E+01 -0.382491864E-01  0.901069706E-01
   H -0.118100444E+02 -0.115555747E+01  0.972553492E+00
   H  0.116656320E+02  0.151251827E+01 -0.103743285E+01
     4
 # iter = 35000  time[fs]=35.00000
   C -0.221157980E+01  0.627386965E-01 -0.659697271E-01
   C  0.238699001E+01 -0.406986475E-01  0.935891021E-01
   H -0.121622520E+02 -0.118929667E+01  0.100312370E+01
   H  0.120073576E+02  0.155852016E+01 -0.106909861E+01
     4
 # iter = 35500  time[fs]=35.50000
   C -0.228816846E+01  0.657529081E-01 -0.684095136E-01
   C  0.246705284E+01 -0.431680213E-01  0.970989999E-01
   H -0.125150150E+02 -0.122309706E+01  0.103374560E+01
   H  0.123496621E+02  0.160460540E+01 -0.110082331E+01
     4
 # iter = 36000  time[fs]=36.00000
   C -0.236545168E+01  0.687494119E-01 -0.709097222E-01
   C  0.254773366E+01 -0.456961225E-01  0.100595221E+00
   H -0.128685108E+02 -0.125716315E+01  0.106420869E+01
   H  0.126923062E+02  0.165056175E+01 -0.113281182E+01
     4
 # iter = 36500  time[fs]=36.50000
   C -0.244337208E+01  0.717428060E-01 -0.734534234E-01
   C  0.262900806E+01 -0.482646079E-01  0.104093671E+00
   H -0.132226203E+02 -0.129140072E+01  0.109460168E+01
   H  0.130353523E+02  0.169647647E+01 -0.116497010E+01
     4
 # iter = 37000  time[fs]=37.00000
   C -0.252186425E+01  0.747593667E-01 -0.760121773E-01
   C  0.271086832E+01 -0.508420275E-01  0.107623539E+00
   H -0.135771577E+02 -0.132564704E+01  0.112508217E+01
   H  0.133789339E+02  0.174250587E+01 -0.119713555E+01
     4
 # iter = 37500  time[fs]=37.50000
   C -0.260088636E+01  0.778050508E-01 -0.785780172E-01
   C  0.279328693E+01 -0.534200150E-01  0.111191087E+00
   H -0.139320595E+02 -0.135985996E+01  0.115568760E+01
   H  0.137230658E+02  0.178868611E+01 -0.122926617E+01
     4
 # iter = 38000  time[fs]=38.00000
   C -0.268041628E+01  0.808690181E-01 -0.811599152E-01
   C  0.287622021E+01 -0.560092984E-01  0.114783633E+00
   H -0.142873638E+02 -0.139409707E+01  0.118635600E+01
   H  0.140676653E+02  0.183495399E+01 -0.126141973E+01
     4
 # iter = 38500  time[fs]=38.50000
   C -0.276043309E+01  0.839418876E-01 -0.837655139E-01
   C  0.295962867E+01 -0.586190434E-01  0.118390190E+00
   H -0.146431015E+02 -0.142840774E+01  0.121703392E+01
   H  0.144126595E+02  0.188125493E+01 -0.129364577E+01
     4
 # iter = 39000  time[fs]=39.00000
   C -0.284090913E+01  0.870233998E-01 -0.863934533E-01
   C  0.304348546E+01 -0.612481811E-01  0.122010133E+00
   H -0.149992515E+02 -0.146278778E+01  0.124772176E+01
   H  0.147580308E+02  0.192758826E+01 -0.132594022E+01
     4
 # iter = 39500  time[fs]=39.50000
   C -0.292181484E+01  0.901173352E-01 -0.890384428E-01
   C  0.312777037E+01 -0.638911509E-01  0.125647440E+00
   H -0.153557702E+02 -0.149720948E+01  0.127844367E+01
   H  0.151037864E+02  0.197397721E+01 -0.135827547E+01
     4
 # iter = 40000  time[fs]=40.00000
   C -0.300312486E+01  0.932252336E-01 -0.916975335E-01
   C  0.321246252E+01 -0.665450012E-01  0.129303585E+00
   H -0.157126286E+02 -0.153165871E+01  0.130921050E+01
   H  0.154499216E+02  0.202043169E+01 -0.139063748E+01
     4
 # iter = 40500  time[fs]=40.50000
   C -0.308481858E+01  0.963456451E-01 -0.943708580E-01
   C  0.329753936E+01 -0.692102311E-01  0.132976687E+00
   H -0.160698170E+02 -0.156613930E+01  0.134001531E+01
   H  0.157964148E+02  0.206694391E+01 -0.142303018E+01
     4
 # iter = 41000  time[fs]=41.00000
   C -0.316687744E+01  0.994766739E-01 -0.970590804E-01
   C  0.338297937E+01 -0.718879093E-01  0.136664387E+00
   H -0.164273290E+02 -0.160065800E+01  0.137084845E+01
   H  0.161432426E+02  0.211350341E+01 -0.145546041E+01
     4
 # iter = 41500  time[fs]=41.50000
   C -0.324928321E+01  0.102617569E+00 -0.997617987E-01
   C  0.346876372E+01 -0.745778705E-01  0.140365639E+00
   H -0.167851528E+02 -0.163521506E+01  0.140170695E+01
   H  0.164903891E+02  0.216010647E+01 -0.148792848E+01
     4
 # iter = 42000  time[fs]=42.00000
   C -0.333201819E+01  0.105768362E+00 -0.102477899E+00
   C  0.355487576E+01 -0.772791195E-01  0.144080303E+00
   H -0.171432729E+02 -0.166980634E+01  0.143259240E+01
   H  0.168378439E+02  0.220675397E+01 -0.152043031E+01
     4
 # iter = 42500  time[fs]=42.50000
   C -0.341506601E+01  0.108928998E+00 -0.105206424E+00
   C  0.364129989E+01 -0.799908133E-01  0.147808158E+00
   H -0.175016754E+02 -0.170442845E+01  0.146350579E+01
   H  0.171855965E+02  0.225344622E+01 -0.155296257E+01
     4
 # iter = 43000  time[fs]=43.00000
   C -0.349841172E+01  0.112099071E+00 -0.107946824E+00
   C  0.372802117E+01 -0.827125558E-01  0.151548597E+00
   H -0.178603489E+02 -0.173908025E+01  0.149444597E+01
   H  0.175336352E+02  0.230018144E+01 -0.158552419E+01
     4
 # iter = 43500  time[fs]=43.50000
   C -0.358204154E+01  0.115278063E+00 -0.110698724E+00
   C  0.381502551E+01 -0.854441234E-01  0.155300903E+00
   H -0.182192838E+02 -0.177376150E+01  0.152541106E+01
   H  0.178819480E+02  0.234695717E+01 -0.161811495E+01
     4
 # iter = 44000  time[fs]=44.00000
   C -0.366594249E+01  0.118465565E+00 -0.113461690E+00
   C  0.390229983E+01 -0.881852132E-01  0.159064493E+00
   H -0.185784706E+02 -0.180847147E+01  0.155639978E+01
   H  0.182305241E+02  0.239377154E+01 -0.165073419E+01
     4
 # iter = 44500  time[fs]=44.50000
   C -0.375010234E+01  0.121661280E+00 -0.116235223E+00
   C  0.398983201E+01 -0.909354358E-01  0.162838921E+00
   H -0.189378995E+02 -0.184320895E+01  0.158741142E+01
   H  0.185793538E+02  0.244062332E+01 -0.168338072E+01
     4
 # iter = 45000  time[fs]=45.00000
   C -0.383450963E+01  0.124864937E+00 -0.119018847E+00
   C  0.407761068E+01 -0.936944101E-01  0.166623780E+00
   H -0.192975613E+02 -0.187797272E+01  0.161844540E+01
   H  0.189284281E+02  0.248751141E+01 -0.171605336E+01
     4
 # iter = 45500  time[fs]=45.50000
   C -0.391915362E+01  0.128076250E+00 -0.121812141E+00
   C  0.416562516E+01 -0.964618086E-01  0.170418653E+00
   H -0.196574478E+02 -0.191276181E+01  0.164950098E+01
   H  0.192777382E+02  0.253443460E+01 -0.174875118E+01
     4
 # iter = 46000  time[fs]=46.00000
   C -0.400402425E+01  0.131294930E+00 -0.124614727E+00
   C  0.425386540E+01 -0.992373399E-01  0.174223129E+00
   H -0.200175508E+02 -0.194757540E+01  0.168057736E+01
   H  0.196272757E+02  0.258139163E+01 -0.178147338E+01
     4
 # iter = 46500  time[fs]=46.50000
   C -0.408911208E+01  0.134520706E+00 -0.127426245E+00
   C  0.434232196E+01 -0.102020724E+00  0.178036823E+00
   H -0.203778628E+02 -0.198241270E+01  0.171167379E+01
   H  0.199770326E+02  0.262838133E+01 -0.181421919E+01
     4
 # iter = 47000  time[fs]=47.00000
   C -0.417440820E+01  0.137753327E+00 -0.130246348E+00
   C  0.443098595E+01 -0.104811687E+00  0.181859380E+00
   H -0.207383767E+02 -0.201727290E+01  0.174278962E+01
   H  0.203270015E+02  0.267540261E+01 -0.184698785E+01
     4
 # iter = 47500  time[fs]=47.50000
   C -0.425990421E+01  0.140992558E+00 -0.133074707E+00
   C  0.451984902E+01 -0.107609963E+00  0.185690467E+00
   H -0.210990856E+02 -0.205215524E+01  0.177392423E+01
   H  0.206771752E+02  0.272245448E+01 -0.187977859E+01
     4
 # iter = 48000  time[fs]=48.00000
   C -0.434559220E+01  0.144238173E+00 -0.135911011E+00
   C  0.460890327E+01 -0.110415306E+00  0.189529769E+00
   H -0.214599830E+02 -0.208705899E+01  0.180507703E+01
   H  0.210275470E+02  0.276953596E+01 -0.191259072E+01
     4
 # iter = 48500  time[fs]=48.50000
   C -0.443146471E+01  0.147489957E+00 -0.138754967E+00
   C  0.469814127E+01 -0.113227478E+00  0.193376984E+00
   H -0.218210628E+02 -0.212198346E+01  0.183624744E+01
   H  0.213781105E+02  0.281664612E+01 -0.194542356E+01
     4
 # iter = 49000  time[fs]=49.00000
   C -0.451751467E+01  0.150747703E+00 -0.141606300E+00
   C  0.478755597E+01 -0.116046256E+00  0.197231826E+00
   H -0.221823190E+02 -0.215692801E+01  0.186743491E+01
   H  0.217288594E+02  0.286378408E+01 -0.197827649E+01
     4
 # iter = 49500  time[fs]=49.50000
   C -0.460373543E+01  0.154011215E+00 -0.144464746E+00
   C  0.487714073E+01 -0.118871425E+00  0.201094026E+00
   H -0.225437462E+02 -0.219189201E+01  0.189863891E+01
   H  0.220797879E+02  0.291094898E+01 -0.201114889E+01
     4
 # iter = 50000  time[fs]=50.00000
   C -0.469012065E+01  0.157280308E+00 -0.147330056E+00
   C  0.496688925E+01 -0.121702782E+00  0.204963328E+00
   H -0.229053388E+02 -0.222687487E+01  0.192985896E+01
   H  0.224308905E+02  0.295814002E+01 -0.204404019E+01
     4
 # iter = 50500  time[fs]=50.50000
   C -0.477666436E+01  0.160554802E+00 -0.150201993E+00
   C  0.505679557E+01 -0.124540130E+00  0.208839487E+00
   H -0.232670919E+02 -0.226187602E+01  0.196109458E+01
   H  0.227821619E+02  0.300535643E+01 -0.207694982E+01
     4
 # iter = 51000  time[fs]=51.00000
   C -0.486336088E+01  0.163834529E+00 -0.153080332E+00
   C  0.514685403E+01 -0.127383283E+00  0.212722273E+00
   H -0.236290006E+02 -0.229689492E+01  0.199234531E+01
   H  0.231335968E+02  0.305259747E+01 -0.210987727E+01
     4
 # iter = 51500  time[fs]=51.50000
   C -0.495020484E+01  0.167119325E+00 -0.155964859E+00
   C  0.523705927E+01 -0.130232063E+00  0.216611466E+00
   H -0.239910602E+02 -0.233193106E+01  0.202361072E+01
   H  0.234851906E+02  0.309986244E+01 -0.214282201E+01
     4
 # iter = 52000  time[fs]=52.00000
   C -0.503719111E+01  0.170409036E+00 -0.158855370E+00
   C  0.532740619E+01 -0.133086301E+00  0.220506856E+00
   H -0.243532663E+02 -0.236698393E+01  0.205489040E+01
   H  0.238369385E+02  0.314715065E+01 -0.217578357E+01
     4
 # iter = 52500  time[fs]=52.50000
   C -0.512431484E+01  0.173703513E+00 -0.161751672E+00
   C  0.541788995E+01 -0.135945832E+00  0.224408243E+00
   H -0.247156147E+02 -0.240205306E+01  0.208618393E+01
   H  0.241888361E+02  0.319446146E+01 -0.220876148E+01
     4
 # iter = 53000  time[fs]=53.00000
   C -0.521157141E+01  0.177002614E+00 -0.164653579E+00
   C  0.550850593E+01 -0.138810502E+00  0.228315438E+00
   H -0.250781013E+02 -0.243713800E+01  0.211749095E+01
   H  0.245408791E+02  0.324179425E+01 -0.224175529E+01
     4
 # iter = 53500  time[fs]=53.50000
   C -0.529895641E+01  0.180306203E+00 -0.167560915E+00
   C  0.559924977E+01 -0.141680161E+00  0.232228258E+00
   H -0.254407221E+02 -0.247223832E+01  0.214881108E+01
   H  0.248930635E+02  0.328914842E+01 -0.227476457E+01
     4
 # iter = 54000  time[fs]=54.00000
   C -0.538646565E+01  0.183614150E+00 -0.170473512E+00
   C  0.569011727E+01 -0.144554666E+00  0.236146530E+00
   H -0.258034735E+02 -0.250735358E+01  0.218014397E+01
   H  0.252453853E+02  0.333652340E+01 -0.230778891E+01
     4
 # iter = 54500  time[fs]=54.50000
   C -0.547409514E+01  0.186926330E+00 -0.173391209E+00
   C  0.578110447E+01 -0.147433880E+00  0.240070088E+00
   H -0.261663519E+02 -0.254248340E+01  0.221148929E+01
   H  0.255978408E+02  0.338391864E+01 -0.234082791E+01
     4
 # iter = 55000  time[fs]=55.00000
   C -0.556184107E+01  0.190242623E+00 -0.176313852E+00
   C  0.587220755E+01 -0.150317671E+00  0.243998775E+00
   H -0.265293538E+02 -0.257762739E+01  0.224284671E+01
   H  0.259504264E+02  0.343133362E+01 -0.237388120E+01
     4
 # iter = 55500  time[fs]=55.50000
   C -0.564969981E+01  0.193562916E+00 -0.179241295E+00
   C  0.596342291E+01 -0.153205913E+00  0.247932438E+00
   H -0.268924759E+02 -0.261278517E+01  0.227421591E+01
   H  0.263031386E+02  0.347876781E+01 -0.240694840E+01
     4
 # iter = 56000  time[fs]=56.00000
   C -0.573766786E+01  0.196887096E+00 -0.182173396E+00
   C  0.605474707E+01 -0.156098484E+00  0.251870934E+00
   H -0.272557152E+02 -0.264795640E+01  0.230559661E+01
   H  0.266559741E+02  0.352622075E+01 -0.244002917E+01
     4
 # iter = 56500  time[fs]=56.50000
   C -0.582574193E+01  0.200215060E+00 -0.185110021E+00
   C  0.614617673E+01 -0.158995269E+00  0.255814123E+00
   H -0.276190684E+02 -0.268314072E+01  0.233698850E+01
   H  0.270089297E+02  0.357369195E+01 -0.247312317E+01
     4
 # iter = 57000  time[fs]=57.00000
   C -0.591391882E+01  0.203546704E+00 -0.188051041E+00
   C  0.623770873E+01 -0.161896156E+00  0.259761871E+00
   H -0.279825327E+02 -0.271833782E+01  0.236839131E+01
   H  0.273620023E+02  0.362118096E+01 -0.250623007E+01
     4
 # iter = 57500  time[fs]=57.50000
   C -0.600219551E+01  0.206881932E+00 -0.190996333E+00
   C  0.632934003E+01 -0.164801036E+00  0.263714053E+00
   H -0.283461053E+02 -0.275354736E+01  0.239980478E+01
   H  0.277151890E+02  0.366868736E+01 -0.253934956E+01
     4
 # iter = 58000  time[fs]=58.00000
   C -0.609056908E+01  0.210220649E+00 -0.193945778E+00
   C  0.642106775E+01 -0.167709806E+00  0.267670544E+00
   H -0.287097835E+02 -0.278876906E+01  0.243122864E+01
   H  0.280684870E+02  0.371621071E+01 -0.257248133E+01
     4
 # iter = 58500  time[fs]=58.50000
   C -0.617903675E+01  0.213562766E+00 -0.196899261E+00
   C  0.651288910E+01 -0.170622366E+00  0.271631229E+00
   H -0.290735646E+02 -0.282400261E+01  0.246266264E+01
   H  0.284218934E+02  0.376375061E+01 -0.260562510E+01
     4
 # iter = 59000  time[fs]=59.00000
   C -0.626759584E+01  0.216908194E+00 -0.199856674E+00
   C  0.660480143E+01 -0.173538622E+00  0.275595994E+00
   H -0.294374461E+02 -0.285924773E+01  0.249410655E+01
   H  0.287754057E+02  0.381130667E+01 -0.263878057E+01
     4
 # iter = 59500  time[fs]=59.50000
   C -0.635624380E+01  0.220256850E+00 -0.202817913E+00
   C  0.669680217E+01 -0.176458479E+00  0.279564730E+00
   H -0.298014256E+02 -0.289450415E+01  0.252556014E+01
   H  0.291290212E+02  0.385887852E+01 -0.267194748E+01
     4
 # iter = 60000  time[fs]=60.00000
   C -0.644497816E+01  0.223608654E+00 -0.205782875E+00
   C  0.678888889E+01 -0.179381850E+00  0.283537335E+00
   H -0.301655008E+02 -0.292977159E+01  0.255702317E+01
   H  0.294827376E+02  0.390646580E+01 -0.270512557E+01
     4
 # iter = 60500  time[fs]=60.50000
   C -0.653379656E+01  0.226963527E+00 -0.208751464E+00
   C  0.688105924E+01 -0.182308648E+00  0.287513707E+00
   H -0.305296694E+02 -0.296504982E+01  0.258849545E+01
   H  0.298365525E+02  0.395406814E+01 -0.273831458E+01
     4
 # iter = 61000  time[fs]=61.00000
   C -0.662269674E+01  0.230321395E+00 -0.211723587E+00
   C  0.697331094E+01 -0.185238791E+00  0.291493750E+00
   H -0.308939292E+02 -0.300033858E+01  0.261997674E+01
   H  0.301904635E+02  0.400168521E+01 -0.277151427E+01
     4
 # iter = 61500  time[fs]=61.50000
   C -0.671167652E+01  0.233682185E+00 -0.214699154E+00
   C  0.706564185E+01 -0.188172198E+00  0.295477372E+00
   H -0.312582782E+02 -0.303563763E+01  0.265146687E+01
   H  0.305444686E+02  0.404931668E+01 -0.280472439E+01
     4
 # iter = 62000  time[fs]=62.00000
   C -0.680073381E+01  0.237045827E+00 -0.217678078E+00
   C  0.715804986E+01 -0.191108792E+00  0.299464483E+00
   H -0.316227142E+02 -0.307094674E+01  0.268296562E+01
   H  0.308985654E+02  0.409696224E+01 -0.283794473E+01
     4
 # iter = 62500  time[fs]=62.50000
   C -0.688986659E+01  0.240412255E+00 -0.220660277E+00
   C  0.725053298E+01 -0.194048500E+00  0.303454997E+00
   H -0.319872354E+02 -0.310626570E+01  0.271447281E+01
   H  0.312527520E+02  0.414462158E+01 -0.287117506E+01
     4
 # iter = 63000  time[fs]=63.00000
   C -0.697907292E+01  0.243781403E+00 -0.223645669E+00
   C  0.734308927E+01 -0.196991249E+00  0.307448831E+00
   H -0.323518398E+02 -0.314159429E+01  0.274598827E+01
   H  0.316070264E+02  0.419229439E+01 -0.290441516E+01
     4
 # iter = 63500  time[fs]=63.50000
   C -0.706835093E+01  0.247153207E+00 -0.226634178E+00
   C  0.743571688E+01 -0.199936969E+00  0.311445905E+00
   H -0.327165256E+02 -0.317693229E+01  0.277751180E+01
   H  0.319613867E+02  0.423998040E+01 -0.293766483E+01
     4
 # iter = 64000  time[fs]=64.00000
   C -0.715769884E+01  0.250527609E+00 -0.229625729E+00
   C  0.752841401E+01 -0.202885594E+00  0.315446143E+00
   H -0.330812910E+02 -0.321227951E+01  0.280904325E+01
   H  0.323158309E+02  0.428767932E+01 -0.297092387E+01
     4
 # iter = 64500  time[fs]=64.50000
   C -0.724711489E+01  0.253904547E+00 -0.232620249E+00
   C  0.762117893E+01 -0.205837058E+00  0.319449469E+00
   H -0.334461343E+02 -0.324763575E+01  0.284058244E+01
   H  0.326703573E+02  0.433539089E+01 -0.300419207E+01
     4
 # iter = 65000  time[fs]=65.00000
   C -0.733659743E+01  0.257283967E+00 -0.235617670E+00
   C  0.771400999E+01 -0.208791299E+00  0.323455811E+00
   H -0.338110538E+02 -0.328300083E+01  0.287212922E+01
   H  0.330249641E+02  0.438311484E+01 -0.303746926E+01
     4
 # iter = 65500  time[fs]=65.50000
   C -0.742614484E+01  0.260665813E+00 -0.238617923E+00
   C  0.780690559E+01 -0.211748255E+00  0.327465101E+00
   H -0.341760480E+02 -0.331837456E+01  0.290368343E+01
   H  0.333796496E+02  0.443085092E+01 -0.307075524E+01
     4
 # iter = 66000  time[fs]=66.00000
   C -0.751575558E+01  0.264050031E+00 -0.241620945E+00
   C  0.789986416E+01 -0.214707869E+00  0.331477271E+00
   H -0.345411152E+02 -0.335375676E+01  0.293524491E+01
   H  0.337344122E+02  0.447859888E+01 -0.310404985E+01
     4
 # iter = 66500  time[fs]=66.50000
   C -0.760542812E+01  0.267436571E+00 -0.244626672E+00
   C  0.799288423E+01 -0.217670082E+00  0.335492255E+00
   H -0.349062540E+02 -0.338914726E+01  0.296681353E+01
   H  0.340892504E+02  0.452635848E+01 -0.313735291E+01
     4
 # iter = 67000  time[fs]=67.00000
   C -0.769516104E+01  0.270825382E+00 -0.247635045E+00
   C  0.808596434E+01 -0.220634840E+00  0.339509993E+00
   H -0.352714629E+02 -0.342454590E+01  0.299838915E+01
   H  0.344441624E+02  0.457412950E+01 -0.317066425E+01
     4
 # iter = 67500  time[fs]=67.50000
   C -0.778495294E+01  0.274216417E+00 -0.250646003E+00
   C  0.817910311E+01 -0.223602090E+00  0.343530422E+00
   H -0.356367404E+02 -0.345995251E+01  0.302997161E+01
   H  0.347991470E+02  0.462191171E+01 -0.320398370E+01
     4
 # iter = 68000  time[fs]=68.00000
   C -0.787480245E+01  0.277609628E+00 -0.253659491E+00
   C  0.827229919E+01 -0.226571778E+00  0.347553484E+00
   H -0.360020852E+02 -0.349536694E+01  0.306156080E+01
   H  0.351542025E+02  0.466970490E+01 -0.323731112E+01
     4
 # iter = 68500  time[fs]=68.50000
   C -0.796470827E+01  0.281004970E+00 -0.256675453E+00
   C  0.836555127E+01 -0.229543856E+00  0.351579122E+00
   H -0.363674960E+02 -0.353078904E+01  0.309315657E+01
   H  0.355093276E+02  0.471750884E+01 -0.327064635E+01
     4
 # iter = 69000  time[fs]=69.00000
   C -0.805466914E+01  0.284402399E+00 -0.259693837E+00
   C  0.845885811E+01 -0.232518275E+00  0.355607281E+00
   H -0.367329714E+02 -0.356621865E+01  0.312475881E+01
   H  0.358645210E+02  0.476532333E+01 -0.330398924E+01
     4
 # iter = 69500  time[fs]=69.50000
   C -0.814468383E+01  0.287801873E+00 -0.262714591E+00
   C  0.855221848E+01 -0.235494986E+00  0.359637908E+00
   H -0.370985102E+02 -0.360165563E+01  0.315636739E+01
   H  0.362197813E+02  0.481314819E+01 -0.333733965E+01
     4
 # iter = 70000  time[fs]=70.00000
   C -0.823475117E+01  0.291203350E+00 -0.265737665E+00
   C  0.864563120E+01 -0.238473945E+00  0.363670951E+00
   H -0.374641111E+02 -0.363709984E+01  0.318798220E+01
   H  0.365751072E+02  0.486098320E+01 -0.337069743E+01
     4
 # iter = 70500  time[fs]=70.50000
   C -0.832487001E+01  0.294606790E+00 -0.268763011E+00
   C  0.873909514E+01 -0.241455106E+00  0.367706361E+00
   H -0.378297731E+02 -0.367255116E+01  0.321960311E+01
   H  0.369304974E+02  0.490882818E+01 -0.340406245E+01
     4
 # iter = 71000  time[fs]=71.00000
   C -0.841503923E+01  0.298012154E+00 -0.271790581E+00
   C  0.883260919E+01 -0.244438426E+00  0.371744088E+00
   H -0.381954948E+02 -0.370800943E+01  0.325123001E+01
   H  0.372859508E+02  0.495668296E+01 -0.343743458E+01
     4
 # iter = 71500  time[fs]=71.50000
   C -0.850525777E+01  0.301419405E+00 -0.274820331E+00
   C  0.892617228E+01 -0.247423865E+00  0.375784085E+00
   H -0.385612753E+02 -0.374347455E+01  0.328286280E+01
   H  0.376414661E+02  0.500454734E+01 -0.347081368E+01
     4
 # iter = 72000  time[fs]=72.00000
   C -0.859552459E+01  0.304828505E+00 -0.277852216E+00
   C  0.901978338E+01 -0.250411379E+00  0.379826307E+00
   H -0.389271133E+02 -0.377894638E+01  0.331450137E+01
   H  0.379970423E+02  0.505242116E+01 -0.350419964E+01
     4
 # iter = 72500  time[fs]=72.50000
   C -0.868583867E+01  0.308239419E+00 -0.280886194E+00
   C  0.911344148E+01 -0.253400931E+00  0.383870710E+00
   H -0.392930079E+02 -0.381442479E+01  0.334614561E+01
   H  0.383526782E+02  0.510030425E+01 -0.353759233E+01
     4
 # iter = 73000  time[fs]=73.00000
   C -0.877619903E+01  0.311652112E+00 -0.283922223E+00
   C  0.920714561E+01 -0.256392481E+00  0.387917250E+00
   H -0.396589580E+02 -0.384990968E+01  0.337779543E+01
   H  0.387083726E+02  0.514819644E+01 -0.357099163E+01
     4
 # iter = 73500  time[fs]=73.50000
   C -0.886660474E+01  0.315066551E+00 -0.286960263E+00
   C  0.930089483E+01 -0.259385992E+00  0.391965886E+00
   H -0.400249626E+02 -0.388540093E+01  0.340945072E+01
   H  0.390641247E+02  0.519609757E+01 -0.360439742E+01
     4
 # iter = 74000  time[fs]=74.00000
   C -0.895705487E+01  0.318482703E+00 -0.290000275E+00
   C  0.939468821E+01 -0.262381427E+00  0.396016577E+00
   H -0.403910207E+02 -0.392089843E+01  0.344111140E+01
   H  0.394199332E+02  0.524400749E+01 -0.363780959E+01
     4
 # iter = 74500  time[fs]=74.50000
   C -0.904754852E+01  0.321900535E+00 -0.293042220E+00
   C  0.948852488E+01 -0.265378752E+00  0.400069284E+00
   H -0.407571314E+02 -0.395640206E+01  0.347277736E+01
   H  0.397757972E+02  0.529192604E+01 -0.367122804E+01
     4
 # iter = 75000  time[fs]=75.00000
   C -0.913808483E+01  0.325320017E+00 -0.296086062E+00
   C  0.958240397E+01 -0.268377931E+00  0.404123968E+00
   H -0.411232938E+02 -0.399191172E+01  0.350444852E+01
   H  0.401317158E+02  0.533985309E+01 -0.370465265E+01
     4
 # iter = 75500  time[fs]=75.50000
   C -0.922866297E+01  0.328741119E+00 -0.299131765E+00
   C  0.967632464E+01 -0.271378931E+00  0.408180593E+00
   H -0.414895068E+02 -0.402742731E+01  0.353612478E+01
   H  0.404876880E+02  0.538778847E+01 -0.373808332E+01
     4
 # iter = 76000  time[fs]=76.00000
   C -0.931928210E+01  0.332163812E+00 -0.302179294E+00
   C  0.977028608E+01 -0.274381719E+00  0.412239121E+00
   H -0.418557698E+02 -0.406294872E+01  0.356780607E+01
   H  0.408437129E+02  0.543573206E+01 -0.377151995E+01
     4
 # iter = 76500  time[fs]=76.50000
   C -0.940994145E+01  0.335588066E+00 -0.305228615E+00
   C  0.986428750E+01 -0.277386265E+00  0.416299518E+00
   H -0.422220818E+02 -0.409847587E+01  0.359949229E+01
   H  0.411997894E+02  0.548368371E+01 -0.380496244E+01
     4
 # iter = 77000  time[fs]=77.00000
   C -0.950064022E+01  0.339013854E+00 -0.308279694E+00
   C  0.995832813E+01 -0.280392535E+00  0.420361750E+00
   H -0.425884419E+02 -0.413400864E+01  0.363118338E+01
   H  0.415559169E+02  0.553164330E+01 -0.383841069E+01
     4
 # iter = 77500  time[fs]=77.50000
   C -0.959137769E+01  0.342441150E+00 -0.311332501E+00
   C  0.100524072E+02 -0.283400502E+00  0.424425783E+00
   H -0.429548494E+02 -0.416954696E+01  0.366287923E+01
   H  0.419120944E+02  0.557961068E+01 -0.387186461E+01
     4
 # iter = 78000  time[fs]=78.00000
   C -0.968215312E+01  0.345869926E+00 -0.314387004E+00
   C  0.101465241E+02 -0.286410134E+00  0.428491585E+00
   H -0.433213034E+02 -0.420509072E+01  0.369457979E+01
   H  0.422683211E+02  0.562758574E+01 -0.390532410E+01
     4
 # iter = 78500  time[fs]=78.50000
   C -0.977296579E+01  0.349300156E+00 -0.317443172E+00
   C  0.102406779E+02 -0.289421404E+00  0.432559124E+00
   H -0.436878033E+02 -0.424063985E+01  0.372628497E+01
   H  0.426245962E+02  0.567556835E+01 -0.393878908E+01
     4
 # iter = 79000  time[fs]=79.00000
   C -0.986381503E+01  0.352731817E+00 -0.320500975E+00
   C  0.103348681E+02 -0.292434283E+00  0.436628370E+00
   H -0.440543482E+02 -0.427619424E+01  0.375799470E+01
   H  0.429809188E+02  0.572355839E+01 -0.397225946E+01
     4
 # iter = 79500  time[fs]=79.50000
   C -0.995470016E+01  0.356164883E+00 -0.323560385E+00
   C  0.104290940E+02 -0.295448745E+00  0.440699292E+00
   H -0.444209374E+02 -0.431175382E+01  0.378970890E+01
   H  0.433372882E+02  0.577155574E+01 -0.400573515E+01
     4
 # iter = 80000  time[fs]=80.00000
   C -0.100456205E+02  0.359599331E+00 -0.326621374E+00
   C  0.105233550E+02 -0.298464762E+00  0.444771862E+00
   H -0.447875701E+02 -0.434731851E+01  0.382142751E+01
   H  0.436937037E+02  0.581956028E+01 -0.403921607E+01
