     4
 # iter = 25000  time[fs]=25.00000
   C -0.100252468E+01 -0.200742727E-01  0.353088181E-01
   C  0.970401344E+00 -0.382071634E-01  0.277876804E-01
   H -0.531548734E+01  0.209521771E+00 -0.413259400E+00
   H  0.533468238E+01  0.440666416E+00 -0.290895814E+00
     4
 # iter = 25500  time[fs]=25.50000
   C -0.105052318E+01 -0.226740823E-01  0.374541980E-01
   C  0.101044473E+01 -0.421616525E-01  0.286255714E-01
   H -0.565624463E+01  0.214305424E+00 -0.445490315E+00
   H  0.564029812E+01  0.459500676E+00 -0.315936990E+00
     4
 # iter = 26000  time[fs]=26.00000
   C -0.110280838E+01 -0.261921894E-01  0.386924944E-01
   C  0.105282940E+01 -0.471739834E-01  0.284544795E-01
   H -0.600505634E+01  0.213792880E+00 -0.483350438E+00
   H  0.594312974E+01  0.473161172E+00 -0.346539797E+00
     4
 # iter = 26500  time[fs]=26.50000
   C -0.115629976E+01 -0.278323483E-01  0.418187570E-01
   C  0.110027287E+01 -0.502361380E-01  0.302770713E-01
   H -0.634553329E+01  0.224056376E+00 -0.510728015E+00
   H  0.625900763E+01  0.497720581E+00 -0.366592501E+00
     4
 # iter = 27000  time[fs]=27.00000
   C -0.121059312E+01 -0.274572410E-01  0.469694449E-01
   C  0.115265686E+01 -0.511958984E-01  0.342408910E-01
   H -0.667663195E+01  0.245881441E+00 -0.526805773E+00
   H  0.658849244E+01  0.533954337E+00 -0.375285022E+00
     4
 # iter = 27500  time[fs]=27.50000
   C -0.126752316E+01 -0.271490146E-01  0.520617807E-01
   C  0.120750053E+01 -0.522849818E-01  0.381101278E-01
   H -0.701011647E+01  0.267292199E+00 -0.543533845E+00
   H  0.691939828E+01  0.569867933E+00 -0.384580920E+00
     4
 # iter = 28000  time[fs]=28.00000
   C -0.132833721E+01 -0.283812593E-01  0.556216483E-01
   C  0.126299776E+01 -0.550817534E-01  0.403028879E-01
   H -0.735427879E+01  0.279814016E+00 -0.569364786E+00
   H  0.724307091E+01  0.596971988E+00 -0.402943004E+00
     4
 # iter = 28500  time[fs]=28.50000
   C -0.139223658E+01 -0.305602370E-01  0.582423019E-01
   C  0.131958335E+01 -0.589444640E-01  0.414579055E-01
   H -0.770553987E+01  0.286862779E+00 -0.600863002E+00
   H  0.756278244E+01  0.618677725E+00 -0.426937774E+00
     4
 # iter = 29000  time[fs]=29.00000
   C -0.145757770E+01 -0.322275541E-01  0.613816942E-01
   C  0.137864015E+01 -0.623029863E-01  0.431427073E-01
   H -0.805536583E+01  0.296827704E+00 -0.629621836E+00
   H  0.788680249E+01  0.643374340E+00 -0.448156972E+00
     4
 # iter = 29500  time[fs]=29.50000
   C -0.152369026E+01 -0.328802109E-01  0.655424394E-01
   C  0.144054291E+01 -0.646136712E-01  0.458986596E-01
   H -0.840073700E+01  0.312603029E+00 -0.652731998E+00
   H  0.821791568E+01  0.673952727E+00 -0.463692739E+00
     4
 # iter = 30000  time[fs]=30.00000
   C -0.159113098E+01 -0.332259119E-01  0.700164980E-01
   C  0.150438256E+01 -0.666335557E-01  0.489667043E-01
   H -0.874561431E+01  0.330119456E+00 -0.674249856E+00
   H  0.855194901E+01  0.706335710E+00 -0.477606906E+00
     4
 # iter = 30500  time[fs]=30.50000
   C -0.166055312E+01 -0.340538996E-01  0.740143226E-01
   C  0.156917743E+01 -0.692075081E-01  0.515001890E-01
   H -0.909444042E+01  0.344838934E+00 -0.698702111E+00
   H  0.888427117E+01  0.735977509E+00 -0.494431539E+00
     4
 # iter = 31000  time[fs]=31.00000
   C -0.173184632E+01 -0.353760012E-01  0.775237978E-01
   C  0.163479441E+01 -0.723456050E-01  0.534874679E-01
   H -0.944719584E+01  0.356695243E+00 -0.726144795E+00
   H  0.921473632E+01  0.762807871E+00 -0.514224785E+00
     4
 # iter = 31500  time[fs]=31.50000
   C -0.180438723E+01 -0.366787599E-01  0.810581061E-01
   C  0.170167667E+01 -0.754939363E-01  0.554810655E-01
   H -0.980084811E+01  0.368643581E+00 -0.753613519E+00
   H  0.954623119E+01  0.789780559E+00 -0.534022156E+00
     4
 # iter = 32000  time[fs]=32.00000
   C -0.187775879E+01 -0.376440716E-01  0.849350956E-01
   C  0.177006836E+01 -0.783086415E-01  0.578236083E-01
   H -0.101534966E+02  0.382515266E+00 -0.779268740E+00
   H  0.988052493E+01  0.818725009E+00 -0.551984561E+00
     4
 # iter = 32500  time[fs]=32.50000
   C -0.195200743E+01 -0.384076304E-01  0.890188344E-01
   C  0.183973583E+01 -0.809334927E-01  0.603702179E-01
   H -0.105058586E+02  0.397531115E+00 -0.803882295E+00
   H  0.102167802E+02  0.848858584E+00 -0.568885853E+00
     4
 # iter = 33000  time[fs]=33.00000
   C -0.202733165E+01 -0.392485527E-01  0.930299842E-01
   C  0.191029999E+01 -0.836664870E-01  0.628219029E-01
   H -0.108594826E+02  0.412086879E+00 -0.829051836E+00
   H  0.105533392E+02  0.878573242E+00 -0.586326077E+00
     4
 # iter = 33500  time[fs]=33.50000
   C -0.210374066E+01 -0.402488950E-01  0.968862787E-01
   C  0.198160103E+01 -0.865941046E-01  0.650912890E-01
   H -0.112147888E+02  0.425711825E+00 -0.855242106E+00
   H  0.108896834E+02  0.907395493E+00 -0.604771468E+00
     4
 # iter = 34000  time[fs]=34.00000
   C -0.218105010E+01 -0.412902634E-01  0.100705913E+00
   C  0.205370126E+01 -0.895876540E-01  0.673062624E-01
   H -0.115710487E+02  0.439088213E+00 -0.881765385E+00
   H  0.112264524E+02  0.936005867E+00 -0.623534903E+00
     4
 # iter = 34500  time[fs]=34.50000
   C -0.225908440E+01 -0.422568688E-01  0.104604489E+00
   C  0.212666625E+01 -0.925213715E-01  0.695918574E-01
   H -0.119275531E+02  0.452883202E+00 -0.907949533E+00
   H  0.115642746E+02  0.965069973E+00 -0.641944756E+00
     4
 # iter = 35000  time[fs]=35.00000
   C -0.233779149E+01 -0.431509907E-01  0.108579550E+00
   C  0.220044013E+01 -0.953964345E-01  0.719462343E-01
   H -0.122842758E+02  0.467084655E+00 -0.933802141E+00
   H  0.119031017E+02  0.994573805E+00 -0.660009503E+00
     4
 # iter = 35500  time[fs]=35.50000
   C -0.241718871E+01 -0.440394146E-01  0.112564143E+00
   C  0.227490256E+01 -0.982834140E-01  0.742982180E-01
   H -0.126415648E+02  0.481309279E+00 -0.959702341E+00
   H  0.122425170E+02  0.102413209E+01 -0.678109335E+00
     4
 # iter = 36000  time[fs]=36.00000
   C -0.249726742E+01 -0.449586145E-01  0.116521638E+00
   C  0.234997005E+01 -0.101220416E+00  0.766091511E-01
   H -0.129995970E+02  0.495348087E+00 -0.985855301E+00
   H  0.125822810E+02  0.105353410E+01 -0.696450285E+00
     4
 # iter = 36500  time[fs]=36.50000
   C -0.257797093E+01 -0.458930747E-01  0.120467401E+00
   C  0.242561883E+01 -0.104189786E+00  0.788961831E-01
   H -0.133582525E+02  0.509291102E+00 -0.101216748E+01
   H  0.129224556E+02  0.108286845E+01 -0.714939411E+00
     4
 # iter = 37000  time[fs]=37.00000
   C -0.265923407E+01 -0.468153019E-01  0.124428783E+00
   C  0.250184140E+01 -0.107161082E+00  0.811892932E-01
   H -0.137173450E+02  0.523297178E+00 -0.103847676E+01
   H  0.132631738E+02  0.111229276E+01 -0.733415105E+00
     4
 # iter = 37500  time[fs]=37.50000
   C -0.274101570E+01 -0.477187005E-01  0.128412248E+00
   C  0.257861094E+01 -0.110126380E+00  0.834959795E-01
   H -0.140768106E+02  0.537404894E+00 -0.106474157E+01
   H  0.136044503E+02  0.114184436E+01 -0.751836320E+00
     4
 # iter = 38000  time[fs]=38.00000
   C -0.282329479E+01 -0.486139537E-01  0.132406986E+00
   C  0.265588482E+01 -0.113096379E+00  0.858051495E-01
   H -0.144366867E+02  0.551553370E+00 -0.109102000E+01
   H  0.139462018E+02  0.117146116E+01 -0.770261707E+00
     4
 # iter = 38500  time[fs]=38.50000
   C -0.290605137E+01 -0.495102663E-01  0.136403671E+00
   C  0.273362454E+01 -0.116080250E+00  0.881072704E-01
   H -0.147970038E+02  0.565690183E+00 -0.111736189E+01
   H  0.142883552E+02  0.120108959E+01 -0.788741616E+00
     4
 # iter = 39000  time[fs]=39.00000
   C -0.298925842E+01 -0.504074928E-01  0.140402337E+00
   C  0.281180385E+01 -0.119077170E+00  0.904028282E-01
   H -0.151577404E+02  0.579816657E+00 -0.114376351E+01
   H  0.146308925E+02  0.123072997E+01 -0.807272761E+00
     4
 # iter = 39500  time[fs]=39.50000
   C -0.307288685E+01 -0.513013565E-01  0.144407152E+00
   C  0.289040302E+01 -0.122081928E+00  0.926967223E-01
   H -0.155188526E+02  0.593957835E+00 -0.117019757E+01
   H  0.149738209E+02  0.126040639E+01 -0.825828245E+00
     4
 # iter = 40000  time[fs]=40.00000
   C -0.315691180E+01 -0.521899029E-01  0.148419969E+00
   C  0.296940165E+01 -0.125091852E+00  0.949913364E-01
   H -0.158803112E+02  0.608125370E+00 -0.119665033E+01
   H  0.153171352E+02  0.129012962E+01 -0.844394700E+00
     4
 # iter = 40500  time[fs]=40.50000
   C -0.324131318E+01 -0.530742669E-01  0.152439555E+00
   C  0.304877769E+01 -0.128107626E+00  0.972857157E-01
   H -0.162421057E+02  0.622313101E+00 -0.122312600E+01
   H  0.156608136E+02  0.131989265E+01 -0.862976687E+00
     4
 # iter = 41000  time[fs]=41.00000
   C -0.332607292E+01 -0.539560595E-01  0.156464209E+00
   C  0.312851012E+01 -0.131130483E+00  0.995783756E-01
   H -0.166042297E+02  0.636512101E+00 -0.124963167E+01
   H  0.160048325E+02  0.134968575E+01 -0.881581641E+00
     4
 # iter = 41500  time[fs]=41.50000
   C -0.341117320E+01 -0.548357328E-01  0.160493389E+00
   C  0.320858053E+01 -0.134160446E+00  0.101869060E+00
   H -0.169666712E+02  0.650720080E+00 -0.127616791E+01
   H  0.163491758E+02  0.137950590E+01 -0.900210445E+00
     4
 # iter = 42000  time[fs]=42.00000
   C -0.349659671E+01 -0.557129495E-01  0.164527350E+00
   C  0.328897262E+01 -0.137196718E+00  0.104158345E+00
   H -0.173294144E+02  0.664939265E+00 -0.130273090E+01
   H  0.166938328E+02  0.140935461E+01 -0.918859549E+00
     4
 # iter = 42500  time[fs]=42.50000
   C -0.358232739E+01 -0.565874774E-01  0.168566246E+00
   C  0.336967112E+01 -0.140238644E+00  0.106446679E+00
   H -0.176924449E+02  0.679171252E+00 -0.132931752E+01
   H  0.170387929E+02  0.143923283E+01 -0.937526110E+00
     4
 # iter = 43000  time[fs]=43.00000
   C -0.366835064E+01 -0.574594594E-01  0.172609857E+00
   C  0.345066143E+01 -0.143286000E+00  0.108734096E+00
   H -0.180557513E+02  0.693415459E+00 -0.135592692E+01
   H  0.173840442E+02  0.146913936E+01 -0.956209539E+00
     4
 # iter = 43500  time[fs]=43.50000
   C -0.375465296E+01 -0.583291664E-01  0.176657842E+00
   C  0.353192974E+01 -0.146338719E+00  0.111020480E+00
   H -0.184193238E+02  0.707670547E+00 -0.138255910E+01
   H  0.177295744E+02  0.149907226E+01 -0.974910070E+00
     4
 # iter = 44000  time[fs]=44.00000
   C -0.384122165E+01 -0.591967709E-01  0.180709958E+00
   C  0.361346326E+01 -0.149396654E+00  0.113305807E+00
   H -0.187831526E+02  0.721935729E+00 -0.140921359E+01
   H  0.180753727E+02  0.152903018E+01 -0.993627450E+00
     4
 # iter = 44500  time[fs]=44.50000
   C -0.392804474E+01 -0.600623418E-01  0.184766072E+00
   C  0.369525010E+01 -0.152459564E+00  0.115590159E+00
   H -0.191472277E+02  0.736210793E+00 -0.143588939E+01
   H  0.184214292E+02  0.155901239E+01 -0.101236090E+01
     4
 # iter = 45000  time[fs]=45.00000
   C -0.401511100E+01 -0.609259325E-01  0.188826069E+00
   C  0.377727914E+01 -0.155527212E+00  0.117873620E+00
   H -0.195115400E+02  0.750495603E+00 -0.146258551E+01
   H  0.187677347E+02  0.158901826E+01 -0.103110963E+01
     4
 # iter = 45500  time[fs]=45.50000
   C -0.410240991E+01 -0.617876233E-01  0.192889807E+00
   C  0.385953990E+01 -0.158599407E+00  0.120156240E+00
   H -0.198760807E+02  0.764789856E+00 -0.148930119E+01
   H  0.191142803E+02  0.161904700E+01 -0.104987306E+01
     4
 # iter = 46000  time[fs]=46.00000
   C -0.418993162E+01 -0.626475074E-01  0.196957138E+00
   C  0.394202255E+01 -0.161675986E+00  0.122438045E+00
   H -0.202408417E+02  0.779093159E+00 -0.151603579E+01
   H  0.194610575E+02  0.164909778E+01 -0.106865073E+01
     4
 # iter = 46500  time[fs]=46.50000
   C -0.427766687E+01 -0.635056695E-01  0.201027922E+00
   C  0.402471782E+01 -0.164756794E+00  0.124719064E+00
   H -0.206058154E+02  0.793405160E+00 -0.154278872E+01
   H  0.198080581E+02  0.167916980E+01 -0.108744222E+01
     4
 # iter = 47000  time[fs]=47.00000
   C -0.436560691E+01 -0.643621816E-01  0.205102035E+00
   C  0.410761700E+01 -0.167841674E+00  0.126999331E+00
   H -0.209709944E+02  0.807725567E+00 -0.156955935E+01
   H  0.201552745E+02  0.170926238E+01 -0.110624705E+01
     4
 # iter = 47500  time[fs]=47.50000
   C -0.445374354E+01 -0.652171091E-01  0.209179362E+00
   C  0.419071190E+01 -0.170930477E+00  0.129278883E+00
   H -0.213363717E+02  0.822054120E+00 -0.159634707E+01
   H  0.205026996E+02  0.173937486E+01 -0.112506477E+01
     4
 # iter = 48000  time[fs]=48.00000
   C -0.454206897E+01 -0.660705152E-01  0.213259791E+00
   C  0.427399479E+01 -0.174023061E+00  0.131557752E+00
   H -0.217019408E+02  0.836390557E+00 -0.162315132E+01
   H  0.208503264E+02  0.176950662E+01 -0.114389496E+01
     4
 # iter = 48500  time[fs]=48.50000
   C -0.463057590E+01 -0.669224613E-01  0.217343217E+00
   C  0.435745836E+01 -0.177119296E+00  0.133835965E+00
   H -0.220676954E+02  0.850734624E+00 -0.164997157E+01
   H  0.211981484E+02  0.179965704E+01 -0.116273722E+01
     4
 # iter = 49000  time[fs]=49.00000
   C -0.471925740E+01 -0.677730054E-01  0.221429537E+00
   C  0.444109571E+01 -0.180219055E+00  0.136113549E+00
   H -0.224336294E+02  0.865086077E+00 -0.167680731E+01
   H  0.215461593E+02  0.182982555E+01 -0.118159119E+01
     4
 # iter = 49500  time[fs]=49.50000
   C -0.480810693E+01 -0.686222017E-01  0.225518655E+00
   C  0.452490032E+01 -0.183322220E+00  0.138390531E+00
   H -0.227997371E+02  0.879444686E+00 -0.170365806E+01
   H  0.218943533E+02  0.186001159E+01 -0.120045649E+01
     4
 # iter = 50000  time[fs]=50.00000
   C -0.489711828E+01 -0.694701016E-01  0.229610479E+00
   C  0.460886600E+01 -0.186428678E+00  0.140666934E+00
   H -0.231660132E+02  0.893810232E+00 -0.173052336E+01
   H  0.222427245E+02  0.189021465E+01 -0.121933278E+01
     4
 # iter = 50500  time[fs]=50.50000
   C -0.498628559E+01 -0.703167535E-01  0.233704922E+00
   C  0.469298691E+01 -0.189538320E+00  0.142942783E+00
   H -0.235324525E+02  0.908182506E+00 -0.175740276E+01
   H  0.225912676E+02  0.192043421E+01 -0.123821974E+01
     4
 # iter = 51000  time[fs]=51.00000
   C -0.507560328E+01 -0.711622035E-01  0.237801902E+00
   C  0.477725749E+01 -0.192651043E+00  0.145218099E+00
   H -0.238990499E+02  0.922561310E+00 -0.178429586E+01
   H  0.229399774E+02  0.195066980E+01 -0.125711704E+01
     4
 # iter = 51500  time[fs]=51.50000
   C -0.516506607E+01 -0.720064955E-01  0.241901338E+00
   C  0.486167248E+01 -0.195766749E+00  0.147492903E+00
   H -0.242658008E+02  0.936946451E+00 -0.181120224E+01
   H  0.232888491E+02  0.198092095E+01 -0.127602440E+01
     4
 # iter = 52000  time[fs]=52.00000
   C -0.525466895E+01 -0.728496710E-01  0.246003155E+00
   C  0.494622688E+01 -0.198885346E+00  0.149767214E+00
   H -0.246327006E+02  0.951337747E+00 -0.183812152E+01
   H  0.236378777E+02  0.201118724E+01 -0.129494151E+01
     4
 # iter = 52500  time[fs]=52.50000
   C -0.534440713E+01 -0.736917692E-01  0.250107280E+00
   C  0.503091592E+01 -0.202006744E+00  0.152041052E+00
   H -0.249997450E+02  0.965735023E+00 -0.186505334E+01
   H  0.239870589E+02  0.204146822E+01 -0.131386812E+01
     4
 # iter = 53000  time[fs]=53.00000
   C -0.543427608E+01 -0.745328278E-01  0.254213645E+00
   C  0.511573509E+01 -0.205130857E+00  0.154314434E+00
   H -0.253669298E+02  0.980138111E+00 -0.189199733E+01
   H  0.243363883E+02  0.207176351E+01 -0.133280394E+01
     4
 # iter = 53500  time[fs]=53.50000
   C -0.552427148E+01 -0.753728824E-01  0.258322182E+00
   C  0.520068008E+01 -0.208257604E+00  0.156587378E+00
   H -0.257342512E+02  0.994546851E+00 -0.191895317E+01
   H  0.246858618E+02  0.210207271E+01 -0.135174873E+01
     4
 # iter = 54000  time[fs]=54.00000
   C -0.561438921E+01 -0.762119668E-01  0.262432829E+00
   C  0.528574679E+01 -0.211386909E+00  0.158859899E+00
   H -0.261017053E+02  0.100896109E+01 -0.194592053E+01
   H  0.250354753E+02  0.213239545E+01 -0.137070224E+01
     4
 # iter = 54500  time[fs]=54.50000
   C -0.570462535E+01 -0.770501135E-01  0.266545525E+00
   C  0.537093130E+01 -0.214518695E+00  0.161132012E+00
   H -0.264692884E+02  0.102338068E+01 -0.197289909E+01
   H  0.253852250E+02  0.216273137E+01 -0.138966425E+01
     4
 # iter = 55000  time[fs]=55.00000
   C -0.579497615E+01 -0.778873532E-01  0.270660212E+00
   C  0.545622989E+01 -0.217652892E+00  0.163403733E+00
   H -0.268369971E+02  0.103780547E+01 -0.199988856E+01
   H  0.257351073E+02  0.219308013E+01 -0.140863452E+01
     4
 # iter = 55500  time[fs]=55.50000
   C -0.588543804E+01 -0.787237154E-01  0.274776834E+00
   C  0.554163899E+01 -0.220789431E+00  0.165675075E+00
   H -0.272048280E+02  0.105223533E+01 -0.202688866E+01
   H  0.260851187E+02  0.222344140E+01 -0.142761285E+01
     4
 # iter = 56000  time[fs]=56.00000
   C -0.597600759E+01 -0.795592280E-01  0.278895338E+00
   C  0.562715521E+01 -0.223928248E+00  0.167946051E+00
   H -0.275727778E+02  0.106667014E+01 -0.205389911E+01
   H  0.264352558E+02  0.225381486E+01 -0.144659902E+01
     4
 # iter = 56500  time[fs]=56.50000
   C -0.606668156E+01 -0.803939178E-01  0.283015672E+00
   C  0.571277529E+01 -0.227069279E+00  0.170216674E+00
   H -0.279408435E+02  0.108110976E+01 -0.208091963E+01
   H  0.267855153E+02  0.228420020E+01 -0.146559284E+01
     4
 # iter = 57000  time[fs]=57.00000
   C -0.615745682E+01 -0.812278105E-01  0.287137787E+00
   C  0.579849612E+01 -0.230212463E+00  0.172486957E+00
   H -0.283090221E+02  0.109555407E+01 -0.210794999E+01
   H  0.271358940E+02  0.231459713E+01 -0.148459412E+01
     4
 # iter = 57500  time[fs]=57.50000
   C -0.624833038E+01 -0.820609305E-01  0.291261636E+00
   C  0.588431474E+01 -0.233357744E+00  0.174756910E+00
   H -0.286773107E+02  0.111000296E+01 -0.213498993E+01
   H  0.274863891E+02  0.234500537E+01 -0.150360266E+01
     4
 # iter = 58000  time[fs]=58.00000
   C -0.633929938E+01 -0.828933013E-01  0.295387174E+00
   C  0.597022828E+01 -0.236505066E+00  0.177026545E+00
   H -0.290457066E+02  0.112445631E+01 -0.216203921E+01
   H  0.278369976E+02  0.237542464E+01 -0.152261830E+01
     4
 # iter = 58500  time[fs]=58.50000
   C -0.643036108E+01 -0.837249451E-01  0.299514355E+00
   C  0.605623403E+01 -0.239654374E+00  0.179295871E+00
   H -0.294142071E+02  0.113891401E+01 -0.218909761E+01
   H  0.281877166E+02  0.240585467E+01 -0.154164086E+01
     4
 # iter = 59000  time[fs]=59.00000
   C -0.652151285E+01 -0.845558836E-01  0.303643140E+00
   C  0.614232936E+01 -0.242805619E+00  0.181564900E+00
   H -0.297828096E+02  0.115337596E+01 -0.221616492E+01
   H  0.285385435E+02  0.243629523E+01 -0.156067017E+01
     4
 # iter = 59500  time[fs]=59.50000
   C -0.661275218E+01 -0.853861372E-01  0.307773486E+00
   C  0.622851177E+01 -0.245958749E+00  0.183833641E+00
   H -0.301515117E+02  0.116784207E+01 -0.224324091E+01
   H  0.288894758E+02  0.246674605E+01 -0.157970608E+01
     4
 # iter = 60000  time[fs]=60.00000
   C -0.670407665E+01 -0.862157257E-01  0.311905356E+00
   C  0.631477884E+01 -0.249113719E+00  0.186102102E+00
   H -0.305203110E+02  0.118231222E+01 -0.227032538E+01
   H  0.292405109E+02  0.249720690E+01 -0.159874843E+01
     4
 # iter = 60500  time[fs]=60.50000
   C -0.679548393E+01 -0.870446680E-01  0.316038710E+00
   C  0.640112828E+01 -0.252270481E+00  0.188370293E+00
   H -0.308892051E+02  0.119678634E+01 -0.229741814E+01
   H  0.295916464E+02  0.252767756E+01 -0.161779708E+01
     4
 # iter = 61000  time[fs]=61.00000
   C -0.688697180E+01 -0.878729821E-01  0.320173514E+00
   C  0.648755785E+01 -0.255428993E+00  0.190638222E+00
   H -0.312581920E+02  0.121126432E+01 -0.232451900E+01
   H  0.299428799E+02  0.255815780E+01 -0.163685188E+01
     4
 # iter = 61500  time[fs]=61.50000
   C -0.697853812E+01 -0.887006857E-01  0.324309732E+00
   C  0.657406543E+01 -0.258589210E+00  0.192905898E+00
   H -0.316272693E+02  0.122574608E+01 -0.235162777E+01
   H  0.302942092E+02  0.258864741E+01 -0.165591269E+01
     4
 # iter = 62000  time[fs]=62.00000
   C -0.707018082E+01 -0.895277953E-01  0.328447331E+00
   C  0.666064896E+01 -0.261751094E+00  0.195173327E+00
   H -0.319964352E+02  0.124023153E+01 -0.237874427E+01
   H  0.306456322E+02  0.261914618E+01 -0.167497938E+01
     4
 # iter = 62500  time[fs]=62.50000
   C -0.716189792E+01 -0.903543271E-01  0.332586278E+00
   C  0.674730647E+01 -0.264914602E+00  0.197440518E+00
   H -0.323656875E+02  0.125472060E+01 -0.240586834E+01
   H  0.309971468E+02  0.264965392E+01 -0.169405182E+01
     4
 # iter = 63000  time[fs]=63.00000
   C -0.725368751E+01 -0.911802965E-01  0.336726541E+00
   C  0.683403605E+01 -0.268079699E+00  0.199707478E+00
   H -0.327350244E+02  0.126921320E+01 -0.243299980E+01
   H  0.313487508E+02  0.268017042E+01 -0.171312988E+01
     4
 # iter = 63500  time[fs]=63.50000
   C -0.734554776E+01 -0.920057185E-01  0.340868090E+00
   C  0.692083589E+01 -0.271246346E+00  0.201974212E+00
   H -0.331044439E+02  0.128370926E+01 -0.246013851E+01
   H  0.317004424E+02  0.271069550E+01 -0.173221344E+01
     4
 # iter = 64000  time[fs]=64.00000
   C -0.743747690E+01 -0.928306072E-01  0.345010897E+00
   C  0.700770422E+01 -0.274414509E+00  0.204240729E+00
   H -0.334739443E+02  0.129820871E+01 -0.248728429E+01
   H  0.320522196E+02  0.274122899E+01 -0.175130239E+01
     4
 # iter = 64500  time[fs]=64.50000
   C -0.752947322E+01 -0.936549766E-01  0.349154932E+00
   C  0.709463934E+01 -0.277584152E+00  0.206507034E+00
   H -0.338435238E+02  0.131271146E+01 -0.251443701E+01
   H  0.324040806E+02  0.277177069E+01 -0.177039662E+01
     4
 # iter = 65000  time[fs]=65.00000
   C -0.762153507E+01 -0.944788399E-01  0.353300168E+00
   C  0.718163962E+01 -0.280755242E+00  0.208773133E+00
   H -0.342131808E+02  0.132721746E+01 -0.254159651E+01
   H  0.327560237E+02  0.280232046E+01 -0.178949600E+01
     4
 # iter = 65500  time[fs]=65.50000
   C -0.771366088E+01 -0.953022098E-01  0.357446579E+00
   C  0.726870347E+01 -0.283927748E+00  0.211039033E+00
   H -0.345829135E+02  0.134172663E+01 -0.256876266E+01
   H  0.331080470E+02  0.283287811E+01 -0.180860044E+01
     4
 # iter = 66000  time[fs]=66.00000
   C -0.780584912E+01 -0.961250988E-01  0.361594140E+00
   C  0.735582938E+01 -0.287101639E+00  0.213304738E+00
   H -0.349527205E+02  0.135623891E+01 -0.259593531E+01
   H  0.334601490E+02  0.286344349E+01 -0.182770982E+01
     4
 # iter = 66500  time[fs]=66.50000
   C -0.789809830E+01 -0.969475186E-01  0.365742824E+00
   C  0.744301588E+01 -0.290276883E+00  0.215570254E+00
   H -0.353226001E+02  0.137075424E+01 -0.262311434E+01
   H  0.338123280E+02  0.289401645E+01 -0.184682406E+01
     4
 # iter = 67000  time[fs]=67.00000
   C -0.799040700E+01 -0.977694809E-01  0.369892609E+00
   C  0.753026154E+01 -0.293453453E+00  0.217835587E+00
   H -0.356925509E+02  0.138527255E+01 -0.265029961E+01
   H  0.341645824E+02  0.292459683E+01 -0.186594306E+01
     4
 # iter = 67500  time[fs]=67.50000
   C -0.808277384E+01 -0.985909965E-01  0.374043471E+00
   C  0.761756499E+01 -0.296631319E+00  0.220100741E+00
   H -0.360625714E+02  0.139979378E+01 -0.267749101E+01
   H  0.345169107E+02  0.295518449E+01 -0.188506671E+01
     4
 # iter = 68000  time[fs]=68.00000
   C -0.817519750E+01 -0.994120763E-01  0.378195387E+00
   C  0.770492492E+01 -0.299810455E+00  0.222365721E+00
   H -0.364326603E+02  0.141431789E+01 -0.270468841E+01
   H  0.348693114E+02  0.298577929E+01 -0.190419493E+01
     4
 # iter = 68500  time[fs]=68.50000
   C -0.826767668E+01 -0.100232731E+00  0.382348337E+00
   C  0.779234004E+01 -0.302990834E+00  0.224630532E+00
   H -0.368028161E+02  0.142884480E+01 -0.273189169E+01
   H  0.352217831E+02  0.301638109E+01 -0.192332763E+01
     4
 # iter = 69000  time[fs]=69.00000
   C -0.836021014E+01 -0.101052969E+00  0.386502297E+00
   C  0.787980910E+01 -0.306172430E+00  0.226895178E+00
   H -0.371730376E+02  0.144337448E+01 -0.275910074E+01
   H  0.355743244E+02  0.304698975E+01 -0.194246472E+01
     4
 # iter = 69500  time[fs]=69.50000
   C -0.845279668E+01 -0.101872802E+00  0.390657249E+00
   C  0.796733093E+01 -0.309355219E+00  0.229159664E+00
   H -0.375433234E+02  0.145790685E+01 -0.278631544E+01
   H  0.359269340E+02  0.307760514E+01 -0.196160612E+01
     4
 # iter = 70000  time[fs]=70.00000
   C -0.854543513E+01 -0.102692238E+00  0.394813171E+00
   C  0.805490434E+01 -0.312539176E+00  0.231423994E+00
   H -0.379136724E+02  0.147244188E+01 -0.281353570E+01
   H  0.362796105E+02  0.310822715E+01 -0.198075174E+01
     4
 # iter = 70500  time[fs]=70.50000
   C -0.863812437E+01 -0.103511286E+00  0.398970045E+00
   C  0.814252823E+01 -0.315724278E+00  0.233688172E+00
   H -0.382840832E+02  0.148697951E+01 -0.284076141E+01
   H  0.366323527E+02  0.313885564E+01 -0.199990152E+01
     4
 # iter = 71000  time[fs]=71.00000
   C -0.873086330E+01 -0.104329956E+00  0.403127852E+00
   C  0.823020150E+01 -0.318910503E+00  0.235952201E+00
   H -0.386545549E+02  0.150151970E+01 -0.286799245E+01
   H  0.369851593E+02  0.316949049E+01 -0.201905536E+01
     4
 # iter = 71500  time[fs]=71.50000
   C -0.882365086E+01 -0.105148255E+00  0.407286574E+00
   C  0.831792311E+01 -0.322097828E+00  0.238216086E+00
   H -0.390250861E+02  0.151606239E+01 -0.289522875E+01
   H  0.373380291E+02  0.320013160E+01 -0.203821320E+01
     4
 # iter = 72000  time[fs]=72.00000
   C -0.891648603E+01 -0.105966192E+00  0.411446193E+00
   C  0.840569203E+01 -0.325286231E+00  0.240479830E+00
   H -0.393956757E+02  0.153060755E+01 -0.292247019E+01
   H  0.376909609E+02  0.323077885E+01 -0.205737497E+01
     4
 # iter = 72500  time[fs]=72.50000
   C -0.900936783E+01 -0.106783774E+00  0.415606691E+00
   C  0.849350728E+01 -0.328475693E+00  0.242743436E+00
   H -0.397663228E+02  0.154515512E+01 -0.294971669E+01
   H  0.380439537E+02  0.326143212E+01 -0.207654058E+01
     4
 # iter = 73000  time[fs]=73.00000
   C -0.910229527E+01 -0.107601010E+00  0.419768053E+00
   C  0.858136789E+01 -0.331666193E+00  0.245006908E+00
   H -0.401370263E+02  0.155970506E+01 -0.297696816E+01
   H  0.383970062E+02  0.329209131E+01 -0.209570998E+01
     4
 # iter = 73500  time[fs]=73.50000
   C -0.919526743E+01 -0.108417906E+00  0.423930262E+00
   C  0.866927294E+01 -0.334857711E+00  0.247270250E+00
   H -0.405077851E+02  0.157425733E+01 -0.300422450E+01
   H  0.387501175E+02  0.332275632E+01 -0.211488310E+01
     4
 # iter = 74000  time[fs]=74.00000
   C -0.928828341E+01 -0.109234470E+00  0.428093301E+00
   C  0.875722153E+01 -0.338050228E+00  0.249533463E+00
   H -0.408785982E+02  0.158881190E+01 -0.303148563E+01
   H  0.391032864E+02  0.335342705E+01 -0.213405986E+01
     4
 # iter = 74500  time[fs]=74.50000
   C -0.938134232E+01 -0.110050709E+00  0.432257156E+00
   C  0.884521277E+01 -0.341243725E+00  0.251796553E+00
   H -0.412494647E+02  0.160336871E+01 -0.305875146E+01
   H  0.394565120E+02  0.338410339E+01 -0.215324022E+01
     4
 # iter = 75000  time[fs]=75.00000
   C -0.947444331E+01 -0.110866630E+00  0.436421812E+00
   C  0.893324583E+01 -0.344438185E+00  0.254059520E+00
   H -0.416203837E+02  0.161792773E+01 -0.308602193E+01
   H  0.398097932E+02  0.341478525E+01 -0.217242409E+01
     4
 # iter = 75500  time[fs]=75.50000
   C -0.956758555E+01 -0.111682239E+00  0.440587254E+00
   C  0.902131988E+01 -0.347633591E+00  0.256322369E+00
   H -0.419913541E+02  0.163248893E+01 -0.311329693E+01
   H  0.401631291E+02  0.344547254E+01 -0.219161144E+01
     4
 # iter = 76000  time[fs]=76.00000
   C -0.966076823E+01 -0.112497542E+00  0.444753468E+00
   C  0.910943411E+01 -0.350829924E+00  0.258585102E+00
   H -0.423623752E+02  0.164705226E+01 -0.314057641E+01
   H  0.405165187E+02  0.347616516E+01 -0.221080218E+01
     4
 # iter = 76500  time[fs]=76.50000
   C -0.975399059E+01 -0.113312546E+00  0.448920441E+00
   C  0.919758776E+01 -0.354027168E+00  0.260847722E+00
   H -0.427334460E+02  0.166161768E+01 -0.316786027E+01
   H  0.408699612E+02  0.350686302E+01 -0.222999628E+01
     4
 # iter = 77000  time[fs]=77.00000
   C -0.984725184E+01 -0.114127257E+00  0.453088158E+00
   C  0.928578005E+01 -0.357225308E+00  0.263110231E+00
   H -0.431045658E+02  0.167618518E+01 -0.319514845E+01
   H  0.412234556E+02  0.353756605E+01 -0.224919367E+01
     4
 # iter = 77500  time[fs]=77.50000
   C -0.994055126E+01 -0.114941680E+00  0.457256608E+00
   C  0.937401027E+01 -0.360424327E+00  0.265372631E+00
   H -0.434757336E+02  0.169075470E+01 -0.322244088E+01
   H  0.415770010E+02  0.356827414E+01 -0.226839430E+01
     4
 # iter = 78000  time[fs]=78.00000
   C -0.100338881E+02 -0.115755822E+00  0.461425776E+00
   C  0.946227769E+01 -0.363624210E+00  0.267634926E+00
   H -0.438469487E+02  0.170532622E+01 -0.324973749E+01
   H  0.419305966E+02  0.359898723E+01 -0.228759811E+01
     4
 # iter = 78500  time[fs]=78.50000
   C -0.101272617E+02 -0.116569687E+00  0.465595651E+00
   C  0.955058161E+01 -0.366824942E+00  0.269897118E+00
   H -0.442182102E+02  0.171989970E+01 -0.327703820E+01
   H  0.422842415E+02  0.362970523E+01 -0.230680505E+01
     4
 # iter = 79000  time[fs]=79.00000
   C -0.102206714E+02 -0.117383281E+00  0.469766221E+00
   C  0.963892137E+01 -0.370026508E+00  0.272159208E+00
   H -0.445895175E+02  0.173447511E+01 -0.330434295E+01
   H  0.426379351E+02  0.366042806E+01 -0.232601508E+01
     4
 # iter = 79500  time[fs]=79.50000
   C -0.103141165E+02 -0.118196610E+00  0.473937473E+00
   C  0.972729631E+01 -0.373228895E+00  0.274421200E+00
   H -0.449608698E+02  0.174905243E+01 -0.333165168E+01
   H  0.429916763E+02  0.369115565E+01 -0.234522814E+01
     4
 # iter = 80000  time[fs]=80.00000
   C -0.104075964E+02 -0.119009678E+00  0.478109397E+00
   C  0.981570579E+01 -0.376432088E+00  0.276683094E+00
   H -0.453322663E+02  0.176363161E+01 -0.335896432E+01
   H  0.433454646E+02  0.372188791E+01 -0.236444418E+01
