     4
 # iter = 25000  time[fs]=25.00000
   C -0.972961015E+00 -0.143502891E-01 -0.274797788E-01
   C  0.100085096E+01 -0.245600504E-01  0.247803195E-01
   H -0.522720627E+01  0.604002230E+00  0.521388627E+00
   H  0.532081274E+01 -0.506021184E+00 -0.573948593E+00
     4
 # iter = 25500  time[fs]=25.50000
   C -0.101931533E+01 -0.176011044E-01 -0.322507727E-01
   C  0.104286136E+01 -0.237456386E-01  0.255151531E-01
   H -0.556352572E+01  0.635818258E+00  0.544022894E+00
   H  0.562645927E+01 -0.542417806E+00 -0.620778486E+00
     4
 # iter = 26000  time[fs]=26.00000
   C -0.106926622E+01 -0.219270819E-01 -0.381745595E-01
   C  0.108652099E+01 -0.238108233E-01  0.254559298E-01
   H -0.590788781E+01  0.662566906E+00  0.561545841E+00
   H  0.592931778E+01 -0.584488563E+00 -0.673333481E+00
     4
 # iter = 26500  time[fs]=26.50000
   C -0.111941880E+01 -0.241484771E-01 -0.420633367E-01
   C  0.113423746E+01 -0.221294212E-01  0.272201116E-01
   H -0.624390740E+01  0.700294376E+00  0.590007786E+00
   H  0.624521425E+01 -0.616110085E+00 -0.715486363E+00
     4
 # iter = 27000  time[fs]=27.00000
   C -0.116942072E+01 -0.241105043E-01 -0.437551852E-01
   C  0.118594463E+01 -0.185684779E-01  0.309329265E-01
   H -0.657054105E+01  0.749764962E+00  0.630176539E+00
   H  0.657470817E+01 -0.636461947E+00 -0.746413110E+00
     4
 # iter = 27500  time[fs]=27.50000
   C -0.122146216E+01 -0.241834803E-01 -0.456141255E-01
   C  0.123951401E+01 -0.150762091E-01  0.346393321E-01
   H -0.689955027E+01  0.798985405E+00  0.670061843E+00
   H  0.690561494E+01 -0.657498452E+00 -0.778064659E+00
     4
 # iter = 28000  time[fs]=28.00000
   C -0.127705634E+01 -0.260444915E-01 -0.493116725E-01
   C  0.129340320E+01 -0.130310629E-01  0.369548355E-01
   H -0.723922503E+01  0.839466022E+00  0.701176688E+00
   H  0.722928128E+01 -0.687674475E+00 -0.818892884E+00
     4
 # iter = 28500  time[fs]=28.50000
   C -0.133537820E+01 -0.290172972E-01 -0.541666462E-01
   C  0.134802146E+01 -0.118742749E-01  0.384328407E-01
   H -0.758598638E+01  0.874609130E+00  0.726925837E+00
   H  0.754897862E+01 -0.723549950E+00 -0.865455103E+00
     4
 # iter = 29000  time[fs]=29.00000
   C -0.139463239E+01 -0.314412570E-01 -0.585140340E-01
   C  0.140460202E+01 -0.102370695E-01  0.404373738E-01
   H -0.793130149E+01  0.912791851E+00  0.755688622E+00
   H  0.787297534E+01 -0.756711034E+00 -0.909335163E+00
     4
 # iter = 29500  time[fs]=29.50000
   C -0.145412393E+01 -0.327429270E-01 -0.617765298E-01
   C  0.146349572E+01 -0.764653616E-02  0.434371439E-01
   H -0.827215113E+01  0.956898011E+00  0.790350833E+00
   H  0.820405537E+01 -0.784244853E+00 -0.947618075E+00
     4
 # iter = 30000  time[fs]=30.00000
   C -0.151454775E+01 -0.337267149E-01 -0.647551295E-01
   C  0.152393069E+01 -0.476486986E-02  0.467662368E-01
   H -0.861249590E+01  0.100284943E+01  0.826836014E+00
   H  0.853804590E+01 -0.810208638E+00 -0.984359114E+00
     4
 # iter = 30500  time[fs]=30.50000
   C -0.157670217E+01 -0.352897302E-01 -0.683439192E-01
   C  0.158506924E+01 -0.233095322E-02  0.496824685E-01
   H -0.895677798E+01  0.104610023E+01  0.860599841E+00
   H  0.887031592E+01 -0.839130352E+00 -0.102408445E+01
     4
 # iter = 31000  time[fs]=31.00000
   C -0.164051022E+01 -0.374441710E-01 -0.725524098E-01
   C  0.164681161E+01 -0.355218020E-03  0.521724682E-01
   H -0.930497791E+01  0.108657709E+01  0.891570386E+00
   H  0.920071963E+01 -0.871064593E+00 -0.106684708E+01
     4
 # iter = 31500  time[fs]=31.50000
   C -0.170530559E+01 -0.396043418E-01 -0.767925124E-01
   C  0.170955874E+01  0.164407898E-02  0.547153573E-01
   H -0.965406361E+01  0.112722870E+01  0.922697647E+00
   H  0.953214358E+01 -0.903043772E+00 -0.110967794E+01
     4
 # iter = 32000  time[fs]=32.00000
   C -0.177065208E+01 -0.414069214E-01 -0.806987719E-01
   C  0.177353611E+01  0.396544949E-02  0.576073051E-01
   H -0.100021348E+02  0.116988062E+01  0.955808319E+00
   H  0.986635679E+01 -0.933226003E+00 -0.115073381E+01
     4
 # iter = 32500  time[fs]=32.50000
   C -0.183663697E+01 -0.430051445E-01 -0.844225170E-01
   C  0.183855077E+01  0.648196242E-02  0.607192841E-01
   H -0.103499089E+02  0.121374853E+01  0.990119151E+00
   H  0.102025220E+02 -0.962382559E+00 -0.119078473E+01
     4
 # iter = 33000  time[fs]=33.00000
   C -0.190351701E+01 -0.447155278E-01 -0.882785580E-01
   C  0.190428146E+01  0.893217084E-02  0.637879659E-01
   H -0.106989344E+02  0.125722359E+01  0.102402226E+01
   H  0.105389816E+02 -0.992111135E+00 -0.123142725E+01
     4
 # iter = 33500  time[fs]=33.50000
   C -0.197133017E+01 -0.466303266E-01 -0.923576177E-01
   C  0.197059704E+01  0.112392544E-01  0.667348375E-01
   H -0.110496318E+02  0.129983088E+01  0.105704359E+01
   H  0.108752173E+02 -0.102287586E+01 -0.127312446E+01
     4
 # iter = 34000  time[fs]=34.00000
   C -0.203989123E+01 -0.486136826E-01 -0.965224584E-01
   C  0.203755913E+01  0.135142129E-01  0.696693721E-01
   H -0.114012728E+02  0.134224880E+01  0.108986235E+01
   H  0.112118687E+02 -0.105398772E+01 -0.131518637E+01
     4
 # iter = 34500  time[fs]=34.50000
   C -0.210902237E+01 -0.505327556E-01 -0.100638996E+00
   C  0.210523122E+01  0.158655615E-01  0.726987047E-01
   H -0.117531484E+02  0.138514098E+01  0.112314292E+01
   H  0.115495643E+02 -0.108477336E+01 -0.135693875E+01
     4
 # iter = 35000  time[fs]=35.00000
   C -0.217868418E+01 -0.523891509E-01 -0.104707711E+00
   C  0.217357010E+01  0.182911200E-01  0.758194050E-01
   H -0.121052327E+02  0.142849211E+01  0.115687065E+01
   H  0.118882559E+02 -0.111523969E+01 -0.139838766E+01
     4
 # iter = 35500  time[fs]=35.50000
   C -0.224891424E+01 -0.542579498E-01 -0.108802666E+00
   C  0.224247559E+01  0.207282217E-01  0.789676713E-01
   H -0.124578739E+02  0.147191596E+01  0.119065995E+01
   H  0.122275272E+02 -0.114576542E+01 -0.143991105E+01
     4
 # iter = 36000  time[fs]=36.00000
   C -0.231971884E+01 -0.561797807E-01 -0.112963564E+00
   C  0.231187909E+01  0.231425883E-01  0.821081925E-01
   H -0.128112490E+02  0.151520087E+01  0.122429973E+01
   H  0.125671386E+02 -0.117655524E+01 -0.148171290E+01
     4
 # iter = 36500  time[fs]=36.50000
   C -0.239104802E+01 -0.581361423E-01 -0.117171063E+00
   C  0.238176355E+01  0.255486539E-01  0.852544608E-01
   H -0.131652385E+02  0.155843438E+01  0.125787806E+01
   H  0.129071523E+02 -0.120751500E+01 -0.152369838E+01
     4
 # iter = 37000  time[fs]=37.00000
   C -0.246284076E+01 -0.600949471E-01 -0.121392307E+00
   C  0.245212571E+01  0.279720670E-01  0.884312638E-01
   H -0.135196563E+02  0.160177304E+01  0.129155200E+01
   H  0.132477015E+02 -0.123848194E+01 -0.156570413E+01
     4
 # iter = 37500  time[fs]=37.50000
   C -0.253506220E+01 -0.620479397E-01 -0.125618338E+00
   C  0.252294502E+01  0.304188814E-01  0.916438672E-01
   H -0.138744385E+02  0.164525333E+01  0.132535847E+01
   H  0.135888010E+02 -0.126941398E+01 -0.160768746E+01
     4
 # iter = 38000  time[fs]=38.00000
   C -0.260769927E+01 -0.640065751E-01 -0.129859971E+00
   C  0.259418681E+01  0.328789504E-01  0.948814011E-01
   H -0.142296230E+02  0.168881240E+01  0.135923506E+01
   H  0.139303676E+02 -0.130036880E+01 -0.164970553E+01
     4
 # iter = 38500  time[fs]=38.50000
   C -0.268073915E+01 -0.659806658E-01 -0.134126428E+00
   C  0.266581971E+01  0.353435092E-01  0.981344359E-01
   H -0.145852403E+02  0.173239600E+01  0.139312793E+01
   H  0.142723285E+02 -0.133139584E+01 -0.169180726E+01
     4
 # iter = 39000  time[fs]=39.00000
   C -0.275416013E+01 -0.679694186E-01 -0.138416375E+00
   C  0.273782278E+01  0.378125549E-01  0.101402356E+00
   H -0.149412693E+02  0.177600377E+01  0.142703708E+01
   H  0.146146659E+02 -0.136249097E+01 -0.173398805E+01
     4
 # iter = 39500  time[fs]=39.50000
   C -0.282793736E+01 -0.699673740E-01 -0.142723854E+00
   C  0.281018054E+01  0.402899555E-01  0.104688466E+00
   H -0.152976661E+02  0.181965918E+01  0.146098632E+01
   H  0.149573870E+02 -0.139362653E+01 -0.177621978E+01
     4
 # iter = 40000  time[fs]=40.00000
   C -0.290205009E+01 -0.719717488E-01 -0.147045621E+00
   C  0.288287672E+01  0.427774037E-01  0.107993935E+00
   H -0.156544017E+02  0.186337240E+01  0.149498616E+01
   H  0.153004869E+02 -0.142478841E+01 -0.181848794E+01
     4
 # iter = 40500  time[fs]=40.50000
   C -0.297648241E+01 -0.739833082E-01 -0.151382018E+00
   C  0.295589346E+01  0.452736974E-01  0.111317078E+00
   H -0.160114659E+02  0.190713589E+01  0.152902937E+01
   H  0.156439438E+02 -0.145598050E+01 -0.186079600E+01
     4
 # iter = 41000  time[fs]=41.00000
   C -0.305122015E+01 -0.760033888E-01 -0.155733988E+00
   C  0.302921360E+01  0.477771904E-01  0.114655800E+00
   H -0.163688526E+02  0.195093945E+01  0.156310602E+01
   H  0.159877344E+02 -0.148720960E+01 -0.190315039E+01
     4
 # iter = 41500  time[fs]=41.50000
   C -0.312624889E+01 -0.780320353E-01 -0.160101210E+00
   C  0.310282216E+01  0.502873254E-01  0.118009129E+00
   H -0.167265497E+02  0.199477957E+01  0.159721288E+01
   H  0.163318428E+02 -0.151847599E+01 -0.194555105E+01
     4
 # iter = 42000  time[fs]=42.00000
   C -0.320155434E+01 -0.800684199E-01 -0.164482520E+00
   C  0.317670586E+01  0.528042875E-01  0.121376862E+00
   H -0.170845416E+02  0.203865734E+01  0.163135129E+01
   H  0.166762583E+02 -0.154977557E+01 -0.198799354E+01
     4
 # iter = 42500  time[fs]=42.50000
   C -0.327712323E+01 -0.821118589E-01 -0.168876919E+00
   C  0.325085223E+01  0.553281666E-01  0.124758729E+00
   H -0.174428143E+02  0.208257331E+01  0.166552204E+01
   H  0.170209705E+02 -0.158110497E+01 -0.203047416E+01
     4
 # iter = 43000  time[fs]=43.00000
   C -0.335294359E+01 -0.841621178E-01 -0.173283880E+00
   C  0.332524928E+01  0.578587041E-01  0.128154134E+00
   H -0.178013564E+02  0.212652588E+01  0.169972376E+01
   H  0.173659677E+02 -0.161246310E+01 -0.207299154E+01
     4
 # iter = 43500  time[fs]=43.50000
   C -0.342900433E+01 -0.862191294E-01 -0.177703062E+00
   C  0.339988563E+01  0.603955252E-01  0.131562388E+00
   H -0.181601583E+02  0.217051277E+01  0.173395437E+01
   H  0.177112377E+02 -0.164384974E+01 -0.211554516E+01
     4
 # iter = 44000  time[fs]=44.00000
   C -0.350529499E+01 -0.882827340E-01 -0.182134052E+00
   C  0.347475070E+01  0.629383506E-01  0.134982919E+00
   H -0.185192103E+02  0.221453230E+01  0.176821240E+01
   H  0.180567699E+02 -0.167526420E+01 -0.215813407E+01
     4
 # iter = 44500  time[fs]=44.50000
   C -0.358180562E+01 -0.903526727E-01 -0.186576352E+00
   C  0.354983467E+01  0.654870020E-01  0.138415272E+00
   H -0.188785027E+02  0.225858342E+01  0.180249700E+01
   H  0.184025544E+02 -0.170670527E+01 -0.220075682E+01
     4
 # iter = 45000  time[fs]=45.00000
   C -0.365852690E+01 -0.924286865E-01 -0.191029481E+00
   C  0.362512829E+01  0.680413188E-01  0.141859030E+00
   H -0.192380263E+02  0.230266521E+01  0.183680740E+01
   H  0.187485822E+02 -0.173817179E+01 -0.224341199E+01
     4
 # iter = 45500  time[fs]=45.50000
   C -0.373545006E+01 -0.945105632E-01 -0.195493017E+00
   C  0.370062286E+01  0.706011189E-01  0.145313767E+00
   H -0.195977726E+02  0.234677660E+01  0.187114273E+01
   H  0.190948445E+02 -0.176966279E+01 -0.228609838E+01
     4
 # iter = 46000  time[fs]=46.00000
   C -0.381256688E+01 -0.965981210E-01 -0.199966582E+00
   C  0.377631016E+01  0.731662117E-01  0.148779066E+00
   H -0.199577337E+02  0.239091649E+01  0.190550204E+01
   H  0.194413329E+02 -0.180117749E+01 -0.232881499E+01
     4
 # iter = 46500  time[fs]=46.50000
   C -0.388986961E+01 -0.986911822E-01 -0.204449815E+00
   C  0.385218245E+01  0.757364178E-01  0.152254533E+00
   H -0.203179019E+02  0.243508385E+01  0.193988445E+01
   H  0.197880395E+02 -0.183271511E+01 -0.237156084E+01
     4
 # iter = 47000  time[fs]=47.00000
   C -0.396735093E+01 -0.100789569E+00 -0.208942365E+00
   C  0.392823243E+01  0.783115733E-01  0.155739802E+00
   H -0.206782702E+02  0.247927775E+01  0.197428918E+01
   H  0.201349567E+02 -0.186427487E+01 -0.241433495E+01
     4
 # iter = 47500  time[fs]=47.50000
   C -0.404500392E+01 -0.102893107E+00 -0.213443895E+00
   C  0.400445321E+01  0.808915237E-01  0.159234528E+00
   H -0.210388316E+02  0.252349732E+01  0.200871551E+01
   H  0.204820774E+02 -0.189585601E+01 -0.245713637E+01
     4
 # iter = 48000  time[fs]=48.00000
   C -0.412282204E+01 -0.105001634E+00 -0.217954088E+00
   C  0.408083829E+01  0.834761195E-01  0.162738383E+00
   H -0.213995797E+02  0.256774173E+01  0.204316271E+01
   H  0.208293949E+02 -0.192745785E+01 -0.249996422E+01
     4
 # iter = 48500  time[fs]=48.50000
   C -0.420079911E+01 -0.107114994E+00 -0.222472646E+00
   C  0.415738150E+01  0.860652164E-01  0.166251052E+00
   H -0.217605083E+02  0.261201016E+01  0.207763012E+01
   H  0.211769026E+02 -0.195907969E+01 -0.254281767E+01
     4
 # iter = 49000  time[fs]=49.00000
   C -0.427892929E+01 -0.109233040E+00 -0.226999282E+00
   C  0.423407702E+01  0.886586762E-01  0.169772237E+00
   H -0.221216114E+02  0.265630184E+01  0.211211708E+01
   H  0.215245946E+02 -0.199072093E+01 -0.258569591E+01
     4
 # iter = 49500  time[fs]=49.50000
   C -0.435720701E+01 -0.111355630E+00 -0.231533726E+00
   C  0.431091931E+01  0.912563667E-01  0.173301653E+00
   H -0.224828836E+02  0.270061606E+01  0.214662298E+01
   H  0.218724648E+02 -0.202238095E+01 -0.262859818E+01
     4
 # iter = 50000  time[fs]=50.00000
   C -0.443562703E+01 -0.113482627E+00 -0.236075720E+00
   C  0.438790314E+01  0.938581617E-01  0.176839031E+00
   H -0.228443195E+02  0.274495211E+01  0.218114723E+01
   H  0.222205078E+02 -0.205405917E+01 -0.267152375E+01
     4
 # iter = 50500  time[fs]=50.50000
   C -0.451418434E+01 -0.115613900E+00 -0.240625016E+00
   C  0.446502353E+01  0.964639403E-01  0.180384113E+00
   H -0.232059139E+02  0.278930933E+01  0.221568928E+01
   H  0.225687182E+02 -0.208575504E+01 -0.271447193E+01
     4
 # iter = 51000  time[fs]=51.00000
   C -0.459287420E+01 -0.117749325E+00 -0.245181381E+00
   C  0.454227576E+01  0.990735863E-01  0.183936653E+00
   H -0.235676621E+02  0.283368708E+01  0.225024859E+01
   H  0.229170909E+02 -0.211746804E+01 -0.275744205E+01
     4
 # iter = 51500  time[fs]=51.50000
   C -0.467169211E+01 -0.119888782E+00 -0.249744590E+00
   C  0.461965532E+01  0.101686988E+00  0.187496417E+00
   H -0.239295594E+02  0.287808477E+01  0.228482465E+01
   H  0.232656211E+02 -0.214919766E+01 -0.280043348E+01
     4
 # iter = 52000  time[fs]=52.00000
   C -0.475063376E+01 -0.122032155E+00 -0.254314429E+00
   C  0.469715796E+01  0.104304039E+00  0.191063181E+00
   H -0.242916014E+02  0.292250180E+01  0.231941697E+01
   H  0.236143042E+02 -0.218094342E+01 -0.284344560E+01
     4
 # iter = 52500  time[fs]=52.50000
   C -0.482969508E+01 -0.124179335E+00 -0.258890695E+00
   C  0.477477960E+01  0.106924637E+00  0.194636731E+00
   H -0.246537839E+02  0.296693764E+01  0.235402509E+01
   H  0.239631357E+02 -0.221270486E+01 -0.288647783E+01
     4
 # iter = 53000  time[fs]=53.00000
   C -0.490887217E+01 -0.126330214E+00 -0.263473193E+00
   C  0.485251636E+01  0.109548682E+00  0.198216863E+00
   H -0.250161027E+02  0.301139173E+01  0.238864855E+01
   H  0.243121113E+02 -0.224448154E+01 -0.292952961E+01
     4
 # iter = 53500  time[fs]=53.50000
   C -0.498816131E+01 -0.128484692E+00 -0.268061735E+00
   C  0.493036455E+01  0.112176081E+00  0.201803381E+00
   H -0.253785541E+02  0.305586359E+01  0.242328694E+01
   H  0.246612270E+02 -0.227627303E+01 -0.297260041E+01
     4
 # iter = 54000  time[fs]=54.00000
   C -0.506755898E+01 -0.130642671E+00 -0.272656143E+00
   C  0.500832064E+01  0.114806742E+00  0.205396098E+00
   H -0.257411342E+02  0.310035271E+01  0.245793983E+01
   H  0.250104789E+02 -0.230807894E+01 -0.301568971E+01
     4
 # iter = 54500  time[fs]=54.50000
   C -0.514706178E+01 -0.132804056E+00 -0.277256247E+00
   C  0.508638127E+01  0.117440578E+00  0.208994835E+00
   H -0.261038396E+02  0.314485863E+01  0.249260683E+01
   H  0.253598633E+02 -0.233989886E+01 -0.305879702E+01
     4
 # iter = 55000  time[fs]=55.00000
   C -0.522666649E+01 -0.134968757E+00 -0.281861881E+00
   C  0.516454322E+01  0.120077505E+00  0.212599419E+00
   H -0.264666668E+02  0.318938090E+01  0.252728757E+01
   H  0.257093765E+02 -0.237173242E+01 -0.310192186E+01
     4
 # iter = 55500  time[fs]=55.50000
   C -0.530637003E+01 -0.137136687E+00 -0.286472890E+00
   C  0.524280341E+01  0.122717441E+00  0.216209686E+00
   H -0.268296125E+02  0.323391909E+01  0.256198168E+01
   H  0.260590151E+02 -0.240357928E+01 -0.314506378E+01
     4
 # iter = 56000  time[fs]=56.00000
   C -0.538616942E+01 -0.139307763E+00 -0.291089123E+00
   C  0.532115892E+01  0.125360309E+00  0.219825479E+00
   H -0.271926736E+02  0.327847278E+01  0.259668882E+01
   H  0.264087758E+02 -0.243543907E+01 -0.318822233E+01
     4
 # iter = 56500  time[fs]=56.50000
   C -0.546606187E+01 -0.141481902E+00 -0.295710435E+00
   C  0.539960692E+01  0.128006033E+00  0.223446645E+00
   H -0.275558470E+02  0.332304157E+01  0.263140864E+01
   H  0.267586554E+02 -0.246731148E+01 -0.323139710E+01
     4
 # iter = 57000  time[fs]=57.00000
   C -0.554604464E+01 -0.143659029E+00 -0.300336688E+00
   C  0.547814472E+01  0.130654542E+00  0.227073038E+00
   H -0.279191299E+02  0.336762509E+01  0.266614083E+01
   H  0.271086509E+02 -0.249919617E+01 -0.327458769E+01
     4
 # iter = 57500  time[fs]=57.50000
   C -0.562611516E+01 -0.145839068E+00 -0.304967748E+00
   C  0.555676974E+01  0.133305765E+00  0.230704520E+00
   H -0.282825194E+02  0.341222296E+01  0.270088507E+01
   H  0.274587593E+02 -0.253109285E+01 -0.331779369E+01
     4
 # iter = 58000  time[fs]=58.00000
   C -0.570627094E+01 -0.148021946E+00 -0.309603488E+00
   C  0.563547951E+01  0.135959636E+00  0.234340955E+00
   H -0.286460128E+02  0.345683482E+01  0.273564106E+01
   H  0.278089777E+02 -0.256300121E+01 -0.336101473E+01
     4
 # iter = 58500  time[fs]=58.50000
   C -0.578650959E+01 -0.150207594E+00 -0.314243783E+00
   C  0.571427165E+01  0.138616089E+00  0.237982213E+00
   H -0.290096076E+02  0.350146034E+01  0.277040852E+01
   H  0.281593035E+02 -0.259492097E+01 -0.340425046E+01
     4
 # iter = 59000  time[fs]=59.00000
   C -0.586682883E+01 -0.152395946E+00 -0.318888516E+00
   C  0.579314389E+01  0.141275062E+00  0.241628172E+00
   H -0.293733013E+02  0.354609918E+01  0.280518717E+01
   H  0.285097340E+02 -0.262685187E+01 -0.344750051E+01
     4
 # iter = 59500  time[fs]=59.50000
   C -0.594722646E+01 -0.154586935E+00 -0.323537574E+00
   C  0.587209404E+01  0.143936494E+00  0.245278710E+00
   H -0.297370913E+02  0.359075103E+01  0.283997674E+01
   H  0.288602667E+02 -0.265879362E+01 -0.349076456E+01
     4
 # iter = 60000  time[fs]=60.00000
   C -0.602770036E+01 -0.156780500E+00 -0.328190845E+00
   C  0.595112000E+01  0.146600328E+00  0.248933712E+00
   H -0.301009755E+02  0.363541557E+01  0.287477698E+01
   H  0.292108991E+02 -0.269074598E+01 -0.353404227E+01
     4
 # iter = 60500  time[fs]=60.50000
   C -0.610824852E+01 -0.158976580E+00 -0.332848225E+00
   C  0.603021975E+01  0.149266506E+00  0.252593068E+00
   H -0.304649516E+02  0.368009252E+01  0.290958762E+01
   H  0.295616289E+02 -0.272270869E+01 -0.357733333E+01
     4
 # iter = 61000  time[fs]=61.00000
   C -0.618886897E+01 -0.161175117E+00 -0.337509611E+00
   C  0.610939135E+01  0.151934975E+00  0.256256670E+00
   H -0.308290174E+02  0.372478158E+01  0.294440844E+01
   H  0.299124538E+02 -0.275468153E+01 -0.362063744E+01
     4
 # iter = 61500  time[fs]=61.50000
   C -0.626955985E+01 -0.163376054E+00 -0.342174906E+00
   C  0.618863294E+01  0.154605682E+00  0.259924415E+00
   H -0.311931708E+02  0.376948248E+01  0.297923920E+01
   H  0.302633715E+02 -0.278666426E+01 -0.366395431E+01
     4
 # iter = 62000  time[fs]=62.00000
   C -0.635031935E+01 -0.165579336E+00 -0.346844015E+00
   C  0.626794272E+01  0.157278575E+00  0.263596203E+00
   H -0.315574098E+02  0.381419495E+01  0.301407968E+01
   H  0.306143801E+02 -0.281865666E+01 -0.370728364E+01
     4
 # iter = 62500  time[fs]=62.50000
   C -0.643114572E+01 -0.167784911E+00 -0.351516846E+00
   C  0.634731895E+01  0.159953607E+00  0.267271938E+00
   H -0.319217325E+02  0.385891873E+01  0.304892965E+01
   H  0.309654774E+02 -0.285065851E+01 -0.375062517E+01
     4
 # iter = 63000  time[fs]=63.00000
   C -0.651203731E+01 -0.169992729E+00 -0.356193312E+00
   C  0.642675998E+01  0.162630728E+00  0.270951528E+00
   H -0.322861370E+02  0.390365358E+01  0.308378892E+01
   H  0.313166614E+02 -0.288266960E+01 -0.379397863E+01
     4
 # iter = 63500  time[fs]=63.50000
   C -0.659299248E+01 -0.172202738E+00 -0.360873327E+00
   C  0.650626419E+01  0.165309894E+00  0.274634882E+00
   H -0.326506214E+02  0.394839925E+01  0.311865727E+01
   H  0.316679302E+02 -0.291468974E+01 -0.383734375E+01
     4
 # iter = 64000  time[fs]=64.00000
   C -0.667400968E+01 -0.174414892E+00 -0.365556810E+00
   C  0.658583004E+01  0.167991059E+00  0.278321915E+00
   H -0.330151841E+02  0.399315552E+01  0.315353451E+01
   H  0.320192820E+02 -0.294671873E+01 -0.388072031E+01
     4
 # iter = 64500  time[fs]=64.50000
   C -0.675508742E+01 -0.176629145E+00 -0.370243679E+00
   C  0.666545603E+01  0.170674181E+00  0.282012542E+00
   H -0.333798233E+02  0.403792214E+01  0.318842045E+01
   H  0.323707150E+02 -0.297875637E+01 -0.392410804E+01
     4
 # iter = 65000  time[fs]=65.00000
   C -0.683622425E+01 -0.178845450E+00 -0.374933860E+00
   C  0.674514073E+01  0.173359217E+00  0.285706683E+00
   H -0.337445373E+02  0.408269891E+01  0.322331491E+01
   H  0.327222275E+02 -0.301080250E+01 -0.396750673E+01
     4
 # iter = 65500  time[fs]=65.50000
   C -0.691741876E+01 -0.181063766E+00 -0.379627278E+00
   C  0.682488274E+01  0.176046128E+00  0.289404259E+00
   H -0.341093246E+02  0.412748561E+01  0.325821771E+01
   H  0.330738177E+02 -0.304285693E+01 -0.401091613E+01
     4
 # iter = 66000  time[fs]=66.00000
   C -0.699866960E+01 -0.183284049E+00 -0.384323860E+00
   C  0.690468072E+01  0.178734872E+00  0.293105195E+00
   H -0.344741837E+02  0.417228204E+01  0.329312867E+01
   H  0.334254840E+02 -0.307491948E+01 -0.405433604E+01
     4
 # iter = 66500  time[fs]=66.50000
   C -0.707997548E+01 -0.185506259E+00 -0.389023537E+00
   C  0.698453338E+01  0.181425414E+00  0.296809417E+00
   H -0.348391130E+02  0.421708799E+01  0.332804762E+01
   H  0.337772248E+02 -0.310699001E+01 -0.409776624E+01
     4
 # iter = 67000  time[fs]=67.00000
   C -0.716133513E+01 -0.187730357E+00 -0.393726243E+00
   C  0.706443945E+01  0.184117715E+00  0.300516855E+00
   H -0.352041110E+02  0.426190328E+01  0.336297442E+01
   H  0.341290387E+02 -0.313906833E+01 -0.414120653E+01
     4
 # iter = 67500  time[fs]=67.50000
   C -0.724274734E+01 -0.189956303E+00 -0.398431912E+00
   C  0.714439773E+01  0.186811740E+00  0.304227440E+00
   H -0.355691765E+02  0.430672771E+01  0.339790889E+01
   H  0.344809241E+02 -0.317115430E+01 -0.418465670E+01
     4
 # iter = 68000  time[fs]=68.00000
   C -0.732421092E+01 -0.192184061E+00 -0.403140480E+00
   C  0.722440705E+01  0.189507453E+00  0.307941105E+00
   H -0.359343079E+02  0.435156111E+01  0.343285088E+01
   H  0.348328796E+02 -0.320324776E+01 -0.422811655E+01
     4
 # iter = 68500  time[fs]=68.50000
   C -0.740572474E+01 -0.194413594E+00 -0.407851887E+00
   C  0.730446627E+01  0.192204823E+00  0.311657786E+00
   H -0.362995041E+02  0.439640330E+01  0.346780026E+01
   H  0.351849038E+02 -0.323534858E+01 -0.427158591E+01
     4
 # iter = 69000  time[fs]=69.00000
   C -0.748728769E+01 -0.196644867E+00 -0.412566074E+00
   C  0.738457430E+01  0.194903814E+00  0.315377420E+00
   H -0.366647636E+02  0.444125411E+01  0.350275686E+01
   H  0.355369954E+02 -0.326745659E+01 -0.431506459E+01
     4
 # iter = 69500  time[fs]=69.50000
   C -0.756889871E+01 -0.198877846E+00 -0.417282983E+00
   C  0.746473007E+01  0.197604396E+00  0.319099946E+00
   H -0.370300853E+02  0.448611336E+01  0.353772056E+01
   H  0.358891529E+02 -0.329957168E+01 -0.435855241E+01
     4
 # iter = 70000  time[fs]=70.00000
   C -0.765055676E+01 -0.201112498E+00 -0.422002558E+00
   C  0.754493255E+01  0.200306538E+00  0.322825307E+00
   H -0.373954680E+02  0.453098091E+01  0.357269122E+01
   H  0.362413752E+02 -0.333169369E+01 -0.440204920E+01
     4
 # iter = 70500  time[fs]=70.50000
   C -0.773226084E+01 -0.203348791E+00 -0.426724746E+00
   C  0.762518076E+01  0.203010209E+00  0.326553445E+00
   H -0.377609104E+02  0.457585659E+01  0.360766870E+01
   H  0.365936610E+02 -0.336382250E+01 -0.444555478E+01
     4
 # iter = 71000  time[fs]=71.00000
   C -0.781400998E+01 -0.205586693E+00 -0.431449494E+00
   C  0.770547372E+01  0.205715381E+00  0.330284304E+00
   H -0.381264115E+02  0.462074024E+01  0.364265288E+01
   H  0.369460091E+02 -0.339595799E+01 -0.448906900E+01
     4
 # iter = 71500  time[fs]=71.50000
   C -0.789580323E+01 -0.207826174E+00 -0.436176750E+00
   C  0.778581050E+01  0.208422025E+00  0.334017830E+00
   H -0.384919701E+02  0.466563173E+01  0.367764363E+01
   H  0.372984183E+02 -0.342810003E+01 -0.453259170E+01
     4
 # iter = 72000  time[fs]=72.00000
   C -0.797763970E+01 -0.210067204E+00 -0.440906467E+00
   C  0.786619019E+01  0.211130113E+00  0.337753973E+00
   H -0.388575852E+02  0.471053091E+01  0.371264083E+01
   H  0.376508875E+02 -0.346024849E+01 -0.457612272E+01
     4
 # iter = 72500  time[fs]=72.50000
   C -0.805951849E+01 -0.212309754E+00 -0.445638595E+00
   C  0.794661192E+01  0.213839619E+00  0.341492680E+00
   H -0.392232557E+02  0.475543763E+01  0.374764437E+01
   H  0.380034156E+02 -0.349240327E+01 -0.461966192E+01
     4
 # iter = 73000  time[fs]=73.00000
   C -0.814143874E+01 -0.214553797E+00 -0.450373088E+00
   C  0.802707482E+01  0.216550517E+00  0.345233903E+00
   H -0.395889805E+02  0.480035176E+01  0.378265413E+01
   H  0.383560015E+02 -0.352456424E+01 -0.466320914E+01
     4
 # iter = 73500  time[fs]=73.50000
   C -0.822339962E+01 -0.216799306E+00 -0.455109901E+00
   C  0.810757808E+01  0.219262780E+00  0.348977594E+00
   H -0.399547587E+02  0.484527317E+01  0.381766999E+01
   H  0.387086441E+02 -0.355673131E+01 -0.470676424E+01
     4
 # iter = 74000  time[fs]=74.00000
   C -0.830540033E+01 -0.219046253E+00 -0.459848989E+00
   C  0.818812089E+01  0.221976385E+00  0.352723706E+00
   H -0.403205894E+02  0.489020173E+01  0.385269186E+01
   H  0.390613425E+02 -0.358890435E+01 -0.475032709E+01
     4
 # iter = 74500  time[fs]=74.50000
   C -0.838744007E+01 -0.221294613E+00 -0.464590311E+00
   C  0.826870246E+01  0.224691306E+00  0.356472194E+00
   H -0.406864716E+02  0.493513731E+01  0.388771961E+01
   H  0.394140955E+02 -0.362108326E+01 -0.479389755E+01
     4
 # iter = 75000  time[fs]=75.00000
   C -0.846951810E+01 -0.223544360E+00 -0.469333824E+00
   C  0.834932205E+01  0.227407522E+00  0.360223014E+00
   H -0.410524043E+02  0.498007979E+01  0.392275316E+01
   H  0.397669024E+02 -0.365326795E+01 -0.483747548E+01
     4
 # iter = 75500  time[fs]=75.50000
   C -0.855163365E+01 -0.225795471E+00 -0.474079488E+00
   C  0.842997891E+01  0.230125008E+00  0.363976123E+00
   H -0.414183867E+02  0.502502905E+01  0.395779240E+01
   H  0.401197621E+02 -0.368545831E+01 -0.488106077E+01
     4
 # iter = 76000  time[fs]=76.00000
   C -0.863378603E+01 -0.228047921E+00 -0.478827264E+00
   C  0.851067233E+01  0.232843743E+00  0.367731480E+00
   H -0.417844180E+02  0.506998497E+01  0.399283723E+01
   H  0.404726736E+02 -0.371765424E+01 -0.492465328E+01
     4
 # iter = 76500  time[fs]=76.50000
   C -0.871597452E+01 -0.230301688E+00 -0.483577112E+00
   C  0.859140161E+01  0.235563705E+00  0.371489044E+00
   H -0.421504972E+02  0.511494745E+01  0.402788755E+01
   H  0.408256362E+02 -0.374985565E+01 -0.496825290E+01
     4
 # iter = 77000  time[fs]=77.00000
   C -0.879819845E+01 -0.232556747E+00 -0.488328997E+00
   C  0.867216609E+01  0.238284873E+00  0.375248776E+00
   H -0.425166236E+02  0.515991636E+01  0.406294328E+01
   H  0.411786490E+02 -0.378206245E+01 -0.501185950E+01
     4
 # iter = 77500  time[fs]=77.50000
   C -0.888045715E+01 -0.234813079E+00 -0.493082881E+00
   C  0.875296509E+01  0.241007226E+00  0.379010637E+00
   H -0.428827963E+02  0.520489161E+01  0.409800433E+01
   H  0.415317110E+02 -0.381427455E+01 -0.505547297E+01
     4
 # iter = 78000  time[fs]=78.00000
   C -0.896274999E+01 -0.237070660E+00 -0.497838730E+00
   C  0.883379798E+01  0.243730744E+00  0.382774589E+00
   H -0.432490146E+02  0.524987308E+01  0.413307060E+01
   H  0.418848215E+02 -0.384649186E+01 -0.509909320E+01
     4
 # iter = 78500  time[fs]=78.50000
   C -0.904507633E+01 -0.239329470E+00 -0.502596508E+00
   C  0.891466415E+01  0.246455407E+00  0.386540597E+00
   H -0.436152777E+02  0.529486068E+01  0.416814201E+01
   H  0.422379797E+02 -0.387871429E+01 -0.514272007E+01
     4
 # iter = 79000  time[fs]=79.00000
   C -0.912743558E+01 -0.241589488E+00 -0.507356183E+00
   C  0.899556297E+01  0.249181197E+00  0.390308625E+00
   H -0.439815849E+02  0.533985431E+01  0.420321848E+01
   H  0.425911847E+02 -0.391094177E+01 -0.518635348E+01
     4
 # iter = 79500  time[fs]=79.50000
   C -0.920982712E+01 -0.243850695E+00 -0.512117721E+00
   C  0.907649387E+01  0.251908095E+00  0.394078638E+00
   H -0.443479354E+02  0.538485386E+01  0.423829992E+01
   H  0.429444358E+02 -0.394317420E+01 -0.522999332E+01
     4
 # iter = 80000  time[fs]=80.00000
   C -0.929225040E+01 -0.246113071E+00 -0.516881090E+00
   C  0.915745628E+01  0.254636083E+00  0.397850602E+00
   H -0.447143285E+02  0.542985924E+01  0.427338625E+01
   H  0.432977323E+02 -0.397541152E+01 -0.527363950E+01
