     4
 # iter = 25000  time[fs]=25.00000
   C -0.958124430E+00 -0.155722176E-02  0.565711624E-01
   C  0.100751690E+01  0.968862204E-02 -0.129804963E-01
   H -0.529961425E+01  0.443298464E+00  0.138699196E+00
   H  0.527808175E+01 -0.247140757E+00 -0.323939542E+00
     4
 # iter = 25500  time[fs]=25.50000
   C -0.100207021E+01 -0.589059297E-02  0.572340956E-01
   C  0.104733568E+01  0.871063129E-02 -0.134878939E-01
   H -0.563759968E+01  0.458844352E+00  0.138386676E+00
   H  0.558794883E+01 -0.273783538E+00 -0.352729856E+00
     4
 # iter = 26000  time[fs]=26.00000
   C -0.105012120E+01 -0.111777150E-01  0.570910362E-01
   C  0.108935242E+01  0.678064862E-02 -0.150780243E-01
   H -0.598362638E+01  0.469216524E+00  0.132728281E+00
   H  0.589514174E+01 -0.305986197E+00 -0.387112097E+00
     4
 # iter = 26500  time[fs]=26.50000
   C -0.109927871E+01 -0.146789330E-01  0.588704679E-01
   C  0.113622425E+01  0.681698289E-02 -0.148234335E-01
   H -0.632130769E+01  0.490474417E+00  0.137804119E+00
   H  0.621546942E+01 -0.327638203E+00 -0.410972093E+00
     4
 # iter = 27000  time[fs]=27.00000
   C -0.114916344E+01 -0.162588828E-01  0.626972398E-01
   C  0.118785213E+01  0.896479949E-02 -0.125700941E-01
   H -0.664960198E+01  0.523391743E+00  0.154404558E+00
   H  0.654947690E+01 -0.337929835E+00 -0.423496941E+00
     4
 # iter = 27500  time[fs]=27.50000
   C -0.120158707E+01 -0.179561246E-01  0.665229784E-01
   C  0.124184054E+01  0.110544146E-01 -0.104792397E-01
   H -0.698027506E+01  0.555981505E+00  0.170556154E+00
   H  0.688496720E+01 -0.348824381E+00 -0.436647129E+00
     4
 # iter = 28000  time[fs]=28.00000
   C -0.125778336E+01 -0.212126108E-01  0.688966267E-01
   C  0.129644658E+01  0.115502884E-01 -0.100784682E-01
   H -0.732162015E+01  0.579759758E+00  0.177786535E+00
   H  0.721327703E+01 -0.368784477E+00 -0.458882907E+00
     4
 # iter = 28500  time[fs]=28.50000
   C -0.131697927E+01 -0.254446209E-01  0.703935022E-01
   C  0.135210076E+01  0.110722604E-01 -0.107405551E-01
   H -0.767005878E+01  0.598135420E+00  0.179514842E+00
   H  0.753767010E+01 -0.394376903E+00 -0.486769070E+00
     4
 # iter = 29000  time[fs]=29.00000
   C -0.137757218E+01 -0.292211598E-01  0.724368848E-01
   C  0.141015227E+01  0.111415093E-01 -0.109374962E-01
   H -0.801705733E+01  0.619492194E+00  0.184133766E+00
   H  0.786640863E+01 -0.417193849E+00 -0.511896115E+00
     4
 # iter = 29500  time[fs]=29.50000
   C -0.143891148E+01 -0.320471912E-01  0.755147570E-01
   C  0.147097010E+01  0.122826983E-01 -0.101383444E-01
   H -0.835959660E+01  0.646719075E+00  0.194540057E+00
   H  0.820227136E+01 -0.434327651E+00 -0.531354890E+00
     4
 # iter = 30000  time[fs]=30.00000
   C -0.150154746E+01 -0.346138322E-01  0.789295687E-01
   C  0.153367563E+01  0.137577952E-01 -0.907536579E-02
   H -0.870163832E+01  0.675741512E+00  0.206665833E+00
   H  0.854108093E+01 -0.449840036E+00 -0.549205798E+00
     4
 # iter = 30500  time[fs]=30.50000
   C -0.156612401E+01 -0.376921211E-01  0.819044227E-01
   C  0.159731881E+01  0.147436157E-01 -0.856647095E-02
   H -0.904762584E+01  0.702016731E+00  0.215974175E+00
   H  0.887820250E+01 -0.468262934E+00 -0.569979597E+00
     4
 # iter = 31000  time[fs]=31.00000
   C -0.163253598E+01 -0.412915069E-01  0.844245363E-01
   C  0.166177260E+01  0.152275798E-01 -0.861942769E-02
   H -0.939754000E+01  0.725474737E+00  0.222400321E+00
   H  0.921348699E+01 -0.489654529E+00 -0.593733445E+00
     4
 # iter = 31500  time[fs]=31.50000
   C -0.170017493E+01 -0.449068888E-01  0.869901567E-01
   C  0.172746883E+01  0.157448102E-01 -0.869472691E-02
   H -0.974834836E+01  0.749067672E+00  0.228901119E+00
   H  0.954981817E+01 -0.511050479E+00 -0.617502100E+00
     4
 # iter = 32000  time[fs]=32.00000
   C -0.176863402E+01 -0.482246549E-01  0.899104796E-01
   C  0.179464562E+01  0.166266581E-01 -0.845701864E-02
   H -0.100981504E+02  0.774624035E+00  0.237309273E+00
   H  0.988896270E+01 -0.530611791E+00 -0.639445764E+00
     4
 # iter = 32500  time[fs]=32.50000
   C -0.183796001E+01 -0.513758952E-01  0.930503959E-01
   C  0.186307685E+01  0.177312093E-01 -0.804457109E-02
   H -0.104476638E+02  0.801361863E+00  0.246846575E+00
   H  0.102300812E+02 -0.549112299E+00 -0.660337552E+00
     4
 # iter = 33000  time[fs]=33.00000
   C -0.190834836E+01 -0.546323199E-01  0.961345348E-01
   C  0.193239485E+01  0.187669683E-01 -0.774555466E-02
   H -0.107984372E+02  0.827674307E+00  0.255909552E+00
   H  0.105715144E+02 -0.568151998E+00 -0.681776807E+00
     4
 # iter = 33500  time[fs]=33.50000
   C -0.197980874E+01 -0.580726796E-01  0.990808082E-01
   C  0.200244467E+01  0.196479335E-01 -0.764293674E-02
   H -0.111508910E+02  0.853088387E+00  0.264028282E+00
   H  0.109127421E+02 -0.588197112E+00 -0.704229170E+00
     4
 # iter = 34000  time[fs]=34.00000
   C -0.205216100E+01 -0.615794405E-01  0.102003703E+00
   C  0.207328677E+01  0.204971394E-01 -0.761091235E-02
   H -0.115042969E+02  0.878284441E+00  0.271885887E+00
   H  0.112544028E+02 -0.608560556E+00 -0.727007029E+00
     4
 # iter = 34500  time[fs]=34.50000
   C -0.212523339E+01 -0.650377194E-01  0.105015319E+00
   C  0.214498468E+01  0.214349073E-01 -0.752662737E-02
   H -0.118579458E+02  0.903927882E+00  0.280150319E+00
   H  0.115971235E+02 -0.628570731E+00 -0.749438310E+00
     4
 # iter = 35000  time[fs]=35.00000
   C -0.219897504E+01 -0.684484018E-01  0.108112223E+00
   C  0.221748389E+01  0.224584397E-01 -0.739056096E-02
   H -0.122118115E+02  0.930004912E+00  0.288810099E+00
   H  0.119408551E+02 -0.648236118E+00 -0.771531063E+00
     4
 # iter = 35500  time[fs]=35.50000
   C -0.227340297E+01 -0.718756603E-01  0.111227909E+00
   C  0.229066727E+01  0.234976809E-01 -0.727064404E-02
   H -0.125662422E+02  0.956130683E+00  0.297482495E+00
   H  0.122851801E+02 -0.667936891E+00 -0.793665066E+00
     4
 # iter = 36000  time[fs]=36.00000
   C -0.234850868E+01 -0.753540539E-01  0.114325675E+00
   C  0.236445338E+01  0.245141992E-01 -0.720335899E-02
   H -0.129214147E+02  0.982094792E+00  0.305959049E+00
   H  0.126298581E+02 -0.687879077E+00 -0.816045987E+00
     4
 # iter = 36500  time[fs]=36.50000
   C -0.242423650E+01 -0.788672838E-01  0.117419853E+00
   C  0.243881872E+01  0.255237945E-01 -0.717111429E-02
   H -0.132772095E+02  0.100798599E+01  0.314330307E+00
   H  0.129749506E+02 -0.707969735E+00 -0.838580556E+00
     4
 # iter = 37000  time[fs]=37.00000
   C -0.250052243E+01 -0.823873894E-01  0.120536591E+00
   C  0.251375559E+01  0.265547724E-01 -0.714395606E-02
   H -0.136334402E+02  0.103396197E+01  0.322755615E+00
   H  0.133205898E+02 -0.728047263E+00 -0.861106870E+00
     4
 # iter = 37500  time[fs]=37.50000
   C -0.257732597E+01 -0.859069516E-01  0.123681639E+00
   C  0.258923748E+01  0.276136611E-01 -0.711383748E-02
   H -0.139900429E+02  0.106006022E+01  0.331273991E+00
   H  0.136667901E+02 -0.748070613E+00 -0.883583603E+00
     4
 # iter = 38000  time[fs]=38.00000
   C -0.265462630E+01 -0.894355428E-01  0.126843885E+00
   C  0.266522257E+01  0.286889850E-01 -0.709083259E-02
   H -0.143470551E+02  0.108621884E+01  0.339824955E+00
   H  0.140134676E+02 -0.768098431E+00 -0.906069146E+00
     4
 # iter = 38500  time[fs]=38.50000
   C -0.273240360E+01 -0.929813456E-01  0.130013721E+00
   C  0.274167300E+01  0.297708252E-01 -0.708356517E-02
   H -0.147045075E+02  0.111238448E+01  0.348356457E+00
   H  0.143605489E+02 -0.788181062E+00 -0.928613609E+00
     4
 # iter = 39000  time[fs]=39.00000
   C -0.281063116E+01 -0.965434353E-01  0.133190754E+00
   C  0.281856285E+01  0.308590295E-01 -0.709098920E-02
   H -0.150623785E+02  0.113855757E+01  0.356870172E+00
   H  0.147080156E+02 -0.808315215E+00 -0.951213484E+00
     4
 # iter = 39500  time[fs]=39.50000
   C -0.288928023E+01 -0.100116891E+00  0.136378682E+00
   C  0.289587250E+01  0.319577678E-01 -0.710782433E-02
   H -0.154206243E+02  0.116476236E+01  0.365391477E+00
   H  0.150558747E+02 -0.828473992E+00 -0.973841671E+00
     4
 # iter = 40000  time[fs]=40.00000
   C -0.296832618E+01 -0.103699111E+00  0.139578972E+00
   C  0.297358172E+01  0.330688028E-01 -0.713127762E-02
   H -0.157792156E+02  0.119100974E+01  0.373932328E+00
   H  0.154041207E+02 -0.848644021E+00 -0.996484611E+00
     4
 # iter = 40500  time[fs]=40.50000
   C -0.304774906E+01 -0.107290567E+00  0.142790099E+00
   C  0.305166869E+01  0.341906885E-01 -0.716183761E-02
   H -0.161381421E+02  0.121729284E+01  0.382486854E+00
   H  0.157527315E+02 -0.868829859E+00 -0.101914669E+01
     4
 # iter = 41000  time[fs]=41.00000
   C -0.312753092E+01 -0.110892234E+00  0.146010105E+00
   C  0.313011258E+01  0.353214954E-01 -0.720054319E-02
   H -0.164973975E+02  0.124360208E+01  0.391046396E+00
   H  0.161016833E+02 -0.889038936E+00 -0.104183517E+01
     4
 # iter = 41500  time[fs]=41.50000
   C -0.320765405E+01 -0.114503990E+00  0.149238199E+00
   C  0.320889511E+01  0.364605150E-01 -0.724727323E-02
   H -0.168569696E+02  0.126993454E+01  0.399608916E+00
   H  0.164509599E+02 -0.909272130E+00 -0.106455078E+01
     4
 # iter = 42000  time[fs]=42.00000
   C -0.328810122E+01 -0.118124972E+00  0.152474387E+00
   C  0.328800008E+01  0.376078735E-01 -0.730112757E-02
   H -0.172168427E+02  0.129629186E+01  0.408176878E+00
   H  0.168005503E+02 -0.929525888E+00 -0.108728984E+01
     4
 # iter = 42500  time[fs]=42.50000
   C -0.336885646E+01 -0.121754454E+00  0.155718599E+00
   C  0.336741231E+01  0.387635986E-01 -0.736135576E-02
   H -0.175770025E+02  0.132267511E+01  0.416752102E+00
   H  0.171504440E+02 -0.949797362E+00 -0.111004935E+01
     4
 # iter = 43000  time[fs]=43.00000
   C -0.344990523E+01 -0.125392105E+00  0.158970419E+00
   C  0.344711724E+01  0.399273373E-01 -0.742763504E-02
   H -0.179374377E+02  0.134908317E+01  0.425334219E+00
   H  0.175006287E+02 -0.970085960E+00 -0.113282861E+01
     4
 # iter = 43500  time[fs]=43.50000
   C -0.353123408E+01 -0.129037749E+00  0.162229325E+00
   C  0.352710115E+01  0.410986130E-01 -0.749980932E-02
   H -0.182981384E+02  0.137551424E+01  0.433922087E+00
   H  0.178510923E+02 -0.990391910E+00 -0.115562773E+01
     4
 # iter = 44000  time[fs]=44.00000
   C -0.361283034E+01 -0.132691136E+00  0.165494910E+00
   C  0.360735129E+01  0.422770614E-01 -0.757765006E-02
   H -0.186590948E+02  0.140196705E+01  0.442515105E+00
   H  0.182018235E+02 -0.101071495E+01 -0.117844634E+01
     4
 # iter = 44500  time[fs]=44.50000
   C -0.369468205E+01 -0.136351941E+00  0.168766884E+00
   C  0.368785579E+01  0.434624349E-01 -0.766084856E-02
   H -0.190202971E+02  0.142844098E+01  0.451113241E+00
   H  0.185528126E+02 -0.103105431E+01 -0.120128356E+01
     4
 # iter = 45000  time[fs]=45.00000
   C -0.377677801E+01 -0.140019843E+00  0.172044989E+00
   C  0.376860357E+01  0.446545104E-01 -0.774910532E-02
   H -0.193817360E+02  0.145493547E+01  0.459716528E+00
   H  0.189040502E+02 -0.105140919E+01 -0.122413850E+01
     4
 # iter = 45500  time[fs]=45.50000
   C -0.385910771E+01 -0.143694571E+00  0.175328953E+00
   C  0.384958417E+01  0.458530449E-01 -0.784217213E-02
   H -0.197434028E+02  0.148144984E+01  0.468324819E+00
   H  0.192555274E+02 -0.107177899E+01 -0.124701048E+01
     4
 # iter = 46000  time[fs]=46.00000
   C -0.394166132E+01 -0.147375883E+00  0.178618504E+00
   C  0.393078776E+01  0.470577892E-01 -0.793983568E-02
   H -0.201052895E+02  0.150798333E+01  0.476937876E+00
   H  0.196072355E+02 -0.109216327E+01 -0.126989897E+01
     4
 # iter = 46500  time[fs]=46.50000
   C -0.402442955E+01 -0.151063548E+00  0.181913391E+00
   C  0.401220509E+01  0.482685101E-01 -0.804189336E-02
   H -0.204673884E+02  0.153453524E+01  0.485555487E+00
   H  0.199591664E+02 -0.111256159E+01 -0.129280344E+01
     4
 # iter = 47000  time[fs]=47.00000
   C -0.410740369E+01 -0.154757338E+00  0.185213385E+00
   C  0.409382745E+01  0.494849946E-01 -0.814814737E-02
   H -0.208296921E+02  0.156110494E+01  0.494177500E+00
   H  0.203113125E+02 -0.113297348E+01 -0.131572335E+01
     4
 # iter = 47500  time[fs]=47.50000
   C -0.419057549E+01 -0.158457035E+00  0.188518274E+00
   C  0.417564666E+01  0.507070427E-01 -0.825840977E-02
   H -0.211921939E+02  0.158769188E+01  0.502803781E+00
   H  0.206636665E+02 -0.115339847E+01 -0.133865817E+01
     4
 # iter = 48000  time[fs]=48.00000
   C -0.427393719E+01 -0.162162434E+00  0.191827856E+00
   C  0.425765496E+01  0.519344625E-01 -0.837250584E-02
   H -0.215548869E+02  0.161429547E+01  0.511434194E+00
   H  0.210162214E+02 -0.117383615E+01 -0.136160740E+01
     4
 # iter = 48500  time[fs]=48.50000
   C -0.435748145E+01 -0.165873339E+00  0.195141941E+00
   C  0.433984505E+01  0.531670698E-01 -0.849027300E-02
   H -0.219177650E+02  0.164091520E+01  0.520068601E+00
   H  0.213689707E+02 -0.119428610E+01 -0.138457059E+01
     4
 # iter = 49000  time[fs]=49.00000
   C -0.444120135E+01 -0.169589566E+00  0.198460347E+00
   C  0.442221002E+01  0.544046895E-01 -0.861155840E-02
   H -0.222808222E+02  0.166755055E+01  0.528706872E+00
   H  0.217219081E+02 -0.121474797E+01 -0.140754729E+01
     4
 # iter = 49500  time[fs]=49.50000
   C -0.452509032E+01 -0.173310938E+00  0.201782907E+00
   C  0.450474333E+01  0.556471550E-01 -0.873621764E-02
   H -0.226440528E+02  0.169420102E+01  0.537348882E+00
   H  0.220750276E+02 -0.123522137E+01 -0.143053709E+01
     4
 # iter = 50000  time[fs]=50.00000
   C -0.460914215E+01 -0.177037288E+00  0.205109459E+00
   C  0.458743880E+01  0.568943078E-01 -0.886411437E-02
   H -0.230074513E+02  0.172086617E+01  0.545994515E+00
   H  0.224283236E+02 -0.125570596E+01 -0.145353957E+01
     4
 # iter = 50500  time[fs]=50.50000
   C -0.469335095E+01 -0.180768454E+00  0.208439853E+00
   C  0.467029055E+01  0.581459968E-01 -0.899512001E-02
   H -0.233710126E+02  0.174754553E+01  0.554643662E+00
   H  0.227817905E+02 -0.127620142E+01 -0.147655436E+01
     4
 # iter = 51000  time[fs]=51.00000
   C -0.477771113E+01 -0.184504284E+00  0.211773946E+00
   C  0.475329303E+01  0.594020778E-01 -0.912911321E-02
   H -0.237347318E+02  0.177423870E+01  0.563296214E+00
   H  0.231354233E+02 -0.129670741E+01 -0.149958109E+01
     4
 # iter = 51500  time[fs]=51.50000
   C -0.486221740E+01 -0.188244631E+00  0.215111602E+00
   C  0.483644095E+01  0.606624127E-01 -0.926597927E-02
   H -0.240986041E+02  0.180094527E+01  0.571952071E+00
   H  0.234892169E+02 -0.131722364E+01 -0.152261940E+01
     4
 # iter = 52000  time[fs]=52.00000
   C -0.494686472E+01 -0.191989356E+00  0.218452692E+00
   C  0.491972929E+01  0.619268702E-01 -0.940560967E-02
   H -0.244626251E+02  0.182766485E+01  0.580611135E+00
   H  0.238431666E+02 -0.133774982E+01 -0.154566897E+01
     4
 # iter = 52500  time[fs]=52.50000
   C -0.503164829E+01 -0.195738325E+00  0.221797096E+00
   C  0.500315328E+01  0.631953242E-01 -0.954790163E-02
   H -0.248267903E+02  0.185439706E+01  0.589273313E+00
   H  0.241972679E+02 -0.135828566E+01 -0.156872947E+01
     4
 # iter = 53000  time[fs]=53.00000
   C -0.511656356E+01 -0.199491411E+00  0.225144696E+00
   C  0.508670838E+01  0.644676545E-01 -0.969275774E-02
   H -0.251910957E+02  0.188114157E+01  0.597938517E+00
   H  0.245515165E+02 -0.137883091E+01 -0.159180059E+01
     4
 # iter = 53500  time[fs]=53.50000
   C -0.520160619E+01 -0.203248492E+00  0.228495384E+00
   C  0.517039027E+01  0.657437458E-01 -0.984008561E-02
   H -0.255555373E+02  0.190789801E+01  0.606606660E+00
   H  0.249059081E+02 -0.139938530E+01 -0.161488203E+01
     4
 # iter = 54000  time[fs]=54.00000
   C -0.528677205E+01 -0.207009451E+00  0.231849055E+00
   C  0.525419482E+01  0.670234881E-01 -0.998979755E-02
   H -0.259201113E+02  0.193466608E+01  0.615277661E+00
   H  0.252604389E+02 -0.141994858E+01 -0.163797352E+01
     4
 # iter = 54500  time[fs]=54.50000
   C -0.537205719E+01 -0.210774175E+00  0.235205610E+00
   C  0.533811812E+01  0.683067755E-01 -0.101418102E-01
   H -0.262848142E+02  0.196144546E+01  0.623951442E+00
   H  0.256151049E+02 -0.144052053E+01 -0.166107479E+01
     4
 # iter = 55000  time[fs]=55.00000
   C -0.545745784E+01 -0.214542557E+00  0.238564953E+00
   C  0.542215640E+01  0.695935068E-01 -0.102960445E-01
   H -0.266496423E+02  0.198823584E+01  0.632627927E+00
   H  0.259699026E+02 -0.146110091E+01 -0.168418557E+01
     4
 # iter = 55500  time[fs]=55.50000
   C -0.554297043E+01 -0.218314495E+00  0.241926996E+00
   C  0.550630610E+01  0.708835850E-01 -0.104524249E-01
   H -0.270145923E+02  0.201503693E+01  0.641307044E+00
   H  0.263248283E+02 -0.148168950E+01 -0.170730561E+01
     4
 # iter = 56000  time[fs]=56.00000
   C -0.562859151E+01 -0.222089889E+00  0.245291651E+00
   C  0.559056379E+01  0.721769168E-01 -0.106108799E-01
   H -0.273796610E+02  0.204184847E+01  0.649988724E+00
   H  0.266798788E+02 -0.150228611E+01 -0.173043467E+01
     4
 # iter = 56500  time[fs]=56.50000
   C -0.571431780E+01 -0.225868644E+00  0.248658836E+00
   C  0.567492621E+01  0.734734129E-01 -0.107713409E-01
   H -0.277448454E+02  0.206867019E+01  0.658672900E+00
   H  0.270350507E+02 -0.152289051E+01 -0.175357252E+01
     4
 # iter = 57000  time[fs]=57.00000
   C -0.580014617E+01 -0.229650671E+00  0.252028474E+00
   C  0.575939024E+01  0.747729872E-01 -0.109337428E-01
   H -0.281101424E+02  0.209550182E+01  0.667359508E+00
   H  0.273903410E+02 -0.154350253E+01 -0.177671894E+01
     4
 # iter = 57500  time[fs]=57.50000
   C -0.588607361E+01 -0.233435880E+00  0.255400489E+00
   C  0.584395287E+01  0.760755574E-01 -0.110980236E-01
   H -0.284755492E+02  0.212234312E+01  0.676048486E+00
   H  0.277457466E+02 -0.156412198E+01 -0.179987371E+01
     4
 # iter = 58000  time[fs]=58.00000
   C -0.597209725E+01 -0.237224188E+00  0.258774811E+00
   C  0.592861125E+01  0.773810439E-01 -0.112641238E-01
   H -0.288410631E+02  0.214919385E+01  0.684739775E+00
   H  0.281012646E+02 -0.158474866E+01 -0.182303664E+01
     4
 # iter = 58500  time[fs]=58.50000
   C -0.605821433E+01 -0.241015514E+00  0.262151369E+00
   C  0.601336263E+01  0.786893706E-01 -0.114319868E-01
   H -0.292066813E+02  0.217605379E+01  0.693433317E+00
   H  0.284568924E+02 -0.160538242E+01 -0.184620751E+01
     4
 # iter = 59000  time[fs]=59.00000
   C -0.614442221E+01 -0.244809780E+00  0.265530099E+00
   C  0.609820437E+01  0.800004639E-01 -0.116015584E-01
   H -0.295724013E+02  0.220292271E+01  0.702129058E+00
   H  0.288126270E+02 -0.162602307E+01 -0.186938613E+01
     4
 # iter = 59500  time[fs]=59.50000
   C -0.623071835E+01 -0.248606912E+00  0.268910939E+00
   C  0.618313396E+01  0.813142531E-01 -0.117727867E-01
   H -0.299382207E+02  0.222980040E+01  0.710826944E+00
   H  0.291684661E+02 -0.164667047E+01 -0.189257233E+01
     4
 # iter = 60000  time[fs]=60.00000
   C -0.631710032E+01 -0.252406836E+00  0.272293827E+00
   C  0.626814897E+01  0.826306703E-01 -0.119456223E-01
   H -0.303041371E+02  0.225668665E+01  0.719526924E+00
   H  0.295244071E+02 -0.166732445E+01 -0.191576592E+01
     4
 # iter = 60500  time[fs]=60.50000
   C -0.640356578E+01 -0.256209483E+00  0.275678706E+00
   C  0.635324708E+01  0.839496497E-01 -0.121200176E-01
   H -0.306701481E+02  0.228358127E+01  0.728228949E+00
   H  0.298804475E+02 -0.168798486E+01 -0.193896674E+01
     4
 # iter = 61000  time[fs]=61.00000
   C -0.649011249E+01 -0.260014787E+00  0.279065522E+00
   C  0.643842604E+01  0.852711283E-01 -0.122959272E-01
   H -0.310362517E+02  0.231048406E+01  0.736932971E+00
   H  0.302365851E+02 -0.170865156E+01 -0.196217461E+01
     4
 # iter = 61500  time[fs]=61.50000
   C -0.657673829E+01 -0.263822682E+00  0.282454220E+00
   C  0.652368372E+01  0.865950449E-01 -0.124733075E-01
   H -0.314024455E+02  0.233739484E+01  0.745638943E+00
   H  0.305928176E+02 -0.172932441E+01 -0.198538938E+01
     4
 # iter = 62000  time[fs]=62.00000
   C -0.666344112E+01 -0.267633106E+00  0.285844749E+00
   C  0.660901804E+01  0.879213409E-01 -0.126521166E-01
   H -0.317687277E+02  0.236431343E+01  0.754346823E+00
   H  0.309491429E+02 -0.175000327E+01 -0.200861088E+01
     4
 # iter = 62500  time[fs]=62.50000
   C -0.675021896E+01 -0.271446000E+00  0.289237062E+00
   C  0.669442702E+01  0.892499594E-01 -0.128323146E-01
   H -0.321350962E+02  0.239123965E+01  0.763056565E+00
   H  0.313055588E+02 -0.177068801E+01 -0.203183898E+01
     4
 # iter = 63000  time[fs]=63.00000
   C -0.683706991E+01 -0.275261304E+00  0.292631110E+00
   C  0.677990875E+01  0.905808457E-01 -0.130138628E-01
   H -0.325015490E+02  0.241817335E+01  0.771768129E+00
   H  0.316620633E+02 -0.179137850E+01 -0.205507352E+01
     4
 # iter = 63500  time[fs]=63.50000
   C -0.692399211E+01 -0.279078963E+00  0.296026848E+00
   C  0.686546138E+01  0.919139468E-01 -0.131967243E-01
   H -0.328680843E+02  0.244511435E+01  0.780481475E+00
   H  0.320186545E+02 -0.181207462E+01 -0.207831437E+01
     4
 # iter = 64000  time[fs]=64.00000
   C -0.701098377E+01 -0.282898923E+00  0.299424233E+00
   C  0.695108314E+01  0.932492117E-01 -0.133808637E-01
   H -0.332347003E+02  0.247206251E+01  0.789196564E+00
   H  0.323753305E+02 -0.183277625E+01 -0.210156139E+01
     4
 # iter = 64500  time[fs]=64.50000
   C -0.709804319E+01 -0.286721131E+00  0.302823222E+00
   C  0.703677232E+01  0.945865910E-01 -0.135662466E-01
   H -0.336013953E+02  0.249901766E+01  0.797913357E+00
   H  0.327320894E+02 -0.185348327E+01 -0.212481444E+01
     4
 # iter = 65000  time[fs]=65.00000
   C -0.718516871E+01 -0.290545536E+00  0.306223776E+00
   C  0.712252727E+01  0.959260368E-01 -0.137528404E-01
   H -0.339681675E+02  0.252597967E+01  0.806631820E+00
   H  0.330889296E+02 -0.187419557E+01 -0.214807341E+01
     4
 # iter = 65500  time[fs]=65.50000
   C -0.727235873E+01 -0.294372090E+00  0.309625856E+00
   C  0.720834640E+01  0.972675031E-01 -0.139406133E-01
   H -0.343350153E+02  0.255294839E+01  0.815351916E+00
   H  0.334458491E+02 -0.189491305E+01 -0.217133816E+01
     4
 # iter = 66000  time[fs]=66.00000
   C -0.735961170E+01 -0.298200745E+00  0.313029423E+00
   C  0.729422818E+01  0.986109451E-01 -0.141295350E-01
   H -0.347019372E+02  0.257992368E+01  0.824073611E+00
   H  0.338028465E+02 -0.191563560E+01 -0.219460858E+01
     4
 # iter = 66500  time[fs]=66.50000
   C -0.744692615E+01 -0.302031455E+00  0.316434441E+00
   C  0.738017112E+01  0.999563196E-01 -0.143195762E-01
   H -0.350689316E+02  0.260690541E+01  0.832796872E+00
   H  0.341599200E+02 -0.193636311E+01 -0.221788456E+01
     4
 # iter = 67000  time[fs]=67.00000
   C -0.753430063E+01 -0.305864176E+00  0.319840877E+00
   C  0.746617380E+01  0.101303585E+00 -0.145107085E-01
   H -0.354359971E+02  0.263389344E+01  0.841521667E+00
   H  0.345170682E+02 -0.195709549E+01 -0.224116597E+01
     4
 # iter = 67500  time[fs]=67.50000
   C -0.762173376E+01 -0.309698865E+00  0.323248695E+00
   C  0.755223483E+01  0.102652700E+00 -0.147029048E-01
   H -0.358031321E+02  0.266088767E+01  0.850247965E+00
   H  0.348742894E+02 -0.197783264E+01 -0.226445271E+01
     4
 # iter = 68000  time[fs]=68.00000
   C -0.770922419E+01 -0.313535479E+00  0.326657864E+00
   C  0.763835288E+01  0.104003626E+00 -0.148961390E-01
   H -0.361703353E+02  0.268788795E+01  0.858975736E+00
   H  0.352315823E+02 -0.199857447E+01 -0.228774468E+01
     4
 # iter = 68500  time[fs]=68.50000
   C -0.779677063E+01 -0.317373980E+00  0.330068352E+00
   C  0.772452665E+01  0.105356324E+00 -0.150903855E-01
   H -0.365376053E+02  0.271489418E+01  0.867704950E+00
   H  0.355889454E+02 -0.201932089E+01 -0.231104178E+01
     4
 # iter = 69000  time[fs]=69.00000
   C -0.788437182E+01 -0.321214327E+00  0.333480129E+00
   C  0.781075490E+01  0.106710759E+00 -0.152856201E-01
   H -0.369049408E+02  0.274190623E+01  0.876435579E+00
   H  0.359463773E+02 -0.204007180E+01 -0.233434389E+01
     4
 # iter = 69500  time[fs]=69.50000
   C -0.797202656E+01 -0.325056482E+00  0.336893165E+00
   C  0.789703643E+01  0.108066894E+00 -0.154818192E-01
   H -0.372723405E+02  0.276892400E+01  0.885167595E+00
   H  0.363038767E+02 -0.206082713E+01 -0.235765093E+01
     4
 # iter = 70000  time[fs]=70.00000
   C -0.805973366E+01 -0.328900410E+00  0.340307432E+00
   C  0.798337005E+01  0.109424694E+00 -0.156789599E-01
   H -0.376398033E+02  0.279594738E+01  0.893900972E+00
   H  0.366614423E+02 -0.208158680E+01 -0.238096281E+01
     4
 # iter = 70500  time[fs]=70.50000
   C -0.814749199E+01 -0.332746073E+00  0.343722903E+00
   C  0.806975464E+01  0.110784125E+00 -0.158770203E-01
   H -0.380073278E+02  0.282297626E+01  0.902635684E+00
   H  0.370190727E+02 -0.210235071E+01 -0.240427942E+01
     4
 # iter = 71000  time[fs]=71.00000
   C -0.823530045E+01 -0.336593438E+00  0.347139550E+00
   C  0.815618911E+01  0.112145156E+00 -0.160759791E-01
   H -0.383749129E+02  0.285001054E+01  0.911371705E+00
   H  0.373767668E+02 -0.212311879E+01 -0.242760069E+01
     4
 # iter = 71500  time[fs]=71.50000
   C -0.832315797E+01 -0.340442470E+00  0.350557349E+00
   C  0.824267239E+01  0.113507754E+00 -0.162758158E-01
   H -0.387425575E+02  0.287705012E+01  0.920109010E+00
   H  0.377345235E+02 -0.214389097E+01 -0.245092653E+01
     4
 # iter = 72000  time[fs]=72.00000
   C -0.841106352E+01 -0.344293138E+00  0.353976275E+00
   C  0.832920345E+01  0.114871889E+00 -0.164765104E-01
   H -0.391102605E+02  0.290409490E+01  0.928847576E+00
   H  0.380923414E+02 -0.216466717E+01 -0.247425684E+01
     4
 # iter = 72500  time[fs]=72.50000
   C -0.849901610E+01 -0.348145408E+00  0.357396302E+00
   C  0.841578130E+01  0.116237530E+00 -0.166780439E-01
   H -0.394780207E+02  0.293114480E+01  0.937587379E+00
   H  0.384502195E+02 -0.218544732E+01 -0.249759156E+01
     4
 # iter = 73000  time[fs]=73.00000
   C -0.858701474E+01 -0.351999252E+00  0.360817409E+00
   C  0.850240497E+01  0.117604649E+00 -0.168803975E-01
   H -0.398458372E+02  0.295819971E+01  0.946328398E+00
   H  0.388081567E+02 -0.220623135E+01 -0.252093060E+01
     4
 # iter = 73500  time[fs]=73.50000
   C -0.867505850E+01 -0.355854637E+00  0.364239572E+00
   C  0.858907352E+01  0.118973217E+00 -0.170835532E-01
   H -0.402137088E+02  0.298525954E+01  0.955070609E+00
   H  0.391661518E+02 -0.222701920E+01 -0.254427388E+01
     4
 # iter = 74000  time[fs]=74.00000
   C -0.876314645E+01 -0.359711536E+00  0.367662770E+00
   C  0.867578605E+01  0.120343207E+00 -0.172874936E-01
   H -0.405816347E+02  0.301232422E+01  0.963813991E+00
   H  0.395242040E+02 -0.224781078E+01 -0.256762133E+01
     4
 # iter = 74500  time[fs]=74.50000
   C -0.885127772E+01 -0.363569920E+00  0.371086981E+00
   C  0.876254166E+01  0.121714593E+00 -0.174922018E-01
   H -0.409496139E+02  0.303939366E+01  0.972558525E+00
   H  0.398823121E+02 -0.226860604E+01 -0.259097287E+01
     4
 # iter = 75000  time[fs]=75.00000
   C -0.893945145E+01 -0.367429761E+00  0.374512184E+00
   C  0.884933951E+01  0.123087348E+00 -0.176976615E-01
   H -0.413176454E+02  0.306646776E+01  0.981304188E+00
   H  0.402404752E+02 -0.228940492E+01 -0.261432844E+01
     4
 # iter = 75500  time[fs]=75.50000
   C -0.902766679E+01 -0.371291033E+00  0.377938360E+00
   C  0.893617877E+01  0.124461446E+00 -0.179038567E-01
   H -0.416857283E+02  0.309354646E+01  0.990050962E+00
   H  0.405986922E+02 -0.231020736E+01 -0.263768797E+01
     4
 # iter = 76000  time[fs]=76.00000
   C -0.911592294E+01 -0.375153710E+00  0.381365489E+00
   C  0.902305861E+01  0.125836865E+00 -0.181107721E-01
   H -0.420538617E+02  0.312062968E+01  0.998798827E+00
   H  0.409569624E+02 -0.233101328E+01 -0.266105138E+01
     4
 # iter = 76500  time[fs]=76.50000
   C -0.920421911E+01 -0.379017766E+00  0.384793552E+00
   C  0.910997827E+01  0.127213578E+00 -0.183183927E-01
   H -0.424220447E+02  0.314771734E+01  0.100754776E+01
   H  0.413152847E+02 -0.235182265E+01 -0.268441861E+01
     4
 # iter = 77000  time[fs]=77.00000
   C -0.929255453E+01 -0.382883176E+00  0.388222532E+00
   C  0.919693697E+01  0.128591565E+00 -0.185267041E-01
   H -0.427902766E+02  0.317480936E+01  0.101629776E+01
   H  0.416736582E+02 -0.237263539E+01 -0.270778960E+01
     4
 # iter = 77500  time[fs]=77.50000
   C -0.938092845E+01 -0.386749917E+00  0.391652409E+00
   C  0.928393397E+01  0.129970801E+00 -0.187356923E-01
   H -0.431585564E+02  0.320190567E+01  0.102504879E+01
   H  0.420320822E+02 -0.239345145E+01 -0.273116428E+01
     4
 # iter = 78000  time[fs]=78.00000
   C -0.946934016E+01 -0.390617965E+00  0.395083167E+00
   C  0.937096856E+01  0.131351264E+00 -0.189453435E-01
   H -0.435268834E+02  0.322900620E+01  0.103380083E+01
   H  0.423905557E+02 -0.241427079E+01 -0.275454259E+01
     4
 # iter = 78500  time[fs]=78.50000
   C -0.955778894E+01 -0.394487297E+00  0.398514790E+00
   C  0.945804003E+01  0.132732934E+00 -0.191556446E-01
   H -0.438952567E+02  0.325611088E+01  0.104255388E+01
   H  0.427490779E+02 -0.243509333E+01 -0.277792448E+01
     4
 # iter = 79000  time[fs]=79.00000
   C -0.964627412E+01 -0.398357891E+00  0.401947260E+00
   C  0.954514770E+01  0.134115789E+00 -0.193665827E-01
   H -0.442636757E+02  0.328321965E+01  0.105130792E+01
   H  0.431076480E+02 -0.245591905E+01 -0.280130988E+01
     4
 # iter = 79500  time[fs]=79.50000
   C -0.973479503E+01 -0.402229725E+00  0.405380562E+00
   C  0.963229091E+01  0.135499808E+00 -0.195781454E-01
   H -0.446321396E+02  0.331033244E+01  0.106006292E+01
   H  0.434662653E+02 -0.247674787E+01 -0.282469874E+01
     4
 # iter = 80000  time[fs]=80.00000
   C -0.982335101E+01 -0.406102778E+00  0.408814681E+00
   C  0.971946901E+01  0.136884973E+00 -0.197903204E-01
   H -0.450006476E+02  0.333744918E+01  0.106881888E+01
   H  0.438249290E+02 -0.249757976E+01 -0.284809100E+01
