     4
 # iter = 25000  time[fs]=25.00000
   C -0.956882348E+00 -0.528984689E-01  0.261274919E-01
   C  0.101699474E+01  0.914777358E-02 -0.336882952E-02
   H -0.519804428E+01  0.516117618E+00  0.215143294E+00
   H  0.534834429E+01 -0.402306598E-01 -0.408919758E+00
     4
 # iter = 25500  time[fs]=25.50000
   C -0.100256290E+01 -0.593041940E-01  0.257126502E-01
   C  0.106031708E+01  0.732899995E-02 -0.387388761E-02
   H -0.553745871E+01  0.538644439E+00  0.220885951E+00
   H  0.565757337E+01 -0.531838280E-01 -0.443146610E+00
     4
 # iter = 26000  time[fs]=26.00000
   C -0.105363114E+01 -0.666521308E-01  0.245909542E-01
   C  0.110707298E+01  0.447441436E-02 -0.561913843E-02
   H -0.588497824E+01  0.556065147E+00  0.221341829E+00
   H  0.596407322E+01 -0.715784614E-01 -0.483005983E+00
     4
 # iter = 26500  time[fs]=26.50000
   C -0.110738056E+01 -0.726276282E-01  0.250568563E-01
   C  0.116037950E+01  0.409872390E-02 -0.507310946E-02
   H -0.622421192E+01  0.584423259E+00  0.232576348E+00
   H  0.628366464E+01 -0.793158239E-01 -0.512379839E+00
     4
 # iter = 27000  time[fs]=27.00000
   C -0.116331125E+01 -0.771056318E-01  0.272162256E-01
   C  0.122002380E+01  0.636720759E-02 -0.205421580E-02
   H -0.655410904E+01  0.624485982E+00  0.255374238E+00
   H  0.661690225E+01 -0.755969656E-01 -0.530452204E+00
     4
 # iter = 27500  time[fs]=27.50000
   C -0.122277460E+01 -0.817889684E-01  0.293483015E-01
   C  0.128302251E+01  0.864937114E-02  0.822540326E-03
   H -0.688642202E+01  0.664267479E+00  0.277763842E+00
   H  0.695159668E+01 -0.723950131E-01 -0.549181080E+00
     4
 # iter = 28000  time[fs]=28.00000
   C -0.128665215E+01 -0.878798339E-01  0.302344755E-01
   C  0.134719015E+01  0.908159785E-02  0.170786619E-02
   H -0.722943406E+01  0.695283946E+00  0.291273416E+00
   H  0.727909088E+01 -0.781810141E-01 -0.577024512E+00
     4
 # iter = 28500  time[fs]=28.50000
   C -0.135415696E+01 -0.948788739E-01  0.303592916E-01
   C  0.141297863E+01  0.840508019E-02  0.135596532E-02
   H -0.757956396E+01  0.720938953E+00  0.299317156E+00
   H  0.760265385E+01 -0.895286544E-01 -0.610545220E+00
     4
 # iter = 29000  time[fs]=29.00000
   C -0.142382111E+01 -0.101575499E+00  0.309200143E-01
   C  0.148195977E+01  0.845074120E-02  0.160952288E-02
   H -0.792827879E+01  0.749608796E+00  0.310280688E+00
   H  0.793055219E+01 -0.980359608E-01 -0.641331814E+00
     4
 # iter = 29500  time[fs]=29.50000
   C -0.149499016E+01 -0.107546343E+00  0.323280055E-01
   C  0.155452878E+01  0.984617325E-02  0.310676948E-02
   H -0.827255795E+01  0.784178256E+00  0.327056827E+00
   H  0.826556823E+01 -0.100800521E+00 -0.666473509E+00
     4
 # iter = 30000  time[fs]=30.00000
   C -0.156803077E+01 -0.113365450E+00  0.339984168E-01
   C  0.162958006E+01  0.116939748E-01  0.495990296E-02
   H -0.861635879E+01  0.820572439E+00  0.345577583E+00
   H  0.860352750E+01 -0.101888881E+00 -0.690029305E+00
     4
 # iter = 30500  time[fs]=30.50000
   C -0.164339974E+01 -0.119674723E+00  0.352796652E-01
   C  0.170592831E+01  0.129945101E-01  0.617790168E-02
   H -0.896412045E+01  0.854248756E+00  0.361306416E+00
   H  0.893979747E+01 -0.105837283E+00 -0.716528697E+00
     4
 # iter = 31000  time[fs]=31.00000
   C -0.172093529E+01 -0.126476810E+00  0.361604561E-01
   C  0.178338885E+01  0.137282017E-01  0.674888555E-02
   H -0.931582212E+01  0.885135377E+00  0.374176910E+00
   H  0.927423106E+01 -0.112707663E+00 -0.746027661E+00
     4
 # iter = 31500  time[fs]=31.50000
   C -0.180006210E+01 -0.133342597E+00  0.370621821E-01
   C  0.186245761E+01  0.145377851E-01  0.732246634E-02
   H -0.966843150E+01  0.916181278E+00  0.387142908E+00
   H  0.960971372E+01 -0.119538968E+00 -0.775559846E+00
     4
 # iter = 32000  time[fs]=32.00000
   C -0.188038209E+01 -0.140004334E+00  0.382456770E-01
   C  0.194340061E+01  0.158201988E-01  0.830173823E-02
   H -0.100200479E+02  0.949212523E+00  0.402034827E+00
   H  0.994801350E+01 -0.124495166E+00 -0.803284456E+00
     4
 # iter = 32500  time[fs]=32.50000
   C -0.196188499E+01 -0.146568326E+00  0.395984295E-01
   C  0.202592632E+01  0.174008874E-01  0.951766641E-02
   H -0.103713874E+02  0.983446170E+00  0.418073614E+00
   H  0.102882922E+02 -0.128352810E+00 -0.829973708E+00
     4
 # iter = 33000  time[fs]=33.00000
   C -0.204469134E+01 -0.153259421E+00  0.408900182E-01
   C  0.210957513E+01  0.189248967E-01  0.106202503E-01
   H -0.107239973E+02  0.101727494E+01  0.433655480E+00
   H  0.106288912E+02 -0.132714371E+00 -0.857226130E+00
     4
 # iter = 33500  time[fs]=33.50000
   C -0.212877087E+01 -0.160140716E+00  0.420523363E-01
   C  0.219414703E+01  0.202859041E-01  0.115076145E-01
   H -0.110782969E+02  0.105022495E+01  0.448309730E+00
   H  0.109692914E+02 -0.138048302E+00 -0.885506598E+00
     4
 # iter = 34000  time[fs]=34.00000
   C -0.221393835E+01 -0.167110720E+00  0.431823649E-01
   C  0.227970455E+01  0.216304570E-01  0.123303044E-01
   H -0.114335576E+02  0.108297519E+01  0.462718221E+00
   H  0.113101316E+02 -0.143669530E+00 -0.914126782E+00
     4
 # iter = 34500  time[fs]=34.50000
   C -0.230001951E+01 -0.174070442E+00  0.443750268E-01
   C  0.236631565E+01  0.231020554E-01  0.132354216E-01
   H -0.117890700E+02  0.111618977E+01  0.477547726E+00
   H  0.116520396E+02 -0.148908287E+00 -0.942413946E+00
     4
 # iter = 35000  time[fs]=35.00000
   C -0.238694501E+01 -0.181018386E+00  0.456281356E-01
   C  0.245390718E+01  0.246956224E-01  0.142211414E-01
   H -0.121448075E+02  0.114985405E+01  0.492785994E+00
   H  0.119949664E+02 -0.153774740E+00 -0.970375523E+00
     4
 # iter = 35500  time[fs]=35.50000
   C -0.247470547E+01 -0.188006443E+00  0.468864666E-01
   C  0.254233149E+01  0.263249852E-01  0.152042328E-01
   H -0.125011176E+02  0.118358255E+01  0.508049773E+00
   H  0.123384950E+02 -0.158650614E+00 -0.998390728E+00
     4
 # iter = 36000  time[fs]=36.00000
   C -0.256327263E+01 -0.195061818E+00  0.481197868E-01
   C  0.263148517E+01  0.279423460E-01  0.161395636E-01
   H -0.128581768E+02  0.121716425E+01  0.523130053E+00
   H  0.126823852E+02 -0.163743359E+00 -0.102666470E+01
     4
 # iter = 36500  time[fs]=36.50000
   C -0.265258088E+01 -0.202169162E+00  0.493406904E-01
   C  0.272133566E+01  0.295655832E-01  0.170474326E-01
   H -0.132158649E+02  0.125068716E+01  0.538116727E+00
   H  0.130266985E+02 -0.168961341E+00 -0.105510366E+01
     4
 # iter = 37000  time[fs]=37.00000
   C -0.274255954E+01 -0.209303481E+00  0.505716608E-01
   C  0.281187025E+01  0.312278094E-01  0.179631543E-01
   H -0.135739955E+02  0.128430825E+01  0.553168499E+00
   H  0.133715675E+02 -0.174144165E+00 -0.108354525E+01
     4
 # iter = 37500  time[fs]=37.50000
   C -0.283315941E+01 -0.216457173E+00  0.518180082E-01
   C  0.290305412E+01  0.329359281E-01  0.188956392E-01
   H -0.139325044E+02  0.131806441E+01  0.568323847E+00
   H  0.137170064E+02 -0.179251897E+00 -0.111194769E+01
     4
 # iter = 38000  time[fs]=38.00000
   C -0.292434932E+01 -0.223637027E+00  0.530708433E-01
   C  0.299483443E+01  0.346751818E-01  0.198319626E-01
   H -0.142914287E+02  0.135189321E+01  0.583521837E+00
   H  0.140629316E+02 -0.184344221E+00 -0.114036898E+01
     4
 # iter = 38500  time[fs]=38.50000
   C -0.301610029E+01 -0.230848775E+00  0.543225105E-01
   C  0.308716359E+01  0.364327788E-01  0.207610105E-01
   H -0.146507989E+02  0.138574079E+01  0.598709992E+00
   H  0.144092695E+02 -0.189472444E+00 -0.116885883E+01
     4
 # iter = 39000  time[fs]=39.00000
   C -0.310837872E+01 -0.238090594E+00  0.555730650E-01
   C  0.318000880E+01  0.382078053E-01  0.216834066E-01
   H -0.150105932E+02  0.141960712E+01  0.613889565E+00
   H  0.147560020E+02 -0.194634167E+00 -0.119741336E+01
     4
 # iter = 39500  time[fs]=39.50000
   C -0.320115032E+01 -0.245357389E+00  0.568259741E-01
   C  0.327334516E+01  0.400046374E-01  0.226049390E-01
   H -0.153707675E+02  0.145351598E+01  0.629085527E+00
   H  0.151031357E+02 -0.199803325E+00 -0.122600515E+01
     4
 # iter = 40000  time[fs]=40.00000
   C -0.329438520E+01 -0.252646094E+00  0.580828045E-01
   C  0.336714731E+01  0.418248015E-01  0.235284333E-01
   H -0.157312923E+02  0.148747781E+01  0.644309459E+00
   H  0.154506652E+02 -0.204967323E+00 -0.125462029E+01
     4
 # iter = 40500  time[fs]=40.50000
   C -0.338805824E+01 -0.259956291E+00  0.593425888E-01
   C  0.346138815E+01  0.436659995E-01  0.244527888E-01
   H -0.160921573E+02  0.152148537E+01  0.659555149E+00
   H  0.157985684E+02 -0.210131444E+00 -0.128326287E+01
     4
 # iter = 41000  time[fs]=41.00000
   C -0.348214669E+01 -0.267288051E+00  0.606039749E-01
   C  0.355604198E+01  0.455253966E-01  0.253762757E-01
   H -0.164533558E+02  0.155552868E+01  0.674813614E+00
   H  0.161468213E+02 -0.215303796E+00 -0.131193987E+01
     4
 # iter = 41500  time[fs]=41.50000
   C -0.357662868E+01 -0.274640577E+00  0.618665709E-01
   C  0.365108635E+01  0.474016756E-01  0.262985989E-01
   H -0.168148756E+02  0.158960447E+01  0.690082515E+00
   H  0.164954078E+02 -0.220485896E+00 -0.134065174E+01
     4
 # iter = 42000  time[fs]=42.00000
   C -0.367148334E+01 -0.282012506E+00  0.631306393E-01
   C  0.374650142E+01  0.492945666E-01  0.272204349E-01
   H -0.171767007E+02  0.162371406E+01  0.705364027E+00
   H  0.168443166E+02 -0.225674785E+00 -0.136939451E+01
     4
 # iter = 42500  time[fs]=42.50000
   C -0.376669137E+01 -0.289402632E+00  0.643963604E-01
   C  0.384226870E+01  0.512037148E-01  0.281423067E-01
   H -0.175388168E+02  0.165785818E+01  0.720659699E+00
   H  0.171935372E+02 -0.230868178E+00 -0.139816497E+01
     4
 # iter = 43000  time[fs]=43.00000
   C -0.386223514E+01 -0.296810127E+00  0.656636096E-01
   C  0.393837054E+01  0.531283364E-01  0.290642458E-01
   H -0.179012124E+02  0.169203543E+01  0.735968904E+00
   H  0.175430571E+02 -0.236066010E+00 -0.142696217E+01
     4
 # iter = 43500  time[fs]=43.50000
   C -0.395809835E+01 -0.304234329E+00  0.669321597E-01
   C  0.403479039E+01  0.550675260E-01  0.299861054E-01
   H -0.182638774E+02  0.172624369E+01  0.751290261E+00
   H  0.178928641E+02 -0.241269007E+00 -0.145578598E+01
     4
 # iter = 44000  time[fs]=44.00000
   C -0.405426577E+01 -0.311674552E+00  0.682018670E-01
   C  0.413151289E+01  0.570205392E-01  0.309078476E-01
   H -0.186268019E+02  0.176048146E+01  0.766622941E+00
   H  0.182429470E+02 -0.246477380E+00 -0.148463584E+01
     4
 # iter = 44500  time[fs]=44.50000
   C -0.415072310E+01 -0.319130077E+00  0.694726754E-01
   C  0.422852385E+01  0.589867956E-01  0.318295511E-01
   H -0.189899760E+02  0.179474784E+01  0.781966696E+00
   H  0.185932956E+02 -0.251690791E+00 -0.151351065E+01
     4
 # iter = 45000  time[fs]=45.00000
   C -0.424745697E+01 -0.326600220E+00  0.707445430E-01
   C  0.432581004E+01  0.609657652E-01  0.327513014E-01
   H -0.193533903E+02  0.182904204E+01  0.797321352E+00
   H  0.189439007E+02 -0.256908857E+00 -0.154240933E+01
     4
 # iter = 45500  time[fs]=45.50000
   C -0.434445493E+01 -0.334084362E+00  0.720174073E-01
   C  0.442335903E+01  0.629569125E-01  0.336731388E-01
   H -0.197170361E+02  0.186336313E+01  0.812686570E+00
   H  0.192947531E+02 -0.262131391E+00 -0.157133101E+01
     4
 # iter = 46000  time[fs]=46.00000
   C -0.444170530E+01 -0.341581939E+00  0.732911964E-01
   C  0.452115917E+01  0.649597123E-01  0.345950770E-01
   H -0.200809052E+02  0.189771014E+01  0.828061926E+00
   H  0.196458441E+02 -0.267358317E+00 -0.160027499E+01
     4
 # iter = 46500  time[fs]=46.50000
   C -0.453919713E+01 -0.349092414E+00  0.745658461E-01
   C  0.461919954E+01  0.669736739E-01  0.355171308E-01
   H -0.204449898E+02  0.193208216E+01  0.843447034E+00
   H  0.199971654E+02 -0.272589543E+00 -0.162924057E+01
     4
 # iter = 47000  time[fs]=47.00000
   C -0.463692016E+01 -0.356615276E+00  0.758413040E-01
   C  0.471746988E+01  0.689983456E-01  0.364393226E-01
   H -0.208092825E+02  0.196647837E+01  0.858841572E+00
   H  0.203487092E+02 -0.277824940E+00 -0.165822705E+01
     4
 # iter = 47500  time[fs]=47.50000
   C -0.473486472E+01 -0.364150042E+00  0.771175233E-01
   C  0.481596059E+01  0.710333044E-01  0.373616751E-01
   H -0.211737762E+02  0.200089800E+01  0.874245250E+00
   H  0.207004682E+02 -0.283064367E+00 -0.168723373E+01
     4
 # iter = 48000  time[fs]=48.00000
   C -0.483302172E+01 -0.371696256E+00  0.783944595E-01
   C  0.491466260E+01  0.730781491E-01  0.382842065E-01
   H -0.215384644E+02  0.203534030E+01  0.889657780E+00
   H  0.210524352E+02 -0.288307702E+00 -0.171625998E+01
     4
 # iter = 48500  time[fs]=48.50000
   C -0.493138261E+01 -0.379253487E+00  0.796720704E-01
   C  0.501356739E+01  0.751324992E-01  0.392069307E-01
   H -0.219033405E+02  0.206980458E+01  0.905078880E+00
   H  0.214046037E+02 -0.293554835E+00 -0.174530519E+01
     4
 # iter = 49000  time[fs]=49.00000
   C -0.502993932E+01 -0.386821330E+00  0.809503166E-01
   C  0.511266691E+01  0.771959947E-01  0.401298598E-01
   H -0.222683987E+02  0.210429015E+01  0.920508279E+00
   H  0.217569671E+02 -0.298805662E+00 -0.177436880E+01
     4
 # iter = 49500  time[fs]=49.50000
   C -0.512868424E+01 -0.394399401E+00  0.822291619E-01
   C  0.521195358E+01  0.792682957E-01  0.410530050E-01
   H -0.226336331E+02  0.213879635E+01  0.935945724E+00
   H  0.221095194E+02 -0.304060081E+00 -0.180345023E+01
     4
 # iter = 50000  time[fs]=50.00000
   C -0.522761016E+01 -0.401987332E+00  0.835085729E-01
   C  0.531142023E+01  0.813490804E-01  0.419763761E-01
   H -0.229990381E+02  0.217332259E+01  0.951390972E+00
   H  0.224622547E+02 -0.309317993E+00 -0.183254897E+01
     4
 # iter = 50500  time[fs]=50.50000
   C -0.532671029E+01 -0.409584779E+00  0.847885185E-01
   C  0.541106008E+01  0.834380441E-01  0.428999817E-01
   H -0.233646087E+02  0.220786825E+01  0.966843792E+00
   H  0.228151676E+02 -0.314579302E+00 -0.186166451E+01
     4
 # iter = 51000  time[fs]=51.00000
   C -0.542597819E+01 -0.417191413E+00  0.860689697E-01
   C  0.551086672E+01  0.855348975E-01  0.438238290E-01
   H -0.237303397E+02  0.224243279E+01  0.982303962E+00
   H  0.231682527E+02 -0.319843920E+00 -0.189079636E+01
     4
 # iter = 51500  time[fs]=51.50000
   C -0.552540777E+01 -0.424806921E+00  0.873498994E-01
   C  0.561083409E+01  0.876393658E-01  0.447479240E-01
   H -0.240962265E+02  0.227701566E+01  0.997771270E+00
   H  0.235215050E+02 -0.325111758E+00 -0.191994407E+01
     4
 # iter = 52000  time[fs]=52.00000
   C -0.562499324E+01 -0.432431006E+00  0.886312824E-01
   C  0.571095641E+01  0.897511881E-01  0.456722722E-01
   H -0.244622643E+02  0.231161635E+01  0.101324551E+01
   H  0.238749196E+02 -0.330382733E+00 -0.194910719E+01
     4
 # iter = 52500  time[fs]=52.50000
   C -0.572472912E+01 -0.440063386E+00  0.899130949E-01
   C  0.581122823E+01  0.918701165E-01  0.465968778E-01
   H -0.248284489E+02  0.234623435E+01  0.102872650E+01
   H  0.242284918E+02 -0.335656766E+00 -0.197828530E+01
     4
 # iter = 53000  time[fs]=53.00000
   C -0.582461019E+01 -0.447703791E+00  0.911953151E-01
   C  0.591164436E+01  0.939959148E-01  0.475217445E-01
   H -0.251947760E+02  0.238086920E+01  0.104421403E+01
   H  0.245822173E+02 -0.340933778E+00 -0.200747798E+01
     4
 # iter = 53500  time[fs]=53.50000
   C -0.592463151E+01 -0.455351965E+00  0.924779222E-01
   C  0.601219986E+01  0.961283582E-01  0.484468752E-01
   H -0.255612416E+02  0.241552045E+01  0.105970795E+01
   H  0.249360917E+02 -0.346213696E+00 -0.203668485E+01
     4
 # iter = 54000  time[fs]=54.00000
   C -0.602478836E+01 -0.463007663E+00  0.937608968E-01
   C  0.611289006E+01  0.982672327E-01  0.493722724E-01
   H -0.259278420E+02  0.245018764E+01  0.107520806E+01
   H  0.252901110E+02 -0.351496448E+00 -0.206590553E+01
     4
 # iter = 54500  time[fs]=54.50000
   C -0.612507627E+01 -0.470670652E+00  0.950442208E-01
   C  0.621371048E+01  0.100412334E+00  0.502979379E-01
   H -0.262945734E+02  0.248487037E+01  0.109071422E+01
   H  0.256442712E+02 -0.356781965E+00 -0.209513966E+01
     4
 # iter = 55000  time[fs]=55.00000
   C -0.622549097E+01 -0.478340709E+00  0.963278772E-01
   C  0.631465688E+01  0.102563467E+00  0.512238729E-01
   H -0.266614322E+02  0.251956823E+01  0.110622626E+01
   H  0.259985686E+02 -0.362070181E+00 -0.212438690E+01
     4
 # iter = 55500  time[fs]=55.50000
   C -0.632602839E+01 -0.486017620E+00  0.976118500E-01
   C  0.641572520E+01  0.104720446E+00  0.521500783E-01
   H -0.270284151E+02  0.255428083E+01  0.112174402E+01
   H  0.263529996E+02 -0.367361031E+00 -0.215364691E+01
     4
 # iter = 56000  time[fs]=56.00000
   C -0.642668463E+01 -0.493701183E+00  0.988961240E-01
   C  0.651691158E+01  0.106883093E+00  0.530765548E-01
   H -0.273955188E+02  0.258900780E+01  0.113726737E+01
   H  0.267075607E+02 -0.372654455E+00 -0.218291937E+01
     4
 # iter = 56500  time[fs]=56.50000
   C -0.652745601E+01 -0.501391202E+00  0.100180685E+00
   C  0.661821234E+01  0.109051237E+00  0.540033023E-01
   H -0.277627402E+02  0.262374878E+01  0.115279616E+01
   H  0.270622485E+02 -0.377950392E+00 -0.221220397E+01
     4
 # iter = 57000  time[fs]=57.00000
   C -0.662833898E+01 -0.509087490E+00  0.101465520E+00
   C  0.671962395E+01  0.111224718E+00  0.549303208E-01
   H -0.281300762E+02  0.265850342E+01  0.116833026E+01
   H  0.274170598E+02 -0.383248785E+00 -0.224150041E+01
     4
 # iter = 57500  time[fs]=57.50000
   C -0.672933016E+01 -0.516789869E+00  0.102750616E+00
   C  0.682114304E+01  0.113403377E+00  0.558576098E-01
   H -0.284975239E+02  0.269327140E+01  0.118386953E+01
   H  0.277719916E+02 -0.388549578E+00 -0.227080841E+01
     4
 # iter = 58000  time[fs]=58.00000
   C -0.683042631E+01 -0.524498167E+00  0.104035962E+00
   C  0.692276640E+01  0.115587068E+00  0.567851685E-01
   H -0.288650806E+02  0.272805239E+01  0.119941385E+01
   H  0.281270408E+02 -0.393852718E+00 -0.230012769E+01
     4
 # iter = 58500  time[fs]=58.50000
   C -0.693162434E+01 -0.532212220E+00  0.105321545E+00
   C  0.702449094E+01  0.117775647E+00  0.577129962E-01
   H -0.292327436E+02  0.276284608E+01  0.121496311E+01
   H  0.284822046E+02 -0.399158153E+00 -0.232945798E+01
     4
 # iter = 59000  time[fs]=59.00000
   C -0.703292129E+01 -0.539931871E+00  0.106607357E+00
   C  0.712631372E+01  0.119968976E+00  0.586410916E-01
   H -0.296005102E+02  0.279765218E+01  0.123051717E+01
   H  0.288374803E+02 -0.404465833E+00 -0.235879903E+01
     4
 # iter = 59500  time[fs]=59.50000
   C -0.713431432E+01 -0.547656968E+00  0.107893385E+00
   C  0.722823192E+01  0.122166924E+00  0.595694534E-01
   H -0.299683780E+02  0.283247039E+01  0.124607594E+01
   H  0.291928650E+02 -0.409775708E+00 -0.238815058E+01
     4
 # iter = 60000  time[fs]=60.00000
   C -0.723580070E+01 -0.555387365E+00  0.109179622E+00
   C  0.733024281E+01  0.124369366E+00  0.604980802E-01
   H -0.303363445E+02  0.286730043E+01  0.126163929E+01
   H  0.295483564E+02 -0.415087733E+00 -0.241751240E+01
     4
 # iter = 60500  time[fs]=60.50000
   C -0.733737783E+01 -0.563122923E+00  0.110466058E+00
   C  0.743234382E+01  0.126576180E+00  0.614269705E-01
   H -0.307044075E+02  0.290214205E+01  0.127720713E+01
   H  0.299039518E+02 -0.420401862E+00 -0.244688426E+01
     4
 # iter = 61000  time[fs]=61.00000
   C -0.743904321E+01 -0.570863508E+00  0.111752685E+00
   C  0.753453245E+01  0.128787250E+00  0.623561224E-01
   H -0.310725646E+02  0.293699497E+01  0.129277936E+01
   H  0.302596489E+02 -0.425718051E+00 -0.247626594E+01
     4
 # iter = 61500  time[fs]=61.50000
   C -0.754079442E+01 -0.578608990E+00  0.113039494E+00
   C  0.763680630E+01  0.131002464E+00  0.632855342E-01
   H -0.314408138E+02  0.297185895E+01  0.130835587E+01
   H  0.306154454E+02 -0.431036256E+00 -0.250565720E+01
     4
 # iter = 62000  time[fs]=62.00000
   C -0.764262916E+01 -0.586359244E+00  0.114326478E+00
   C  0.773916308E+01  0.133221714E+00  0.642152039E-01
   H -0.318091529E+02  0.300673375E+01  0.132393657E+01
   H  0.309713390E+02 -0.436356437E+00 -0.253505786E+01
     4
 # iter = 62500  time[fs]=62.50000
   C -0.774454521E+01 -0.594114152E+00  0.115613630E+00
   C  0.784160059E+01  0.135444896E+00  0.651451295E-01
   H -0.321775799E+02  0.304161913E+01  0.133952138E+01
   H  0.313273275E+02 -0.441678554E+00 -0.256446769E+01
     4
 # iter = 63000  time[fs]=63.00000
   C -0.784654044E+01 -0.601873598E+00  0.116900943E+00
   C  0.794411669E+01  0.137671912E+00  0.660753090E-01
   H -0.325460928E+02  0.307651487E+01  0.135511019E+01
   H  0.316834089E+02 -0.447002568E+00 -0.259388652E+01
     4
 # iter = 63500  time[fs]=63.50000
   C -0.794861279E+01 -0.609637471E+00  0.118188411E+00
   C  0.804670935E+01  0.139902664E+00  0.670057401E-01
   H -0.329146897E+02  0.311142073E+01  0.137070293E+01
   H  0.320395812E+02 -0.452328441E+00 -0.262331414E+01
     4
 # iter = 64000  time[fs]=64.00000
   C -0.805076029E+01 -0.617405662E+00  0.119476026E+00
   C  0.814937660E+01  0.142137061E+00  0.679364208E-01
   H -0.332833689E+02  0.314633652E+01  0.138629951E+01
   H  0.323958423E+02 -0.457656136E+00 -0.265275038E+01
     4
 # iter = 64500  time[fs]=64.50000
   C -0.815298104E+01 -0.625178070E+00  0.120763783E+00
   C  0.825211656E+01  0.144375014E+00  0.688673488E-01
   H -0.336521285E+02  0.318126203E+01  0.140189985E+01
   H  0.327521904E+02 -0.462985619E+00 -0.268219505E+01
     4
 # iter = 65000  time[fs]=65.00000
   C -0.825527320E+01 -0.632954594E+00  0.122051678E+00
   C  0.835492739E+01  0.146616436E+00  0.697985217E-01
   H -0.340209669E+02  0.321619704E+01  0.141750387E+01
   H  0.331086237E+02 -0.468316854E+00 -0.271164798E+01
     4
 # iter = 65500  time[fs]=65.50000
   C -0.835763501E+01 -0.640735138E+00  0.123339703E+00
   C  0.845780735E+01  0.148861244E+00  0.707299374E-01
   H -0.343898823E+02  0.325114138E+01  0.143311150E+01
   H  0.334651403E+02 -0.473649808E+00 -0.274110901E+01
     4
 # iter = 66000  time[fs]=66.00000
   C -0.846006476E+01 -0.648519609E+00  0.124627855E+00
   C  0.856075475E+01  0.151109359E+00  0.716615934E-01
   H -0.347588732E+02  0.328609486E+01  0.144872267E+01
   H  0.338217385E+02 -0.478984449E+00 -0.277057797E+01
     4
 # iter = 66500  time[fs]=66.50000
   C -0.856256082E+01 -0.656307917E+00  0.125916128E+00
   C  0.866376794E+01  0.153360702E+00  0.725934874E-01
   H -0.351279380E+02  0.332105728E+01  0.146433729E+01
   H  0.341784167E+02 -0.484320745E+00 -0.280005470E+01
     4
 # iter = 67000  time[fs]=67.00000
   C -0.866512160E+01 -0.664099975E+00  0.127204517E+00
   C  0.876684535E+01  0.155615200E+00  0.735256171E-01
   H -0.354970752E+02  0.335602848E+01  0.147995532E+01
   H  0.345351733E+02 -0.489658665E+00 -0.282953906E+01
     4
 # iter = 67500  time[fs]=67.50000
   C -0.876774558E+01 -0.671895699E+00  0.128493019E+00
   C  0.886998548E+01  0.157872781E+00  0.744579800E-01
   H -0.358662833E+02  0.339100828E+01  0.149557667E+01
   H  0.348920066E+02 -0.494998179E+00 -0.285903089E+01
     4
 # iter = 68000  time[fs]=68.00000
   C -0.887043126E+01 -0.679695009E+00  0.129781629E+00
   C  0.897318683E+01  0.160133374E+00  0.753905737E-01
   H -0.362355609E+02  0.342599652E+01  0.151120128E+01
   H  0.352489152E+02 -0.500339259E+00 -0.288853005E+01
     4
 # iter = 68500  time[fs]=68.50000
   C -0.897317724E+01 -0.687497825E+00  0.131070343E+00
   C  0.907644801E+01  0.162396912E+00  0.763233960E-01
   H -0.366049067E+02  0.346099303E+01  0.152682909E+01
   H  0.356058975E+02 -0.505681875E+00 -0.291803639E+01
     4
 # iter = 69000  time[fs]=69.00000
   C -0.907598213E+01 -0.695304072E+00  0.132359157E+00
   C  0.917976764E+01  0.164663330E+00  0.772564443E-01
   H -0.369743192E+02  0.349599765E+01  0.154246003E+01
   H  0.359629521E+02 -0.511026002E+00 -0.294754979E+01
     4
 # iter = 69500  time[fs]=69.50000
   C -0.917884460E+01 -0.703113675E+00  0.133648067E+00
   C  0.928314439E+01  0.166932564E+00  0.781897164E-01
   H -0.373437972E+02  0.353101024E+01  0.155809406E+01
   H  0.363200777E+02 -0.516371611E+00 -0.297707012E+01
     4
 # iter = 70000  time[fs]=70.00000
   C -0.928176335E+01 -0.710926564E+00  0.134937071E+00
   C  0.938657699E+01  0.169204555E+00  0.791232098E-01
   H -0.377133395E+02  0.356603065E+01  0.157373111E+01
   H  0.366772729E+02 -0.521718677E+00 -0.300659723E+01
     4
 # iter = 70500  time[fs]=70.50000
   C -0.938473715E+01 -0.718742670E+00  0.136226164E+00
   C  0.949006419E+01  0.171479242E+00  0.800569222E-01
   H -0.380829447E+02  0.360105873E+01  0.158937112E+01
   H  0.370345362E+02 -0.527067174E+00 -0.303613101E+01
     4
 # iter = 71000  time[fs]=71.00000
   C -0.948776479E+01 -0.726561926E+00  0.137515344E+00
   C  0.959360480E+01  0.173756569E+00  0.809908511E-01
   H -0.384526117E+02  0.363609434E+01  0.160501403E+01
   H  0.373918666E+02 -0.532417078E+00 -0.306567133E+01
     4
 # iter = 71500  time[fs]=71.50000
   C -0.959084510E+01 -0.734384266E+00  0.138804607E+00
   C  0.969719766E+01  0.176036479E+00  0.819249944E-01
   H -0.388223394E+02  0.367113734E+01  0.162065981E+01
   H  0.377492627E+02 -0.537768365E+00 -0.309521809E+01
     4
 # iter = 72000  time[fs]=72.00000
   C -0.969397695E+01 -0.742209628E+00  0.140093950E+00
   C  0.980084164E+01  0.178318919E+00  0.828593495E-01
   H -0.391921266E+02  0.370618761E+01  0.163630839E+01
   H  0.381067233E+02 -0.543121011E+00 -0.312477115E+01
     4
 # iter = 72500  time[fs]=72.50000
   C -0.979715924E+01 -0.750037951E+00  0.141383371E+00
   C  0.990453566E+01  0.180603838E+00  0.837939143E-01
   H -0.395619722E+02  0.374124500E+01  0.165195972E+01
   H  0.384642472E+02 -0.548474992E+00 -0.315433041E+01
     4
 # iter = 73000  time[fs]=73.00000
   C -0.990039091E+01 -0.757869176E+00  0.142672866E+00
   C  0.100082787E+02  0.182891183E+00  0.847286863E-01
   H -0.399318752E+02  0.377630941E+01  0.166761376E+01
   H  0.388218333E+02 -0.553830288E+00 -0.318389577E+01
     4
 # iter = 73500  time[fs]=73.50000
   C -0.100036709E+02 -0.765703244E+00  0.143962434E+00
   C  0.101120696E+02  0.185180907E+00  0.856636634E-01
   H -0.403018345E+02  0.381138069E+01  0.168327046E+01
   H  0.391794805E+02 -0.559186877E+00 -0.321346711E+01
     4
 # iter = 74000  time[fs]=74.00000
   C -0.101069983E+02 -0.773540102E+00  0.145252072E+00
   C  0.102159075E+02  0.187472961E+00  0.865988433E-01
   H -0.406718492E+02  0.384645874E+01  0.169892976E+01
   H  0.395371877E+02 -0.564544736E+00 -0.324304433E+01
     4
 # iter = 74500  time[fs]=74.50000
   C -0.102103721E+02 -0.781379693E+00  0.146541777E+00
   C  0.103197915E+02  0.189767300E+00  0.875342236E-01
   H -0.410419181E+02  0.388154344E+01  0.171459163E+01
   H  0.398949538E+02 -0.569903845E+00 -0.327262733E+01
     4
 # iter = 75000  time[fs]=75.00000
   C -0.103137913E+02 -0.789221966E+00  0.147831547E+00
   C  0.104237205E+02  0.192063879E+00  0.884698023E-01
   H -0.414120405E+02  0.391663467E+01  0.173025603E+01
   H  0.402527778E+02 -0.575264185E+00 -0.330221601E+01
     4
 # iter = 75500  time[fs]=75.50000
   C -0.104172551E+02 -0.797066869E+00  0.149121380E+00
   C  0.105276936E+02  0.194362653E+00  0.894055770E-01
   H -0.417822152E+02  0.395173233E+01  0.174592290E+01
   H  0.406106587E+02 -0.580625735E+00 -0.333181028E+01
     4
 # iter = 76000  time[fs]=76.00000
   C -0.105207625E+02 -0.804914354E+00  0.150411274E+00
   C  0.106317101E+02  0.196663581E+00  0.903415457E-01
   H -0.421524415E+02  0.398683630E+01  0.176159221E+01
   H  0.409685955E+02 -0.585988477E+00 -0.336141004E+01
     4
 # iter = 76500  time[fs]=76.50000
   C -0.106243128E+02 -0.812764370E+00  0.151701226E+00
   C  0.107357690E+02  0.198966622E+00  0.912777061E-01
   H -0.425227185E+02  0.402194648E+01  0.177726391E+01
   H  0.413265873E+02 -0.591352390E+00 -0.339101520E+01
     4
 # iter = 77000  time[fs]=77.00000
   C -0.107279049E+02 -0.820616872E+00  0.152991235E+00
   C  0.108398695E+02  0.201271735E+00  0.922140561E-01
   H -0.428930453E+02  0.405706277E+01  0.179293797E+01
   H  0.416846331E+02 -0.596717458E+00 -0.342062567E+01
     4
 # iter = 77500  time[fs]=77.50000
   C -0.108315383E+02 -0.828471814E+00  0.154281299E+00
   C  0.109440109E+02  0.203578882E+00  0.931505937E-01
   H -0.432634210E+02  0.409218508E+01  0.180861435E+01
   H  0.420427320E+02 -0.602083663E+00 -0.345024138E+01
     4
 # iter = 78000  time[fs]=78.00000
   C -0.109352120E+02 -0.836329152E+00  0.155571417E+00
   C  0.110481922E+02  0.205888025E+00  0.940873167E-01
   H -0.436338448E+02  0.412731329E+01  0.182429301E+01
   H  0.424008832E+02 -0.607450986E+00 -0.347986222E+01
     4
 # iter = 78500  time[fs]=78.50000
   C -0.110389253E+02 -0.844188841E+00  0.156861585E+00
   C  0.111524128E+02  0.208199127E+00  0.950242230E-01
   H -0.440043160E+02  0.416244732E+01  0.183997391E+01
   H  0.427590858E+02 -0.612819410E+00 -0.350948812E+01
     4
 # iter = 79000  time[fs]=79.00000
   C -0.111426775E+02 -0.852050840E+00  0.158151803E+00
   C  0.112566720E+02  0.210512152E+00  0.959613107E-01
   H -0.443748338E+02  0.419758707E+01  0.185565701E+01
   H  0.431173389E+02 -0.618188920E+00 -0.353911900E+01
     4
 # iter = 79500  time[fs]=79.50000
   C -0.112464678E+02 -0.859915108E+00  0.159442070E+00
   C  0.113609689E+02  0.212827066E+00  0.968985777E-01
   H -0.447453973E+02  0.423273246E+01  0.187134229E+01
   H  0.434756418E+02 -0.623559498E+00 -0.356875478E+01
     4
 # iter = 80000  time[fs]=80.00000
   C -0.113502955E+02 -0.867781605E+00  0.160732383E+00
   C  0.114653030E+02  0.215143834E+00  0.978360220E-01
   H -0.451160059E+02  0.426788339E+01  0.188702970E+01
   H  0.438339936E+02 -0.628931129E+00 -0.359839538E+01
