     4
 # iter = 25000  time[fs]=25.00000
   C -0.991676733E+00  0.144343822E-02 -0.467338995E-01
   C  0.100416237E+01 -0.109407647E-01  0.353051158E-01
   H -0.523946056E+01 -0.709504750E+00 -0.267838647E+00
   H  0.525881247E+01  0.679601694E+00 -0.361596997E+00
     4
 # iter = 25500  time[fs]=25.50000
   C -0.103997145E+01  0.314843817E-02 -0.479588388E-01
   C  0.104646729E+01 -0.156250132E-01  0.359556479E-01
   H -0.557944049E+01 -0.761666905E+00 -0.290690224E+00
   H  0.556772848E+01  0.713972452E+00 -0.393925778E+00
     4
 # iter = 26000  time[fs]=26.00000
   C -0.109336106E+01  0.410410941E-02 -0.501525637E-01
   C  0.109190714E+01 -0.215177044E-01  0.356426183E-01
   H -0.592747911E+01 -0.819625774E+00 -0.319065711E+00
   H  0.587390738E+01  0.743317873E+00 -0.431857786E+00
     4
 # iter = 26500  time[fs]=26.50000
   C -0.114907585E+01  0.671012180E-02 -0.509026313E-01
   C  0.114354362E+01 -0.251849873E-01  0.377848817E-01
   H -0.626718360E+01 -0.867251566E+00 -0.336867187E+00
   H  0.619316759E+01  0.783694108E+00 -0.459278325E+00
     4
 # iter = 27000  time[fs]=27.00000
   C -0.120664134E+01  0.110871192E-01 -0.500751730E-01
   C  0.120119035E+01 -0.264591534E-01  0.425347464E-01
   H -0.659750831E+01 -0.903711464E+00 -0.343287401E+00
   H  0.652606108E+01  0.835862899E+00 -0.475373981E+00
     4
 # iter = 27500  time[fs]=27.50000
   C -0.126750697E+01  0.154534831E-01 -0.494385566E-01
   C  0.126195732E+01 -0.278990963E-01  0.473179638E-01
   H -0.693021614E+01 -0.940941912E+00 -0.350283490E+00
   H  0.686039575E+01  0.887818353E+00 -0.492104700E+00
     4
 # iter = 28000  time[fs]=28.00000
   C -0.133263017E+01  0.185476425E-01 -0.502414658E-01
   C  0.132373166E+01 -0.313143918E-01  0.503102690E-01
   H -0.727359831E+01 -0.987383860E+00 -0.366314173E+00
   H  0.718751260E+01  0.931061288E+00 -0.517930279E+00
     4
 # iter = 28500  time[fs]=28.50000
   C -0.140122886E+01  0.208775906E-01 -0.519636376E-01
   C  0.138697201E+01 -0.359722956E-01  0.522307097E-01
   H -0.762407561E+01 -0.103959229E+01 -0.387950323E+00
   H  0.751067975E+01  0.968994198E+00 -0.549415209E+00
     4
 # iter = 29000  time[fs]=29.00000
   C -0.147180867E+01  0.236911990E-01 -0.533456588E-01
   C  0.145322780E+01 -0.400765761E-01  0.548627971E-01
   H -0.797311427E+01 -0.108915265E+01 -0.406791478E+00
   H  0.783816349E+01  0.100999857E+01 -0.578149765E+00
     4
 # iter = 29500  time[fs]=29.50000
   C -0.154371792E+01  0.274178693E-01 -0.539473480E-01
   C  0.152289848E+01 -0.430054023E-01  0.588165043E-01
   H -0.831769467E+01 -0.113314844E+01 -0.419933311E+00
   H  0.817274600E+01  0.105695869E+01 -0.601224549E+00
     4
 # iter = 30000  time[fs]=30.00000
   C -0.161736381E+01  0.314500499E-01 -0.543662554E-01
   C  0.159491734E+01 -0.456253973E-01  0.632141897E-01
   H -0.866177756E+01 -0.117562925E+01 -0.431435872E+00
   H  0.851025265E+01  0.110579179E+01 -0.622699665E+00
     4
 # iter = 30500  time[fs]=30.50000
   C -0.169324429E+01  0.351101941E-01 -0.552707130E-01
   C  0.166813828E+01 -0.489033736E-01  0.670789042E-01
   H -0.900980551E+01 -0.122111573E+01 -0.445829012E+00
   H  0.884605088E+01  0.115194715E+01 -0.647105574E+00
     4
 # iter = 31000  time[fs]=31.00000
   C -0.177121097E+01  0.383863094E-01 -0.566642679E-01
   C  0.174239014E+01 -0.528502654E-01  0.703904674E-01
   H -0.936175925E+01 -0.126965882E+01 -0.463171945E+00
   H  0.917999373E+01  0.119534998E+01 -0.674499186E+00
     4
 # iter = 31500  time[fs]=31.50000
   C -0.185068286E+01  0.417161434E-01 -0.581014510E-01
   C  0.181816457E+01 -0.568312263E-01  0.737753065E-01
   H -0.971460670E+01 -0.131828979E+01 -0.480503424E+00
   H  0.951496694E+01  0.123894988E+01 -0.701915042E+00
     4
 # iter = 32000  time[fs]=32.00000
   C -0.193126116E+01  0.453702161E-01 -0.593046890E-01
   C  0.189572780E+01 -0.604517950E-01  0.776201993E-01
   H -0.100664476E+02 -0.136516514E+01 -0.495986647E+00
   H  0.985273886E+01  0.128457258E+01 -0.727513133E+00
     4
 # iter = 32500  time[fs]=32.50000
   C -0.201294865E+01  0.492305635E-01 -0.603855056E-01
   C  0.197480102E+01 -0.638757071E-01  0.817543872E-01
   H -0.104179992E+02 -0.141105294E+01 -0.510395685E+00
   H  0.101924716E+02  0.133143223E+01 -0.752066345E+00
     4
 # iter = 33000  time[fs]=33.00000
   C -0.209588256E+01  0.530564868E-01 -0.615787225E-01
   C  0.205494063E+01 -0.674432295E-01  0.858311910E-01
   H -0.107708102E+02 -0.145754737E+01 -0.525330117E+00
   H  0.105325072E+02  0.137791787E+01 -0.777173795E+00
     4
 # iter = 33500  time[fs]=33.50000
   C -0.218004179E+01  0.567760740E-01 -0.629508902E-01
   C  0.213595561E+01 -0.712524708E-01  0.897466548E-01
   H -0.111253009E+02 -0.150511010E+01 -0.541256525E+00
   H  0.108723266E+02  0.142355335E+01 -0.803300910E+00
     4
 # iter = 34000  time[fs]=34.00000
   C -0.226524285E+01  0.604891115E-01 -0.643973287E-01
   C  0.221791056E+01 -0.751552173E-01  0.936436598E-01
   H -0.114807431E+02 -0.155305071E+01 -0.557488966E+00
   H  0.112125692E+02  0.146901671E+01 -0.829759881E+00
     4
 # iter = 34500  time[fs]=34.50000
   C -0.235131257E+01  0.642932431E-01 -0.658159242E-01
   C  0.230087487E+01 -0.790066346E-01  0.976621688E-01
   H -0.118364279E+02 -0.160069458E+01 -0.573356927E+00
   H  0.115538632E+02  0.151497130E+01 -0.855878447E+00
     4
 # iter = 35000  time[fs]=35.00000
   C -0.243818602E+01  0.681851152E-01 -0.672059426E-01
   C  0.238477978E+01 -0.828072487E-01  0.101797198E+00
   H -0.121923290E+02 -0.164804697E+01 -0.588869429E+00
   H  0.118961601E+02  0.156140107E+01 -0.881664467E+00
     4
 # iter = 35500  time[fs]=35.50000
   C -0.252585981E+01  0.721062305E-01 -0.686221387E-01
   C  0.246948349E+01 -0.866370661E-01  0.105964655E+00
   H -0.125487949E+02 -0.169548488E+01 -0.604406879E+00
   H  0.122390431E+02  0.160791887E+01 -0.907497538E+00
     4
 # iter = 36000  time[fs]=36.00000
   C -0.261431024E+01  0.760241212E-01 -0.700935503E-01
   C  0.255488704E+01 -0.905389602E-01  0.110117921E+00
   H -0.129060022E+02 -0.174321147E+01 -0.620175632E+00
   H  0.125822727E+02  0.165431226E+01 -0.933583151E+00
     4
 # iter = 36500  time[fs]=36.50000
   C -0.270347412E+01  0.799509059E-01 -0.716049111E-01
   C  0.264096034E+01 -0.944920041E-01  0.114274484E+00
   H -0.132638315E+02 -0.179113142E+01 -0.636083262E+00
   H  0.129259107E+02  0.170066825E+01 -0.959827869E+00
     4
 # iter = 37000  time[fs]=37.00000
   C -0.279328247E+01  0.839090300E-01 -0.731308826E-01
   C  0.272769245E+01 -0.984606686E-01  0.118466708E+00
   H -0.136220965E+02 -0.183908095E+01 -0.651968703E+00
   H  0.132700901E+02  0.174714297E+01 -0.986069626E+00
     4
 # iter = 37500  time[fs]=37.50000
   C -0.288368819E+01  0.879031168E-01 -0.746641794E-01
   C  0.281505066E+01 -0.102435242E+00  0.122701393E+00
   H -0.139807333E+02 -0.188701693E+01 -0.667791326E+00
   H  0.136148255E+02  0.179377236E+01 -0.101226694E+01
     4
 # iter = 38000  time[fs]=38.00000
   C -0.297466251E+01  0.919230613E-01 -0.762124526E-01
   C  0.290298450E+01 -0.106427370E+00  0.126964205E+00
   H -0.143397796E+02 -0.193499600E+01 -0.683610100E+00
   H  0.139600337E+02  0.184049308E+01 -0.103847806E+01
     4
 # iter = 38500  time[fs]=38.50000
   C -0.306617858E+01  0.959600839E-01 -0.777822173E-01
   C  0.299144848E+01 -0.110446982E+00  0.131242731E+00
   H -0.146992659E+02 -0.198306667E+01 -0.699475677E+00
   H  0.143056416E+02  0.188725038E+01 -0.106475293E+01
     4
 # iter = 39000  time[fs]=39.00000
   C -0.315820442E+01  0.100013466E+00 -0.793720986E-01
   C  0.308041142E+01 -0.114492601E+00  0.135536154E+00
   H -0.150591708E+02 -0.203122395E+01 -0.715385091E+00
   H  0.146516312E+02  0.193404344E+01 -0.109108793E+01
     4
 # iter = 39500  time[fs]=39.50000
   C -0.325070708E+01  0.104086079E+00 -0.809772888E-01
   C  0.316984974E+01 -0.118557754E+00  0.139848817E+00
   H -0.154194505E+02 -0.207943938E+01 -0.731311766E+00
   H  0.149980097E+02  0.198089535E+01 -0.111745580E+01
     4
 # iter = 40000  time[fs]=40.00000
   C -0.334365790E+01  0.108178853E+00 -0.825950607E-01
   C  0.325973932E+01 -0.122638905E+00  0.144182283E+00
   H -0.157800757E+02 -0.212769815E+01 -0.747242628E+00
   H  0.153447720E+02  0.202781589E+01 -0.114384287E+01
     4
 # iter = 40500  time[fs]=40.50000
   C -0.343703297E+01  0.112290120E+00 -0.842254156E-01
   C  0.335005428E+01 -0.126736389E+00  0.148534382E+00
   H -0.161410363E+02 -0.217600341E+01 -0.763182498E+00
   H  0.156918962E+02  0.207479715E+01 -0.117025339E+01
     4
 # iter = 41000  time[fs]=41.00000
   C -0.353081067E+01  0.116417847E+00 -0.858688381E-01
   C  0.344077000E+01 -0.130851196E+00  0.152902418E+00
   H -0.165023258E+02 -0.222436132E+01 -0.779139056E+00
   H  0.160393588E+02  0.212182857E+01 -0.119669451E+01
     4
 # iter = 41500  time[fs]=41.50000
   C -0.362497009E+01  0.120561031E+00 -0.875248886E-01
   C  0.353186500E+01 -0.134982953E+00  0.157285175E+00
   H -0.168639322E+02 -0.227277153E+01 -0.795113421E+00
   H  0.163871438E+02  0.216890631E+01 -0.122316685E+01
     4
 # iter = 42000  time[fs]=42.00000
   C -0.371949123E+01  0.124719382E+00 -0.891925134E-01
   C  0.362332030E+01 -0.139130372E+00  0.161682458E+00
   H -0.172258398E+02 -0.232122938E+01 -0.811102268E+00
   H  0.167352404E+02  0.221603114E+01 -0.124966659E+01
     4
 # iter = 42500  time[fs]=42.50000
   C -0.381435555E+01  0.128892553E+00 -0.908708050E-01
   C  0.371511815E+01 -0.143292351E+00  0.166093983E+00
   H -0.175880343E+02 -0.236973094E+01 -0.827102968E+00
   H  0.170836383E+02  0.226320330E+01 -0.127619066E+01
     4
 # iter = 43000  time[fs]=43.00000
   C -0.390954614E+01  0.133079908E+00 -0.925592278E-01
   C  0.380724164E+01 -0.147468296E+00  0.170519050E+00
   H -0.179505044E+02 -0.241827462E+01 -0.843115132E+00
   H  0.174323254E+02  0.231042091E+01 -0.130273823E+01
     4
 # iter = 43500  time[fs]=43.50000
   C -0.400504738E+01  0.137280731E+00 -0.942574022E-01
   C  0.389967483E+01 -0.151657818E+00  0.174956835E+00
   H -0.183132401E+02 -0.246685970E+01 -0.859139184E+00
   H  0.177812896E+02  0.235768141E+01 -0.132930932E+01
     4
 # iter = 44000  time[fs]=44.00000
   C -0.410084462E+01  0.141494418E+00 -0.959649063E-01
   C  0.399240299E+01 -0.155860448E+00  0.179406668E+00
   H -0.186762319E+02 -0.251548503E+01 -0.875175049E+00
   H  0.181305199E+02  0.240498287E+01 -0.135590347E+01
     4
 # iter = 44500  time[fs]=44.50000
   C -0.419692410E+01  0.145720477E+00 -0.976812684E-01
   C  0.408541244E+01 -0.160075630E+00  0.183868040E+00
   H -0.190394697E+02 -0.256414899E+01 -0.891222123E+00
   H  0.184800068E+02  0.245232399E+01 -0.138251970E+01
     4
 # iter = 45000  time[fs]=45.00000
   C -0.429327297E+01  0.149958454E+00 -0.994060387E-01
   C  0.417869043E+01 -0.164302827E+00  0.188340484E+00
   H -0.194029444E+02 -0.261284998E+01 -0.907279772E+00
   H  0.188297408E+02  0.249970358E+01 -0.140915702E+01
     4
 # iter = 45500  time[fs]=45.50000
   C -0.438987921E+01  0.154207894E+00 -0.101138823E+00
   C  0.427222499E+01 -0.168541565E+00  0.192823530E+00
   H -0.197666474E+02 -0.266158665E+01 -0.923347571E+00
   H  0.191797133E+02  0.254712037E+01 -0.143581469E+01
     4
 # iter = 46000  time[fs]=46.00000
   C -0.448673157E+01  0.158468353E+00 -0.102879268E+00
   C  0.436600488E+01 -0.172791422E+00  0.197316713E+00
   H -0.201305705E+02 -0.271035785E+01 -0.939425221E+00
   H  0.195299156E+02  0.259457304E+01 -0.146249208E+01
     4
 # iter = 46500  time[fs]=46.50000
   C -0.458381949E+01  0.162739410E+00 -0.104627039E+00
   C  0.446001954E+01 -0.177051992E+00  0.201819601E+00
   H -0.204947062E+02 -0.275916245E+01 -0.955512421E+00
   H  0.198803398E+02  0.264206034E+01 -0.148918859E+01
     4
 # iter = 47000  time[fs]=47.00000
   C -0.468113306E+01  0.167020677E+00 -0.106381818E+00
   C  0.455425909E+01 -0.181322882E+00  0.206331797E+00
   H -0.208590471E+02 -0.280799934E+01 -0.971608841E+00
   H  0.202309782E+02  0.268958114E+01 -0.151590359E+01
     4
 # iter = 47500  time[fs]=47.50000
   C -0.477866293E+01  0.171311785E+00 -0.108143303E+00
   C  0.464871420E+01 -0.185603717E+00  0.210852931E+00
   H -0.212235862E+02 -0.285686743E+01 -0.987714153E+00
   H  0.205818237E+02  0.273713439E+01 -0.154263648E+01
     4
 # iter = 48000  time[fs]=48.00000
   C -0.487640033E+01  0.175612385E+00 -0.109911212E+00
   C  0.474337613E+01 -0.189894141E+00  0.215382650E+00
   H -0.215883170E+02 -0.290576573E+01 -0.100382806E+01
   H  0.209328694E+02  0.278471906E+01 -0.156938670E+01
     4
 # iter = 48500  time[fs]=48.50000
   C -0.497433697E+01  0.179922143E+00 -0.111685279E+00
   C  0.483823661E+01 -0.194193821E+00  0.219920623E+00
   H -0.219532332E+02 -0.295469328E+01 -0.101995027E+01
   H  0.212841089E+02  0.283233416E+01 -0.159615371E+01
     4
 # iter = 49000  time[fs]=49.00000
   C -0.507246505E+01  0.184240741E+00 -0.113465258E+00
   C  0.493328786E+01 -0.198502438E+00  0.224466534E+00
   H -0.223183288E+02 -0.300364917E+01 -0.103608053E+01
   H  0.216355358E+02  0.287997876E+01 -0.162293702E+01
     4
 # iter = 49500  time[fs]=49.50000
   C -0.517077719E+01  0.188567879E+00 -0.115250913E+00
   C  0.502852252E+01 -0.202819689E+00  0.229020086E+00
   H -0.226835982E+02 -0.305263253E+01 -0.105221859E+01
   H  0.219871444E+02  0.292765197E+01 -0.164973612E+01
     4
 # iter = 50000  time[fs]=50.00000
   C -0.526926642E+01  0.192903270E+00 -0.117042022E+00
   C  0.512393363E+01 -0.207145287E+00  0.233581001E+00
   H -0.230490359E+02 -0.310164253E+01 -0.106836420E+01
   H  0.223389288E+02  0.297535292E+01 -0.167655056E+01
     4
 # iter = 50500  time[fs]=50.50000
   C -0.536792615E+01  0.197246643E+00 -0.118838375E+00
   C  0.521951463E+01 -0.211478957E+00  0.238149010E+00
   H -0.234146367E+02 -0.315067838E+01 -0.108451713E+01
   H  0.226908839E+02  0.302308082E+01 -0.170337989E+01
     4
 # iter = 51000  time[fs]=51.00000
   C -0.546675014E+01  0.201597736E+00 -0.120639776E+00
   C  0.531525927E+01 -0.215820437E+00  0.242723864E+00
   H -0.237803958E+02 -0.319973932E+01 -0.110067715E+01
   H  0.230430043E+02  0.307083488E+01 -0.173022368E+01
     4
 # iter = 51500  time[fs]=51.50000
   C -0.556573246E+01  0.205956303E+00 -0.122446037E+00
   C  0.541116167E+01 -0.220169478E+00  0.247305323E+00
   H -0.241463083E+02 -0.324882462E+01 -0.111684406E+01
   H  0.233952853E+02  0.311861435E+01 -0.175708154E+01
     4
 # iter = 52000  time[fs]=52.00000
   C -0.566486750E+01  0.210322108E+00 -0.124256980E+00
   C  0.550721622E+01 -0.224525842E+00  0.251893160E+00
   H -0.245123699E+02 -0.329793360E+01 -0.113301766E+01
   H  0.237477221E+02  0.316641852E+01 -0.178395305E+01
     4
 # iter = 52500  time[fs]=52.50000
   C -0.576414994E+01  0.214694925E+00 -0.126072437E+00
   C  0.560341761E+01 -0.228889302E+00  0.256487160E+00
   H -0.248785761E+02 -0.334706558E+01 -0.114919775E+01
   H  0.241003102E+02  0.321424670E+01 -0.181083787E+01
     4
 # iter = 53000  time[fs]=53.00000
   C -0.586357470E+01  0.219074539E+00 -0.127892248E+00
   C  0.569976079E+01 -0.233259642E+00  0.261087118E+00
   H -0.252449229E+02 -0.339621994E+01 -0.116538414E+01
   H  0.244530453E+02  0.326209824E+01 -0.183773561E+01
     4
 # iter = 53500  time[fs]=53.50000
   C -0.596313698E+01  0.223460744E+00 -0.129716263E+00
   C  0.579624096E+01 -0.237636653E+00  0.265692839E+00
   H -0.256114062E+02 -0.344539606E+01 -0.118157666E+01
   H  0.248059233E+02  0.330997251E+01 -0.186464594E+01
     4
 # iter = 54000  time[fs]=54.00000
   C -0.606283220E+01  0.227853343E+00 -0.131544337E+00
   C  0.589285355E+01 -0.242020137E+00  0.270304137E+00
   H -0.259780223E+02 -0.349459335E+01 -0.119777514E+01
   H  0.251589403E+02  0.335786890E+01 -0.189156853E+01
     4
 # iter = 54500  time[fs]=54.50000
   C -0.616265600E+01  0.232252148E+00 -0.133376334E+00
   C  0.598959422E+01 -0.246409905E+00  0.274920835E+00
   H -0.263447676E+02 -0.354381125E+01 -0.121397942E+01
   H  0.255120924E+02  0.340578684E+01 -0.191850306E+01
     4
 # iter = 55000  time[fs]=55.00000
   C -0.626260421E+01  0.236656978E+00 -0.135212122E+00
   C  0.608645883E+01 -0.250805774E+00  0.279542765E+00
   H -0.267116385E+02 -0.359304922E+01 -0.123018934E+01
   H  0.258653760E+02  0.345372576E+01 -0.194544922E+01
     4
 # iter = 55500  time[fs]=55.50000
   C -0.636267288E+01  0.241067662E+00 -0.137051579E+00
   C  0.618344341E+01 -0.255207572E+00  0.284169765E+00
   H -0.270786318E+02 -0.364230675E+01 -0.124640475E+01
   H  0.262187876E+02  0.350168513E+01 -0.197240671E+01
     4
 # iter = 56000  time[fs]=56.00000
   C -0.646285822E+01  0.245484033E+00 -0.138894585E+00
   C  0.628054420E+01 -0.259615129E+00  0.288801681E+00
   H -0.274457441E+02 -0.369158333E+01 -0.126262550E+01
   H  0.265723238E+02  0.354966443E+01 -0.199937526E+01
     4
 # iter = 56500  time[fs]=56.50000
   C -0.656315663E+01  0.249905933E+00 -0.140741027E+00
   C  0.637775761E+01 -0.264028288E+00  0.293438366E+00
   H -0.278129724E+02 -0.374087848E+01 -0.127885146E+01
   H  0.269259815E+02  0.359766317E+01 -0.202635460E+01
     4
 # iter = 57000  time[fs]=57.00000
   C -0.666356465E+01  0.254333208E+00 -0.142590799E+00
   C  0.647508018E+01 -0.268446893E+00  0.298079680E+00
   H -0.281803137E+02 -0.379019174E+01 -0.129508250E+01
   H  0.272797575E+02  0.364568086E+01 -0.205334445E+01
     4
 # iter = 57500  time[fs]=57.50000
   C -0.676407898E+01  0.258765714E+00 -0.144443798E+00
   C  0.657250864E+01 -0.272870797E+00  0.302725488E+00
   H -0.285477652E+02 -0.383952267E+01 -0.131131848E+01
   H  0.276336488E+02  0.369371704E+01 -0.208034457E+01
     4
 # iter = 58000  time[fs]=58.00000
   C -0.686469648E+01  0.263203310E+00 -0.146299924E+00
   C  0.667003984E+01 -0.277299859E+00  0.307375662E+00
   H -0.289153241E+02 -0.388887083E+01 -0.132755928E+01
   H  0.279876526E+02  0.374177128E+01 -0.210735471E+01
     4
 # iter = 58500  time[fs]=58.50000
   C -0.696541411E+01  0.267645860E+00 -0.148159085E+00
   C  0.676767077E+01 -0.281733942E+00  0.312030076E+00
   H -0.292829877E+02 -0.393823582E+01 -0.134380479E+01
   H  0.283417660E+02  0.378984314E+01 -0.213437463E+01
     4
 # iter = 59000  time[fs]=59.00000
   C -0.706622899E+01  0.272093235E+00 -0.150021190E+00
   C  0.686539854E+01 -0.286172915E+00  0.316688614E+00
   H -0.296507535E+02 -0.398761722E+01 -0.136005488E+01
   H  0.286959865E+02  0.383793221E+01 -0.216140412E+01
     4
 # iter = 59500  time[fs]=59.50000
   C -0.716713835E+01  0.276545309E+00 -0.151886153E+00
   C  0.696322039E+01 -0.290616652E+00  0.321351162E+00
   H -0.300186190E+02 -0.403701467E+01 -0.137630946E+01
   H  0.290503113E+02  0.388603809E+01 -0.218844294E+01
     4
 # iter = 60000  time[fs]=60.00000
   C -0.726813952E+01  0.281001964E+00 -0.153753892E+00
   C  0.706113367E+01 -0.295065032E+00  0.326017610E+00
   H -0.303865818E+02 -0.408642778E+01 -0.139256840E+01
   H  0.294047382E+02  0.393416039E+01 -0.221549089E+01
     4
 # iter = 60500  time[fs]=60.50000
   C -0.736922996E+01  0.285463083E+00 -0.155624328E+00
   C  0.715913585E+01 -0.299517938E+00  0.330687855E+00
   H -0.307546397E+02 -0.413585621E+01 -0.140883162E+01
   H  0.297592646E+02  0.398229874E+01 -0.224254776E+01
     4
 # iter = 61000  time[fs]=61.00000
   C -0.747040722E+01  0.289928554E+00 -0.157497385E+00
   C  0.725722448E+01 -0.303975258E+00  0.335361795E+00
   H -0.311227904E+02 -0.418529959E+01 -0.142509900E+01
   H  0.301138882E+02  0.403045278E+01 -0.226961335E+01
     4
 # iter = 61500  time[fs]=61.50000
   C -0.757166895E+01  0.294398271E+00 -0.159372990E+00
   C  0.735539722E+01 -0.308436883E+00  0.340039334E+00
   H -0.314910318E+02 -0.423475760E+01 -0.144137046E+01
   H  0.304686069E+02  0.407862217E+01 -0.229668748E+01
     4
 # iter = 62000  time[fs]=62.00000
   C -0.767301289E+01  0.298872130E+00 -0.161251074E+00
   C  0.745365181E+01 -0.312902709E+00  0.344720379E+00
   H -0.318593619E+02 -0.428422992E+01 -0.145764591E+01
   H  0.308234184E+02  0.412680657E+01 -0.232376995E+01
     4
 # iter = 62500  time[fs]=62.50000
   C -0.777443688E+01  0.303350031E+00 -0.163131570E+00
   C  0.755198611E+01 -0.317372634E+00  0.349404840E+00
   H -0.322277785E+02 -0.433371623E+01 -0.147392524E+01
   H  0.311783206E+02  0.417500565E+01 -0.235086059E+01
     4
 # iter = 63000  time[fs]=63.00000
   C -0.787593881E+01  0.307831878E+00 -0.165014413E+00
   C  0.765039802E+01 -0.321846562E+00  0.354092632E+00
   H -0.325962799E+02 -0.438321622E+01 -0.149020838E+01
   H  0.315333116E+02  0.422321909E+01 -0.237795923E+01
     4
 # iter = 63500  time[fs]=63.50000
   C -0.797751669E+01  0.312317578E+00 -0.166899541E+00
   C  0.774888554E+01 -0.326324399E+00  0.358783672E+00
   H -0.329648641E+02 -0.443272961E+01 -0.150649524E+01
   H  0.318883895E+02  0.427144660E+01 -0.240506569E+01
     4
 # iter = 64000  time[fs]=64.00000
   C -0.807916859E+01  0.316807040E+00 -0.168786894E+00
   C  0.784744675E+01 -0.330806053E+00  0.363477880E+00
   H -0.333335293E+02 -0.448225611E+01 -0.152278575E+01
   H  0.322435522E+02  0.431968788E+01 -0.243217981E+01
     4
 # iter = 64500  time[fs]=64.50000
   C -0.818089263E+01  0.321300180E+00 -0.170676417E+00
   C  0.794607980E+01 -0.335291437E+00  0.368175178E+00
   H -0.337022738E+02 -0.453179545E+01 -0.153907982E+01
   H  0.325987980E+02  0.436794264E+01 -0.245930144E+01
     4
 # iter = 65000  time[fs]=65.00000
   C -0.828268702E+01  0.325796911E+00 -0.172568052E+00
   C  0.804478288E+01 -0.339780467E+00  0.372875493E+00
   H -0.340710960E+02 -0.458134735E+01 -0.155537737E+01
   H  0.329541252E+02  0.441621060E+01 -0.248643042E+01
     4
 # iter = 65500  time[fs]=65.50000
   C -0.838455004E+01  0.330297155E+00 -0.174461748E+00
   C  0.814355429E+01 -0.344273061E+00  0.377578753E+00
   H -0.344399940E+02 -0.463091157E+01 -0.157167834E+01
   H  0.333095319E+02  0.446449150E+01 -0.251356660E+01
     4
 # iter = 66000  time[fs]=66.00000
   C -0.848648002E+01  0.334800832E+00 -0.176357452E+00
   C  0.824239236E+01 -0.348769139E+00  0.382284888E+00
   H -0.348089664E+02 -0.468048785E+01 -0.158798266E+01
   H  0.336650166E+02  0.451278507E+01 -0.254070984E+01
     4
 # iter = 66500  time[fs]=66.50000
   C -0.858847535E+01  0.339307867E+00 -0.178255117E+00
   C  0.834129548E+01 -0.353268625E+00  0.386993833E+00
   H -0.351780117E+02 -0.473007595E+01 -0.160429025E+01
   H  0.340205777E+02  0.456109107E+01 -0.256786000E+01
     4
 # iter = 67000  time[fs]=67.00000
   C -0.869053447E+01  0.343818186E+00 -0.180154693E+00
   C  0.844026211E+01 -0.357771445E+00  0.391705523E+00
   H -0.355471283E+02 -0.477967563E+01 -0.162060104E+01
   H  0.343762135E+02  0.460940924E+01 -0.259501695E+01
     4
 # iter = 67500  time[fs]=67.50000
   C -0.879265589E+01  0.348331718E+00 -0.182056135E+00
   C  0.853929076E+01 -0.362277527E+00  0.396419895E+00
   H -0.359163148E+02 -0.482928666E+01 -0.163691498E+01
   H  0.347319226E+02  0.465773935E+01 -0.262218055E+01
     4
 # iter = 68000  time[fs]=68.00000
   C -0.889483816E+01  0.352848395E+00 -0.183959399E+00
   C  0.863837998E+01 -0.366786802E+00  0.401136889E+00
   H -0.362855698E+02 -0.487890883E+01 -0.165323200E+01
   H  0.350877035E+02  0.470608117E+01 -0.264935067E+01
     4
 # iter = 68500  time[fs]=68.50000
   C -0.899707988E+01  0.357368150E+00 -0.185864442E+00
   C  0.873752838E+01 -0.371299201E+00  0.405856447E+00
   H -0.366548919E+02 -0.492854192E+01 -0.166955204E+01
   H  0.354435548E+02  0.475443447E+01 -0.267652720E+01
     4
 # iter = 69000  time[fs]=69.00000
   C -0.909937970E+01  0.361890919E+00 -0.187771223E+00
   C  0.883673461E+01 -0.375814661E+00  0.410578513E+00
   H -0.370242799E+02 -0.497818572E+01 -0.168587503E+01
   H  0.357994751E+02  0.480279904E+01 -0.270371000E+01
     4
 # iter = 69500  time[fs]=69.50000
   C -0.920173631E+01  0.366416640E+00 -0.189679702E+00
   C  0.893599738E+01 -0.380333117E+00  0.415303031E+00
   H -0.373937323E+02 -0.502784002E+01 -0.170220093E+01
   H  0.361554630E+02  0.485117465E+01 -0.273089897E+01
     4
 # iter = 70000  time[fs]=70.00000
   C -0.930414845E+01  0.370945250E+00 -0.191589839E+00
   C  0.903531541E+01 -0.384854509E+00  0.420029951E+00
   H -0.377632481E+02 -0.507750463E+01 -0.171852968E+01
   H  0.365115173E+02  0.489956112E+01 -0.275809399E+01
     4
 # iter = 70500  time[fs]=70.50000
   C -0.940661489E+01  0.375476693E+00 -0.193501599E+00
   C  0.913468750E+01 -0.389378777E+00  0.424759220E+00
   H -0.381328259E+02 -0.512717936E+01 -0.173486122E+01
   H  0.368676367E+02  0.494795823E+01 -0.278529495E+01
     4
 # iter = 71000  time[fs]=71.00000
   C -0.950913445E+01  0.380010910E+00 -0.195414944E+00
   C  0.923411247E+01 -0.393905863E+00  0.429490788E+00
   H -0.385024646E+02 -0.517686402E+01 -0.175119550E+01
   H  0.372238200E+02  0.499636579E+01 -0.281250173E+01
     4
 # iter = 71500  time[fs]=71.50000
   C -0.961170599E+01  0.384547847E+00 -0.197329840E+00
   C  0.933358916E+01 -0.398435711E+00  0.434224609E+00
   H -0.388721631E+02 -0.522655843E+01 -0.176753247E+01
   H  0.375800659E+02  0.504478362E+01 -0.283971424E+01
     4
 # iter = 72000  time[fs]=72.00000
   C -0.971432839E+01  0.389087449E+00 -0.199246253E+00
   C  0.943311648E+01 -0.402968268E+00  0.438960635E+00
   H -0.392419203E+02 -0.527626241E+01 -0.178387207E+01
   H  0.379363734E+02  0.509321152E+01 -0.286693238E+01
     4
 # iter = 72500  time[fs]=72.50000
   C -0.981700058E+01  0.393629665E+00 -0.201164150E+00
   C  0.953269336E+01 -0.407503479E+00  0.443698821E+00
   H -0.396117350E+02 -0.532597579E+01 -0.180021427E+01
   H  0.382927412E+02  0.514164932E+01 -0.289415603E+01
     4
 # iter = 73000  time[fs]=73.00000
   C -0.991972152E+01  0.398174444E+00 -0.203083500E+00
   C  0.963231875E+01 -0.412041294E+00  0.448439125E+00
   H -0.399816062E+02 -0.537569840E+01 -0.181655901E+01
   H  0.386491683E+02  0.519009685E+01 -0.292138512E+01
     4
 # iter = 73500  time[fs]=73.50000
   C -0.100224902E+02  0.402721737E+00 -0.205004272E+00
   C  0.973199165E+01 -0.416581663E+00  0.453181502E+00
   H -0.403515329E+02 -0.542543008E+01 -0.183290625E+01
   H  0.390056536E+02  0.523855393E+01 -0.294861953E+01
     4
 # iter = 74000  time[fs]=74.00000
   C -0.101253056E+02  0.407271496E+00 -0.206926435E+00
   C  0.983171109E+01 -0.421124537E+00  0.457925913E+00
   H -0.407215142E+02 -0.547517068E+01 -0.184925594E+01
   H  0.393621960E+02  0.528702039E+01 -0.297585919E+01
     4
 # iter = 74500  time[fs]=74.50000
   C -0.102281669E+02  0.411823674E+00 -0.208849962E+00
   C  0.993147611E+01 -0.425669870E+00  0.462672317E+00
   H -0.410915489E+02 -0.552492003E+01 -0.186560803E+01
   H  0.397187947E+02  0.533549608E+01 -0.300310400E+01
     4
 # iter = 75000  time[fs]=75.00000
   C -0.103310730E+02  0.416378226E+00 -0.210774824E+00
   C  0.100312858E+02 -0.430217616E+00  0.467420675E+00
   H -0.414616363E+02 -0.557467799E+01 -0.188196250E+01
   H  0.400754484E+02  0.538398084E+01 -0.303035387E+01
     4
 # iter = 75500  time[fs]=75.50000
   C -0.104340231E+02  0.420935109E+00 -0.212700994E+00
   C  0.101311393E+02 -0.434767730E+00  0.472170950E+00
   H -0.418317753E+02 -0.562444441E+01 -0.189831929E+01
   H  0.404321564E+02  0.543247452E+01 -0.305760872E+01
     4
 # iter = 76000  time[fs]=76.00000
   C -0.105370163E+02  0.425494279E+00 -0.214628446E+00
   C  0.102310356E+02 -0.439320169E+00  0.476923106E+00
   H -0.422019651E+02 -0.567421915E+01 -0.191467837E+01
   H  0.407889177E+02  0.548097696E+01 -0.308486847E+01
     4
 # iter = 76500  time[fs]=76.50000
   C -0.106400518E+02  0.430055695E+00 -0.216557154E+00
   C  0.103309741E+02 -0.443874891E+00  0.481677105E+00
   H -0.425722048E+02 -0.572400206E+01 -0.193103970E+01
   H  0.411457313E+02  0.552948802E+01 -0.311213304E+01
     4
 # iter = 77000  time[fs]=77.00000
   C -0.107431287E+02  0.434619317E+00 -0.218487093E+00
   C  0.104309538E+02 -0.448431854E+00  0.486432915E+00
   H -0.429424936E+02 -0.577379302E+01 -0.194740323E+01
   H  0.415025963E+02  0.557800756E+01 -0.313940234E+01
     4
 # iter = 77500  time[fs]=77.50000
   C -0.108462463E+02  0.439185105E+00 -0.220418239E+00
   C  0.105309740E+02 -0.452991019E+00  0.491190502E+00
   H -0.433128306E+02 -0.582359189E+01 -0.196376894E+01
   H  0.418595120E+02  0.562653543E+01 -0.316667629E+01
     4
 # iter = 78000  time[fs]=78.00000
   C -0.109494038E+02  0.443753021E+00 -0.222350569E+00
   C  0.106310338E+02 -0.457552348E+00  0.495949832E+00
   H -0.436832150E+02 -0.587339854E+01 -0.198013678E+01
   H  0.422164774E+02  0.567507152E+01 -0.319395484E+01
     4
 # iter = 78500  time[fs]=78.50000
   C -0.110526005E+02  0.448323027E+00 -0.224284060E+00
   C  0.107311326E+02 -0.462115801E+00  0.500710874E+00
   H -0.440536461E+02 -0.592321285E+01 -0.199650672E+01
   H  0.425734917E+02  0.572361567E+01 -0.322123789E+01
     4
 # iter = 79000  time[fs]=79.00000
   C -0.111558355E+02  0.452895087E+00 -0.226218690E+00
   C  0.108312696E+02 -0.466681342E+00  0.505473597E+00
   H -0.444241230E+02 -0.597303469E+01 -0.201287872E+01
   H  0.429305542E+02  0.577216777E+01 -0.324852539E+01
     4
 # iter = 79500  time[fs]=79.50000
   C -0.112591082E+02  0.457469165E+00 -0.228154437E+00
   C  0.109314441E+02 -0.471248936E+00  0.510237971E+00
   H -0.447946451E+02 -0.602286394E+01 -0.202925276E+01
   H  0.432876640E+02  0.582072768E+01 -0.327581725E+01
     4
 # iter = 80000  time[fs]=80.00000
   C -0.113624179E+02  0.462045227E+00 -0.230091281E+00
   C  0.110316555E+02 -0.475818547E+00  0.515003966E+00
   H -0.451652115E+02 -0.607270048E+01 -0.204562880E+01
   H  0.436448204E+02  0.586929529E+01 -0.330311342E+01
