     4
 # iter = 25000  time[fs]=25.00000
   C -0.967394880E+00 -0.453060641E-01 -0.562443962E-01
   C  0.101022117E+01  0.256345129E-01  0.203806307E-01
   H -0.524964417E+01  0.660570213E+00  0.441088835E+00
   H  0.528967253E+01 -0.668242538E+00  0.229042316E+00
     4
 # iter = 25500  time[fs]=25.50000
   C -0.101346618E+01 -0.508083247E-01 -0.611692493E-01
   C  0.105216491E+01  0.266096693E-01  0.184524553E-01
   H -0.558436033E+01  0.693748526E+00  0.459784174E+00
   H  0.559661087E+01 -0.720490993E+00  0.232280752E+00
     4
 # iter = 26000  time[fs]=26.00000
   C -0.106381313E+01 -0.573885808E-01 -0.671789573E-01
   C  0.109643263E+01  0.267165748E-01  0.156335496E-01
   H -0.592709242E+01  0.721891536E+00  0.473312350E+00
   H  0.590080981E+01 -0.778524541E+00  0.230218017E+00
     4
 # iter = 26500  time[fs]=26.50000
   C -0.111536565E+01 -0.622516113E-01 -0.714725774E-01
   C  0.114575184E+01  0.289595034E-01  0.149253750E-01
   H -0.626145990E+01  0.761043190E+00  0.497731821E+00
   H  0.621808918E+01 -0.826209648E+00  0.238938229E+00
     4
 # iter = 27000  time[fs]=27.00000
   C -0.116772071E+01 -0.652515326E-01 -0.738997745E-01
   C  0.120000632E+01  0.334794839E-01  0.164671317E-01
   H -0.658642399E+01  0.811965024E+00  0.533816131E+00
   H  0.654900264E+01 -0.862716627E+00  0.259227594E+00
     4
 # iter = 27500  time[fs]=27.50000
   C -0.122270645E+01 -0.684541244E-01 -0.765229373E-01
   C  0.125671071E+01  0.380276206E-01  0.180089084E-01
   H -0.691375088E+01  0.862660554E+00  0.569578816E+00
   H  0.688135998E+01 -0.899991293E+00  0.279101768E+00
     4
 # iter = 28000  time[fs]=28.00000
   C -0.128156574E+01 -0.733189682E-01 -0.807991569E-01
   C  0.131405596E+01  0.410106077E-01  0.179569458E-01
   H -0.725173430E+01  0.904637492E+00  0.596536242E+00
   H  0.720650346E+01 -0.946481215E+00  0.290080088E+00
     4
 # iter = 28500  time[fs]=28.50000
   C -0.134350258E+01 -0.792459604E-01 -0.861265764E-01
   C  0.137247962E+01  0.430617360E-01  0.169444685E-01
   H -0.759679752E+01  0.941296703E+00  0.618096935E+00
   H  0.752770150E+01 -0.998740273E+00  0.295580765E+00
     4
 # iter = 29000  time[fs]=29.00000
   C -0.140687911E+01 -0.847738222E-01 -0.910427337E-01
   C  0.143336968E+01  0.457457723E-01  0.165364935E-01
   H -0.794040914E+01  0.981014433E+00  0.642643912E+00
   H  0.785322025E+01 -0.104834947E+01  0.303998826E+00
     4
 # iter = 29500  time[fs]=29.50000
   C -0.147102730E+01 -0.893937642E-01 -0.950380820E-01
   C  0.149710317E+01  0.495989449E-01  0.172697730E-01
   H -0.827955139E+01  0.102667341E+01  0.673065802E+00
   H  0.818584170E+01 -0.109239127E+01  0.318230530E+00
     4
 # iter = 30000  time[fs]=30.00000
   C -0.153650179E+01 -0.938039151E-01 -0.988103158E-01
   C  0.156276971E+01  0.538540026E-01  0.183777878E-01
   H -0.861818653E+01  0.107419399E+01  0.705288106E+00
   H  0.852139113E+01 -0.113491861E+01  0.334203798E+00
     4
 # iter = 30500  time[fs]=30.50000
   C -0.160395345E+01 -0.987841519E-01 -0.103139128E+00
   C  0.162938603E+01  0.576562485E-01  0.190067019E-01
   H -0.896075826E+01  0.111902892E+01  0.734768133E+00
   H  0.885523592E+01 -0.118045556E+01  0.347377459E+00
     4
 # iter = 31000  time[fs]=31.00000
   C -0.167327222E+01 -0.104340174E+00 -0.108030227E+00
   C  0.169681950E+01  0.609885676E-01  0.191403273E-01
   H -0.930724806E+01  0.116110394E+01  0.761435704E+00
   H  0.918722894E+01 -0.122905332E+01  0.357685226E+00
     4
 # iter = 31500  time[fs]=31.50000
   C -0.174383684E+01 -0.109954722E+00 -0.112966504E+00
   C  0.176551520E+01  0.643998758E-01  0.193285417E-01
   H -0.965462435E+01  0.120336716E+01  0.788242603E+00
   H  0.952025563E+01 -0.127774126E+01  0.368084305E+00
     4
 # iter = 32000  time[fs]=32.00000
   C -0.181523165E+01 -0.115305634E+00 -0.117626048E+00
   C  0.183571857E+01  0.682290104E-01  0.199111627E-01
   H -0.100009874E+02  0.124764349E+01  0.817017043E+00
   H  0.985608412E+01 -0.132467477E+01  0.380407263E+00
     4
 # iter = 32500  time[fs]=32.50000
   C -0.188750278E+01 -0.120523351E+00 -0.122139621E+00
   C  0.190719594E+01  0.723263769E-01  0.207395808E-01
   H -0.103470551E+02  0.129314788E+01  0.846976942E+00
   H  0.101938763E+02 -0.137062258E+01  0.393874402E+00
     4
 # iter = 33000  time[fs]=33.00000
   C -0.196084797E+01 -0.125881610E+00 -0.126781324E+00
   C  0.197956770E+01  0.763881921E-01  0.215109859E-01
   H -0.106943766E+02  0.133827072E+01  0.876515388E+00
   H  0.105319738E+02 -0.141718007E+01  0.406880394E+00
     4
 # iter = 33500  time[fs]=33.50000
   C -0.203527627E+01 -0.131458136E+00 -0.131629282E+00
   C  0.205267408E+01  0.803231496E-01  0.221350191E-01
   H -0.110433727E+02  0.138253649E+01  0.905159278E+00
   H  0.108698575E+02 -0.146480925E+01  0.418954191E+00
     4
 # iter = 34000  time[fs]=34.00000
   C -0.211060391E+01 -0.137131238E+00 -0.136562220E+00
   C  0.212657794E+01  0.842560503E-01  0.227373954E-01
   H -0.113933153E+02  0.142662310E+01  0.933588760E+00
   H  0.112081666E+02 -0.151281918E+01  0.430778519E+00
     4
 # iter = 34500  time[fs]=34.50000
   C -0.218665583E+01 -0.142782115E+00 -0.141461759E+00
   C  0.220134536E+01  0.883090982E-01  0.234411983E-01
   H -0.117434957E+02  0.147119376E+01  0.962469068E+00
   H  0.115475290E+02 -0.156053477E+01  0.443020997E+00
     4
 # iter = 35000  time[fs]=35.00000
   C -0.226338007E+01 -0.148409887E+00 -0.146327444E+00
   C  0.227692064E+01  0.924775331E-01  0.242425092E-01
   H -0.120938881E+02  0.151623267E+01  0.991786272E+00
   H  0.118878961E+02 -0.160796126E+01  0.455669491E+00
     4
 # iter = 35500  time[fs]=35.50000
   C -0.234079381E+01 -0.154078197E+00 -0.151223338E+00
   C  0.235318340E+01  0.966872992E-01  0.250680765E-01
   H -0.124448409E+02  0.156135318E+01  0.102115542E+01
   H  0.122288510E+02 -0.165547586E+01  0.468340465E+00
     4
 # iter = 36000  time[fs]=36.00000
   C -0.241888839E+01 -0.159820710E+00 -0.156183515E+00
   C  0.243005017E+01  0.100897146E+00  0.258774149E-01
   H -0.127965311E+02  0.160634321E+01  0.105036600E+01
   H  0.125701537E+02 -0.170328187E+01  0.480824798E+00
     4
 # iter = 36500  time[fs]=36.50000
   C -0.249760722E+01 -0.165619489E+00 -0.161190438E+00
   C  0.250749733E+01  0.105121963E+00  0.266861388E-01
   H -0.131488394E+02  0.165128994E+01  0.107950665E+01
   H  0.129118662E+02 -0.175128383E+01  0.493212587E+00
     4
 # iter = 37000  time[fs]=37.00000
   C -0.257688530E+01 -0.171444851E+00 -0.166214810E+00
   C  0.258551756E+01  0.109389671E+00  0.275228581E-01
   H -0.135015797E+02  0.169634960E+01  0.110873493E+01
   H  0.132541212E+02 -0.179931779E+01  0.505662805E+00
     4
 # iter = 37500  time[fs]=37.50000
   C -0.265668156E+01 -0.177288106E+00 -0.171248312E+00
   C  0.266408415E+01  0.113705808E+00  0.283937625E-01
   H -0.138546882E+02  0.174155833E+01  0.113808823E+01
   H  0.135969333E+02 -0.184734053E+01  0.518214069E+00
     4
 # iter = 38000  time[fs]=38.00000
   C -0.273697498E+01 -0.183157936E+00 -0.176299983E+00
   C  0.274315452E+01  0.118057415E+00  0.292865098E-01
   H -0.142082026E+02  0.178685299E+01  0.116750457E+01
   H  0.139402190E+02 -0.189540869E+01  0.530805471E+00
     4
 # iter = 38500  time[fs]=38.50000
   C -0.281774560E+01 -0.189061693E+00 -0.181377517E+00
   C  0.282269019E+01  0.122433226E+00  0.301904189E-01
   H -0.145621538E+02  0.183217905E+01  0.119693047E+01
   H  0.142839051E+02 -0.194357073E+01  0.543384565E+00
     4
 # iter = 39000  time[fs]=39.00000
   C -0.289896644E+01 -0.194997542E+00 -0.186479405E+00
   C  0.290266500E+01  0.126832142E+00  0.311049414E-01
   H -0.149165203E+02  0.187753589E+01  0.122636631E+01
   H  0.146279736E+02 -0.199182161E+01  0.555952688E+00
     4
 # iter = 39500  time[fs]=39.50000
   C -0.298060847E+01 -0.200959648E+00 -0.191600123E+00
   C  0.298305926E+01  0.131257597E+00  0.320340331E-01
   H -0.152712584E+02  0.192294671E+01  0.125583624E+01
   H  0.149724316E+02 -0.204013281E+01  0.568534915E+00
     4
 # iter = 40000  time[fs]=40.00000
   C -0.306264684E+01 -0.206944601E+00 -0.196736559E+00
   C  0.306385263E+01  0.135710601E+00  0.329791998E-01
   H -0.156263390E+02  0.196842146E+01  0.128535105E+01
   H  0.153172738E+02 -0.208848941E+01  0.581142914E+00
     4
 # iter = 40500  time[fs]=40.50000
   C -0.314506149E+01 -0.212952167E+00 -0.201888760E+00
   C  0.314502310E+01  0.140188914E+00  0.339386654E-01
   H -0.159817520E+02  0.201395239E+01  0.131490383E+01
   H  0.156624784E+02 -0.213689455E+01  0.593770537E+00
     4
 # iter = 41000  time[fs]=41.00000
   C -0.322783437E+01 -0.218982678E+00 -0.207057328E+00
   C  0.322654969E+01  0.144689843E+00  0.349101823E-01
   H -0.163374910E+02  0.205952906E+01  0.134448489E+01
   H  0.160080218E+02 -0.218535430E+01  0.606408861E+00
     4
 # iter = 41500  time[fs]=41.50000
   C -0.331094768E+01 -0.225035395E+00 -0.212241780E+00
   C  0.330841401E+01  0.149212011E+00  0.358927883E-01
   H -0.166935441E+02  0.210514778E+01  0.137409125E+01
   H  0.163538878E+02 -0.223386829E+01  0.619055606E+00
     4
 # iter = 42000  time[fs]=42.00000
   C -0.339438411E+01 -0.231108869E+00 -0.217440910E+00
   C  0.339059979E+01  0.153754943E+00  0.368864055E-01
   H -0.170498957E+02  0.215080946E+01  0.140372451E+01
   H  0.167000657E+02 -0.228243178E+01  0.631713013E+00
     4
 # iter = 42500  time[fs]=42.50000
   C -0.347812764E+01 -0.237201828E+00 -0.222653676E+00
   C  0.347309180E+01  0.158318103E+00  0.378908738E-01
   H -0.174065315E+02  0.219651445E+01  0.143338563E+01
   H  0.170465449E+02 -0.233104079E+01  0.644382690E+00
     4
 # iter = 43000  time[fs]=43.00000
   C -0.356216367E+01 -0.243313436E+00 -0.227879464E+00
   C  0.355587545E+01  0.162900601E+00  0.389056570E-01
   H -0.177634403E+02  0.224226099E+01  0.146307346E+01
   H  0.173933135E+02 -0.237969368E+01  0.657064066E+00
     4
 # iter = 43500  time[fs]=43.50000
   C -0.364647872E+01 -0.249443049E+00 -0.233117838E+00
   C  0.363893697E+01  0.167501452E+00  0.399301072E-01
   H -0.181206123E+02  0.228804665E+01  0.149278613E+01
   H  0.177403593E+02 -0.242838968E+01  0.669755813E+00
     4
 # iter = 44000  time[fs]=44.00000
   C -0.373106010E+01 -0.255589975E+00 -0.238368306E+00
   C  0.372226356E+01  0.172119817E+00  0.409637059E-01
   H -0.184780377E+02  0.233386959E+01  0.152252233E+01
   H  0.180876713E+02 -0.247712760E+01  0.682457153E+00
     4
 # iter = 44500  time[fs]=44.50000
   C -0.381589584E+01 -0.261753476E+00 -0.243630316E+00
   C  0.380584337E+01  0.176755008E+00  0.420060679E-01
   H -0.188357069E+02  0.237972861E+01  0.155228136E+01
   H  0.184352397E+02 -0.252590575E+01  0.695167885E+00
     4
 # iter = 45000  time[fs]=45.00000
   C -0.390097471E+01 -0.267932841E+00 -0.248903342E+00
   C  0.388966528E+01  0.181406388E+00  0.430568444E-01
   H -0.191936107E+02  0.242562264E+01  0.158206262E+01
   H  0.187830553E+02 -0.257472251E+01  0.707887883E+00
     4
 # iter = 45500  time[fs]=45.50000
   C -0.398628622E+01 -0.274127432E+00 -0.254186914E+00
   C  0.397371884E+01  0.186073323E+00  0.441156759E-01
   H -0.195517403E+02  0.247155050E+01  0.161186539E+01
   H  0.191311092E+02 -0.262357648E+01  0.720616854E+00
     4
 # iter = 46000  time[fs]=46.00000
   C -0.407182052E+01 -0.280336666E+00 -0.259480614E+00
   C  0.405799421E+01  0.190755198E+00  0.451822060E-01
   H -0.199100879E+02  0.251751095E+01  0.164168885E+01
   H  0.194793928E+02 -0.267246645E+01  0.733354415E+00
     4
 # iter = 46500  time[fs]=46.50000
   C -0.415756834E+01 -0.286559987E+00 -0.264784040E+00
   C  0.414248215E+01  0.195451432E+00  0.462561025E-01
   H -0.202686458E+02  0.256350285E+01  0.167153226E+01
   H  0.198278982E+02 -0.272139127E+01  0.746100223E+00
     4
 # iter = 47000  time[fs]=47.00000
   C -0.424352097E+01 -0.292796863E+00 -0.270096810E+00
   C  0.422717396E+01  0.200161485E+00  0.473370618E-01
   H -0.206274068E+02  0.260952514E+01  0.170139495E+01
   H  0.201766177E+02 -0.277034977E+01  0.758853995E+00
     4
 # iter = 47500  time[fs]=47.50000
   C -0.432967017E+01 -0.299046787E+00 -0.275418557E+00
   C  0.431206146E+01  0.204884850E+00  0.484248002E-01
   H -0.209863639E+02  0.265557685E+01  0.173127631E+01
   H  0.205255441E+02 -0.281934085E+01  0.771615480E+00
     4
 # iter = 48000  time[fs]=48.00000
   C -0.441600819E+01 -0.305309282E+00 -0.280748939E+00
   C  0.439713691E+01  0.209621043E+00  0.495190486E-01
   H -0.213455107E+02  0.270165703E+01  0.176117575E+01
   H  0.208746705E+02 -0.286836346E+01  0.784384425E+00
     4
 # iter = 48500  time[fs]=48.50000
   C -0.450252771E+01 -0.311583896E+00 -0.286087634E+00
   C  0.448239302E+01  0.214369605E+00  0.506195513E-01
   H -0.217048408E+02  0.274776478E+01  0.179109269E+01
   H  0.212239903E+02 -0.291741661E+01  0.797160585E+00
     4
 # iter = 49000  time[fs]=49.00000
   C -0.458922181E+01 -0.317870200E+00 -0.291434335E+00
   C  0.456782290E+01  0.219130098E+00  0.517260670E-01
   H -0.220643485E+02  0.279389922E+01  0.182102657E+01
   H  0.215734975E+02 -0.296649935E+01  0.809943723E+00
     4
 # iter = 49500  time[fs]=49.50000
   C -0.467608396E+01 -0.324167789E+00 -0.296788754E+00
   C  0.465342003E+01  0.223902111E+00  0.528383677E-01
   H -0.224240279E+02  0.284005954E+01  0.185097688E+01
   H  0.219231860E+02 -0.301561080E+01  0.822733617E+00
     4
 # iter = 50000  time[fs]=50.00000
   C -0.476310795E+01 -0.330476275E+00 -0.302150616E+00
   C  0.473917823E+01  0.228685248E+00  0.539562381E-01
   H -0.227838738E+02  0.288624496E+01  0.188094311E+01
   H  0.222730501E+02 -0.306475007E+01  0.835530057E+00
     4
 # iter = 50500  time[fs]=50.50000
   C -0.485028792E+01 -0.336795291E+00 -0.307519660E+00
   C  0.482509166E+01  0.233479137E+00  0.550794743E-01
   H -0.231438810E+02  0.293245472E+01  0.191092480E+01
   H  0.226230845E+02 -0.311391635E+01  0.848332843E+00
     4
 # iter = 51000  time[fs]=51.00000
   C -0.493761829E+01 -0.343124486E+00 -0.312895638E+00
   C  0.491115478E+01  0.238283422E+00  0.562078827E-01
   H -0.235040446E+02  0.297868810E+01  0.194092148E+01
   H  0.229732841E+02 -0.316310886E+01  0.861141781E+00
     4
 # iter = 51500  time[fs]=51.50000
   C -0.502509379E+01 -0.349463527E+00 -0.318278316E+00
   C  0.499736231E+01  0.243097764E+00  0.573412798E-01
   H -0.238643599E+02  0.302494443E+01  0.197093273E+01
   H  0.233236439E+02 -0.321232683E+01  0.873956688E+00
     4
 # iter = 52000  time[fs]=52.00000
   C -0.511270940E+01 -0.355812097E+00 -0.323667471E+00
   C  0.508370926E+01  0.247921839E+00  0.584794914E-01
   H -0.242248225E+02  0.307122304E+01  0.200095813E+01
   H  0.236741591E+02 -0.326156955E+01  0.886777388E+00
     4
 # iter = 52500  time[fs]=52.50000
   C -0.520046034E+01 -0.362169893E+00 -0.329062888E+00
   C  0.517019087E+01  0.252755340E+00  0.596223519E-01
   H -0.245854280E+02  0.311752331E+01  0.203099727E+01
   H  0.240248254E+02 -0.331083632E+01  0.899603713E+00
     4
 # iter = 53000  time[fs]=53.00000
   C -0.528834208E+01 -0.368536626E+00 -0.334464367E+00
   C  0.525680264E+01  0.257597973E+00  0.607697038E-01
   H -0.249461724E+02  0.316384464E+01  0.206104979E+01
   H  0.243756384E+02 -0.336012649E+01  0.912435502E+00
     4
 # iter = 53500  time[fs]=53.50000
   C -0.537635030E+01 -0.374912020E+00 -0.339871713E+00
   C  0.534354024E+01  0.262449457E+00  0.619213973E-01
   H -0.253070518E+02  0.321018644E+01  0.209111530E+01
   H  0.247265939E+02 -0.340943941E+01  0.925272601E+00
     4
 # iter = 54000  time[fs]=54.00000
   C -0.546448088E+01 -0.381295811E+00 -0.345284742E+00
   C  0.543039959E+01  0.267309523E+00  0.630772898E-01
   H -0.256680623E+02  0.325654817E+01  0.212119346E+01
   H  0.250776880E+02 -0.345877448E+01  0.938114863E+00
     4
 # iter = 54500  time[fs]=54.50000
   C -0.555272990E+01 -0.387687748E+00 -0.350703279E+00
   C  0.551737677E+01  0.272177915E+00  0.642372453E-01
   H -0.260292004E+02  0.330292930E+01  0.215128394E+01
   H  0.254289169E+02 -0.350813111E+01  0.950962145E+00
     4
 # iter = 55000  time[fs]=55.00000
   C -0.564109361E+01 -0.394087588E+00 -0.356127155E+00
   C  0.560446806E+01  0.277054387E+00  0.654011342E-01
   H -0.263904627E+02  0.334932930E+01  0.218138640E+01
   H  0.257802770E+02 -0.355750873E+01  0.963814312E+00
     4
 # iter = 55500  time[fs]=55.50000
   C -0.572956844E+01 -0.400495103E+00 -0.361556210E+00
   C  0.569166990E+01  0.281938705E+00  0.665688327E-01
   H -0.267518457E+02  0.339574770E+01  0.221150054E+01
   H  0.261317647E+02 -0.360690682E+01  0.976671233E+00
     4
 # iter = 56000  time[fs]=56.00000
   C -0.581815097E+01 -0.406910069E+00 -0.366990291E+00
   C  0.577897888E+01  0.286830643E+00  0.677402226E-01
   H -0.271133463E+02  0.344218402E+01  0.224162606E+01
   H  0.264833768E+02 -0.365632484E+01  0.989532783E+00
     4
 # iter = 56500  time[fs]=56.50000
   C -0.590683795E+01 -0.413332277E+00 -0.372429250E+00
   C  0.586639176E+01  0.291729986E+00  0.689151912E-01
   H -0.274749614E+02  0.348863781E+01  0.227176267E+01
   H  0.268351099E+02 -0.370576229E+01  0.100239884E+01
     4
 # iter = 57000  time[fs]=57.00000
   C -0.599562625E+01 -0.419761521E+00 -0.377872946E+00
   C  0.595390543E+01  0.296636527E+00  0.700936304E-01
   H -0.278366882E+02  0.353510863E+01  0.230191009E+01
   H  0.271869609E+02 -0.375521870E+01  0.101526929E+01
     4
 # iter = 57500  time[fs]=57.50000
   C -0.608451288E+01 -0.426197609E+00 -0.383321246E+00
   C  0.604151692E+01  0.301550066E+00  0.712754371E-01
   H -0.281985236E+02  0.358159606E+01  0.233206806E+01
   H  0.275389269E+02 -0.380469360E+01  0.102814402E+01
     4
 # iter = 58000  time[fs]=58.00000
   C -0.617349499E+01 -0.432640352E+00 -0.388774020E+00
   C  0.612922338E+01  0.306470415E+00  0.724605123E-01
   H -0.285604651E+02  0.362809969E+01  0.236223632E+01
   H  0.278910050E+02 -0.385418653E+01  0.104102293E+01
     4
 # iter = 58500  time[fs]=58.50000
   C -0.626256983E+01 -0.439089571E+00 -0.394231143E+00
   C  0.621702207E+01  0.311397389E+00  0.736487615E-01
   H -0.289225099E+02  0.367461913E+01  0.239241462E+01
   H  0.282431924E+02 -0.390369708E+01  0.105390591E+01
     4
 # iter = 59000  time[fs]=59.00000
   C -0.635173478E+01 -0.445545093E+00 -0.399692498E+00
   C  0.630491040E+01  0.316330812E+00  0.748400939E-01
   H -0.292846556E+02  0.372115402E+01  0.242260272E+01
   H  0.285954865E+02 -0.395322482E+01  0.106679285E+01
     4
 # iter = 59500  time[fs]=59.50000
   C -0.644098733E+01 -0.452006753E+00 -0.405157969E+00
   C  0.639288583E+01  0.321270517E+00  0.760344226E-01
   H -0.296468997E+02  0.376770397E+01  0.245280039E+01
   H  0.289478846E+02 -0.400276935E+01  0.107968367E+01
     4
 # iter = 60000  time[fs]=60.00000
   C -0.653032504E+01 -0.458474391E+00 -0.410627447E+00
   C  0.648094598E+01  0.326216339E+00  0.772316641E-01
   H -0.300092398E+02  0.381426865E+01  0.248300741E+01
   H  0.293003844E+02 -0.405233028E+01  0.109257828E+01
     4
 # iter = 60500  time[fs]=60.50000
   C -0.661974561E+01 -0.464947854E+00 -0.416100827E+00
   C  0.656908853E+01  0.331168124E+00  0.784317384E-01
   H -0.303716737E+02  0.386084772E+01  0.251322357E+01
   H  0.296529833E+02 -0.410190725E+01  0.110547657E+01
     4
 # iter = 61000  time[fs]=61.00000
   C -0.670924679E+01 -0.471426994E+00 -0.421578008E+00
   C  0.665731126E+01  0.336125719E+00  0.796345685E-01
   H -0.307341992E+02  0.390744084E+01  0.254344865E+01
   H  0.300056791E+02 -0.415149987E+01  0.111837848E+01
     4
 # iter = 61500  time[fs]=61.50000
   C -0.679882646E+01 -0.477911667E+00 -0.427058891E+00
   C  0.674561203E+01  0.341088979E+00  0.808400806E-01
   H -0.310968142E+02  0.395404771E+01  0.257368246E+01
   H  0.303584695E+02 -0.420110782E+01  0.113128390E+01
     4
 # iter = 62000  time[fs]=62.00000
   C -0.688848254E+01 -0.484401739E+00 -0.432543383E+00
   C  0.683398880E+01  0.346057766E+00  0.820482036E-01
   H -0.314595166E+02  0.400066801E+01  0.260392480E+01
   H  0.307113524E+02 -0.425073075E+01  0.114419277E+01
     4
 # iter = 62500  time[fs]=62.50000
   C -0.697821305E+01 -0.490897075E+00 -0.438031394E+00
   C  0.692243959E+01  0.351031944E+00  0.832588692E-01
   H -0.318223044E+02  0.404730145E+01  0.263417549E+01
   H  0.310643258E+02 -0.430036833E+01  0.115710501E+01
     4
 # iter = 63000  time[fs]=63.00000
   C -0.706801610E+01 -0.497397550E+00 -0.443522836E+00
   C  0.701096251E+01  0.356011383E+00  0.844720116E-01
   H -0.321851757E+02  0.409394775E+01  0.266443434E+01
   H  0.314173875E+02 -0.435002024E+01  0.117002054E+01
     4
 # iter = 63500  time[fs]=63.50000
   C -0.715788983E+01 -0.503903039E+00 -0.449017625E+00
   C  0.709955571E+01  0.360995958E+00  0.856875678E-01
   H -0.325481288E+02  0.414060663E+01  0.269470118E+01
   H  0.317705357E+02 -0.439968619E+01  0.118293928E+01
     4
 # iter = 64000  time[fs]=64.00000
   C -0.724783248E+01 -0.510413425E+00 -0.454515681E+00
   C  0.718821745E+01  0.365985547E+00  0.869054766E-01
   H -0.329111617E+02  0.418727782E+01  0.272497584E+01
   H  0.321237684E+02 -0.444936586E+01  0.119586117E+01
     4
 # iter = 64500  time[fs]=64.50000
   C -0.733784235E+01 -0.516928592E+00 -0.460016926E+00
   C  0.727694603E+01  0.370980034E+00  0.881256794E-01
   H -0.332742729E+02  0.423396106E+01  0.275525815E+01
   H  0.324770838E+02 -0.449905899E+01  0.120878614E+01
     4
 # iter = 65000  time[fs]=65.00000
   C -0.742791779E+01 -0.523448430E+00 -0.465521284E+00
   C  0.736573980E+01  0.375979306E+00  0.893481197E-01
   H -0.336374605E+02  0.428065611E+01  0.278554796E+01
   H  0.328304803E+02 -0.454876528E+01  0.122171413E+01
     4
 # iter = 65500  time[fs]=65.50000
   C -0.751805722E+01 -0.529972832E+00 -0.471028682E+00
   C  0.745459720E+01  0.380983254E+00  0.905727428E-01
   H -0.340007230E+02  0.432736271E+01  0.281584511E+01
   H  0.331839559E+02 -0.459848446E+01  0.123464507E+01
     4
 # iter = 66000  time[fs]=66.00000
   C -0.760825910E+01 -0.536501695E+00 -0.476539050E+00
   C  0.754351669E+01  0.385991772E+00  0.917994962E-01
   H -0.343640588E+02  0.437408063E+01  0.284614944E+01
   H  0.335375092E+02 -0.464821629E+01  0.124757889E+01
     4
 # iter = 66500  time[fs]=66.50000
   C -0.769852196E+01 -0.543034919E+00 -0.482052321E+00
   C  0.763249681E+01  0.391004758E+00  0.930283291E-01
   H -0.347274664E+02  0.442080965E+01  0.287646083E+01
   H  0.338911385E+02 -0.469796049E+01  0.126051554E+01
     4
 # iter = 67000  time[fs]=67.00000
   C -0.778884437E+01 -0.549572407E+00 -0.487568428E+00
   C  0.772153614E+01  0.396022114E+00  0.942591924E-01
   H -0.350909443E+02  0.446754953E+01  0.290677911E+01
   H  0.342448422E+02 -0.474771683E+01  0.127345497E+01
     4
 # iter = 67500  time[fs]=67.50000
   C -0.787922496E+01 -0.556114066E+00 -0.493087309E+00
   C  0.781063331E+01  0.401043744E+00  0.954920388E-01
   H -0.354544911E+02  0.451430008E+01  0.293710417E+01
   H  0.345986188E+02 -0.479748507E+01  0.128639710E+01
     4
 # iter = 68000  time[fs]=68.00000
   C -0.796966239E+01 -0.562659805E+00 -0.498608901E+00
   C  0.789978699E+01  0.406069556E+00  0.967268225E-01
   H -0.358181054E+02  0.456106107E+01  0.296743586E+01
   H  0.349524669E+02 -0.484726497E+01  0.129934190E+01
     4
 # iter = 68500  time[fs]=68.50000
   C -0.806015537E+01 -0.569209537E+00 -0.504133146E+00
   C  0.798899590E+01  0.411099460E+00  0.979634994E-01
   H -0.361817858E+02  0.460783230E+01  0.299777405E+01
   H  0.353063851E+02 -0.489705631E+01  0.131228931E+01
     4
 # iter = 69000  time[fs]=69.00000
   C -0.815070267E+01 -0.575763177E+00 -0.509659986E+00
   C  0.807825881E+01  0.416133370E+00  0.992020266E-01
   H -0.365455311E+02  0.465461358E+01  0.302811863E+01
   H  0.356603719E+02 -0.494685888E+01  0.132523927E+01
     4
 # iter = 69500  time[fs]=69.50000
   C -0.824130308E+01 -0.582320642E+00 -0.515189366E+00
   C  0.816757451E+01  0.421171201E+00  0.100442363E+00
   H -0.369093400E+02  0.470140472E+01  0.305846947E+01
   H  0.360144260E+02 -0.499667245E+01  0.133819173E+01
     4
 # iter = 70000  time[fs]=70.00000
   C -0.833195542E+01 -0.588881853E+00 -0.520721232E+00
   C  0.825694185E+01  0.426212873E+00  0.101684468E+00
   H -0.372732112E+02  0.474820553E+01  0.308882645E+01
   H  0.363685461E+02 -0.504649682E+01  0.135114666E+01
     4
 # iter = 70500  time[fs]=70.50000
   C -0.842265859E+01 -0.595446733E+00 -0.526255530E+00
   C  0.834635970E+01  0.431258306E+00  0.102928304E+00
   H -0.376371436E+02  0.479501582E+01  0.311918946E+01
   H  0.367227310E+02 -0.509633180E+01  0.136410399E+01
     4
 # iter = 71000  time[fs]=71.00000
   C -0.851341147E+01 -0.602015207E+00 -0.531792212E+00
   C  0.843582698E+01  0.436307423E+00  0.104173833E+00
   H -0.380011360E+02  0.484183543E+01  0.314955838E+01
   H  0.370769795E+02 -0.514617718E+01  0.137706369E+01
     4
 # iter = 71500  time[fs]=71.50000
   C -0.860421302E+01 -0.608587201E+00 -0.537331228E+00
   C  0.852534263E+01  0.441360152E+00  0.105421018E+00
   H -0.383651872E+02  0.488866418E+01  0.317993311E+01
   H  0.374312903E+02 -0.519603277E+01  0.139002571E+01
     4
 # iter = 72000  time[fs]=72.00000
   C -0.869506221E+01 -0.615162646E+00 -0.542872530E+00
   C  0.861490564E+01  0.446416418E+00  0.106669824E+00
   H -0.387292962E+02  0.493550191E+01  0.321031354E+01
   H  0.377856622E+02 -0.524589840E+01  0.140299001E+01
     4
 # iter = 72500  time[fs]=72.50000
   C -0.878595804E+01 -0.621741473E+00 -0.548416072E+00
   C  0.870451501E+01  0.451476153E+00  0.107920218E+00
   H -0.390934619E+02  0.498234845E+01  0.324069957E+01
   H  0.381400942E+02 -0.529577388E+01  0.141595654E+01
     4
 # iter = 73000  time[fs]=73.00000
   C -0.887689955E+01 -0.628323616E+00 -0.553961809E+00
   C  0.879416979E+01  0.456539289E+00  0.109172166E+00
   H -0.394576833E+02  0.502920365E+01  0.327109110E+01
   H  0.384945852E+02 -0.534565903E+01  0.142892526E+01
     4
 # iter = 73500  time[fs]=73.50000
   C -0.896788582E+01 -0.634909010E+00 -0.559509699E+00
   C  0.888386905E+01  0.461605759E+00  0.110425637E+00
   H -0.398219593E+02  0.507606736E+01  0.330148803E+01
   H  0.388491341E+02 -0.539555369E+01  0.144189614E+01
     4
 # iter = 74000  time[fs]=74.00000
   C -0.905891592E+01 -0.641497592E+00 -0.565059698E+00
   C  0.897361189E+01  0.466675500E+00  0.111680599E+00
   H -0.401862890E+02  0.512293941E+01  0.333189026E+01
   H  0.392037398E+02 -0.544545769E+01  0.145486914E+01
     4
 # iter = 74500  time[fs]=74.50000
   C -0.914998898E+01 -0.648089302E+00 -0.570611766E+00
   C  0.906339742E+01  0.471748449E+00  0.112937021E+00
   H -0.405506714E+02  0.516981968E+01  0.336229771E+01
   H  0.395584013E+02 -0.549537087E+01  0.146784421E+01
     4
 # iter = 75000  time[fs]=75.00000
   C -0.924110416E+01 -0.654684080E+00 -0.576165863E+00
   C  0.915322481E+01  0.476824546E+00  0.114194876E+00
   H -0.409151055E+02  0.521670802E+01  0.339271029E+01
   H  0.399131178E+02 -0.554529307E+01  0.148082133E+01
     4
 # iter = 75500  time[fs]=75.50000
   C -0.933226060E+01 -0.661281869E+00 -0.581721950E+00
   C  0.924309322E+01  0.481903731E+00  0.115454134E+00
   H -0.412795906E+02  0.526360428E+01  0.342312790E+01
   H  0.402678881E+02 -0.559522414E+01  0.149380045E+01
     4
 # iter = 76000  time[fs]=76.00000
   C -0.942345753E+01 -0.667882612E+00 -0.587279990E+00
   C  0.933300186E+01  0.486985949E+00  0.116714768E+00
   H -0.416441256E+02  0.531050834E+01  0.345355047E+01
   H  0.406227113E+02 -0.564516392E+01  0.150678154E+01
     4
 # iter = 76500  time[fs]=76.50000
   C -0.951469414E+01 -0.674486256E+00 -0.592839946E+00
   C  0.942294994E+01  0.492071142E+00  0.117976750E+00
   H -0.420087098E+02  0.535742006E+01  0.348397790E+01
   H  0.409775866E+02 -0.569511228E+01  0.151976457E+01
     4
 # iter = 77000  time[fs]=77.00000
   C -0.960596968E+01 -0.681092747E+00 -0.598401783E+00
   C  0.951293672E+01  0.497159257E+00  0.119240056E+00
   H -0.423733423E+02  0.540433932E+01  0.351441012E+01
   H  0.413325131E+02 -0.574506907E+01  0.153274951E+01
     4
 # iter = 77500  time[fs]=77.50000
   C -0.969728342E+01 -0.687702034E+00 -0.603965466E+00
   C  0.960296145E+01  0.502250241E+00  0.120504660E+00
   H -0.427380222E+02  0.545126599E+01  0.354484705E+01
   H  0.416874899E+02 -0.579503414E+01  0.154573631E+01
     4
 # iter = 78000  time[fs]=78.00000
   C -0.978863462E+01 -0.694314066E+00 -0.609530961E+00
   C  0.969302342E+01  0.507344042E+00  0.121770537E+00
   H -0.431027488E+02  0.549819996E+01  0.357528861E+01
   H  0.420425161E+02 -0.584500738E+01  0.155872496E+01
     4
 # iter = 78500  time[fs]=78.50000
   C -0.988002261E+01 -0.700928796E+00 -0.615098237E+00
   C  0.978312194E+01  0.512440612E+00  0.123037663E+00
   H -0.434675213E+02  0.554514109E+01  0.360573473E+01
   H  0.423975910E+02 -0.589498864E+01  0.157171542E+01
     4
 # iter = 79000  time[fs]=79.00000
   C -0.997144668E+01 -0.707546174E+00 -0.620667260E+00
   C  0.987325633E+01  0.517539901E+00  0.124306015E+00
   H -0.438323390E+02  0.559208928E+01  0.363618533E+01
   H  0.427527137E+02 -0.594497779E+01  0.158470765E+01
     4
 # iter = 79500  time[fs]=79.50000
   C -0.100629062E+02 -0.714166156E+00 -0.626238000E+00
   C  0.996342593E+01  0.522641861E+00  0.125575570E+00
   H -0.441972010E+02  0.563904442E+01  0.366664034E+01
   H  0.431078835E+02 -0.599497471E+01  0.159770164E+01
     4
 # iter = 80000  time[fs]=80.00000
   C -0.101544005E+02 -0.720788695E+00 -0.631810427E+00
   C  0.100536301E+02  0.527746447E+00  0.126846307E+00
   H -0.445621068E+02  0.568600638E+01  0.369709969E+01
   H  0.434630995E+02 -0.604497928E+01  0.161069735E+01
