     4
 # iter = 25000  time[fs]=25.00000
   C -0.979226389E+00  0.363535287E-01  0.263734145E-01
   C  0.961794133E+00  0.534278403E-02 -0.280851273E-02
   H -0.525781620E+01 -0.235127427E+00  0.459144181E+00
   H  0.528282774E+01 -0.349315953E+00 -0.423575077E+00
     4
 # iter = 25500  time[fs]=25.50000
   C -0.102602737E+01  0.366143817E-01  0.250885887E-01
   C  0.100162261E+01  0.532419571E-02 -0.198517577E-02
   H -0.559431499E+01 -0.258873206E+00  0.480259202E+00
   H  0.558646864E+01 -0.378195277E+00 -0.456179445E+00
     4
 # iter = 26000  time[fs]=26.00000
   C -0.107687334E+01  0.359655583E-01  0.228659557E-01
   C  0.104357453E+01  0.431874160E-02 -0.214761939E-02
   H -0.593891186E+01 -0.288155424E+00  0.496215227E+00
   H  0.588737757E+01 -0.412668266E+00 -0.494430374E+00
     4
 # iter = 26500  time[fs]=26.50000
   C -0.112861307E+01  0.372922657E-01  0.225908176E-01
   C  0.109022398E+01  0.516649267E-02 -0.452715482E-03
   H -0.627521489E+01 -0.306875016E+00  0.523068029E+00
   H  0.620137641E+01 -0.436619797E+00 -0.522207273E+00
     4
 # iter = 27000  time[fs]=27.00000
   C -0.118086173E+01  0.407314756E-01  0.244004271E-01
   C  0.114146855E+01  0.801137475E-02  0.324571344E-02
   H -0.660217650E+01 -0.314223869E+00  0.561590567E+00
   H  0.652902024E+01 -0.449236820E+00 -0.538692331E+00
     4
 # iter = 27500  time[fs]=27.50000
   C -0.123554784E+01  0.441261141E-01  0.261381612E-01
   C  0.119497555E+01  0.107466592E-01  0.684253959E-02
   H -0.693155581E+01 -0.322158499E+00  0.599797539E+00
   H  0.685811980E+01 -0.462480293E+00 -0.555842338E+00
     4
 # iter = 28000  time[fs]=28.00000
   C -0.129398991E+01  0.459490682E-01  0.262775675E-01
   C  0.124904850E+01  0.118822683E-01  0.884879204E-02
   H -0.727164062E+01 -0.339137037E+00  0.629206006E+00
   H  0.718001780E+01 -0.484810783E+00 -0.582114269E+00
     4
 # iter = 28500  time[fs]=28.50000
   C -0.135538765E+01  0.468114482E-01  0.254306129E-01
   C  0.130410508E+01  0.120238321E-01  0.987083419E-02
   H -0.761884934E+01 -0.361729702E+00  0.653223618E+00
   H  0.749798292E+01 -0.512792882E+00 -0.614069654E+00
     4
 # iter = 29000  time[fs]=29.00000
   C -0.141806439E+01  0.482189000E-01  0.251039182E-01
   C  0.136145701E+01  0.126533032E-01  0.113910571E-01
   H -0.796464645E+01 -0.381535375E+00  0.680231874E+00
   H  0.782028136E+01 -0.538016682E+00 -0.643295935E+00
     4
 # iter = 29500  time[fs]=29.50000
   C -0.148134761E+01  0.506895352E-01  0.258166125E-01
   C  0.142146370E+01  0.142836044E-01  0.139225885E-01
   H -0.830601042E+01 -0.395649194E+00  0.713118630E+00
   H  0.814969498E+01 -0.557572869E+00 -0.666881453E+00
     4
 # iter = 30000  time[fs]=30.00000
   C -0.154583152E+01  0.534898643E-01  0.268362297E-01
   C  0.148327204E+01  0.161997934E-01  0.167505122E-01
   H -0.864689990E+01 -0.408130808E+00  0.747809546E+00
   H  0.848204873E+01 -0.575521979E+00 -0.688884653E+00
     4
 # iter = 30500  time[fs]=30.50000
   C -0.161220818E+01  0.558023526E-01  0.273462594E-01
   C  0.154595978E+01  0.176039790E-01  0.190768354E-01
   H -0.899175541E+01 -0.423509710E+00  0.779762191E+00
   H  0.881270959E+01 -0.596394930E+00 -0.713834586E+00
     4
 # iter = 31000  time[fs]=31.00000
   C -0.168037812E+01  0.576135735E-01  0.273342961E-01
   C  0.160940497E+01  0.184862621E-01  0.208914690E-01
   H -0.934055596E+01 -0.441844734E+00  0.808906107E+00
   H  0.914153009E+01 -0.620248852E+00 -0.741786729E+00
     4
 # iter = 31500  time[fs]=31.50000
   C -0.174970970E+01  0.594534503E-01  0.273312667E-01
   C  0.167402910E+01  0.193691188E-01  0.227166373E-01
   H -0.969026797E+01 -0.460174242E+00  0.838192437E+00
   H  0.947139537E+01 -0.644118351E+00 -0.769774215E+00
     4
 # iter = 32000  time[fs]=32.00000
   C -0.181978320E+01  0.616500417E-01  0.276661993E-01
   C  0.174006532E+01  0.205767509E-01  0.248762462E-01
   H -0.100389898E+02 -0.476661086E+00  0.869448919E+00
   H  0.980407319E+01 -0.666163528E+00 -0.795955822E+00
     4
 # iter = 32500  time[fs]=32.50000
   C -0.189065691E+01  0.640622695E-01  0.281989424E-01
   C  0.180729540E+01  0.219730629E-01  0.272338761E-01
   H -0.103874377E+02 -0.492079049E+00  0.901893347E+00
   H  0.101387250E+02 -0.687157504E+00 -0.821103472E+00
     4
 # iter = 33000  time[fs]=33.00000
   C -0.196254530E+01  0.664008511E-01  0.286410955E-01
   C  0.187536349E+01  0.232763836E-01  0.295075146E-01
   H -0.107371588E+02 -0.508027460E+00  0.933918807E+00
   H  0.104736920E+02 -0.708699664E+00 -0.846815462E+00
     4
 # iter = 33500  time[fs]=33.50000
   C -0.203546607E+01  0.685803656E-01  0.289080772E-01
   C  0.194412043E+01  0.244047100E-01  0.316148115E-01
   H -0.110885726E+02 -0.524972653E+00  0.965052074E+00
   H  0.108084548E+02 -0.731255647E+00 -0.873556444E+00
     4
 # iter = 34000  time[fs]=34.00000
   C -0.210923593E+01  0.707227454E-01  0.291226166E-01
   C  0.201362645E+01  0.254791607E-01  0.336765379E-01
   H -0.114409499E+02 -0.542228440E+00  0.995973047E+00
   H  0.111436522E+02 -0.754137789E+00 -0.900637856E+00
     4
 # iter = 34500  time[fs]=34.50000
   C -0.218367984E+01  0.729472892E-01  0.294047658E-01
   C  0.208394465E+01  0.266181049E-01  0.358107200E-01
   H -0.117935808E+02 -0.559124078E+00  0.102734673E+01
   H  0.114799116E+02 -0.776673970E+00 -0.927386760E+00
     4
 # iter = 35000  time[fs]=35.00000
   C -0.225874986E+01  0.752512550E-01  0.297524930E-01
   C  0.215502333E+01  0.278201021E-01  0.380155817E-01
   H -0.121464383E+02 -0.575668385E+00  0.105915905E+01
   H  0.118171842E+02 -0.798872217E+00 -0.953810431E+00
     4
 # iter = 35500  time[fs]=35.50000
   C -0.233446920E+01  0.775652406E-01  0.300970648E-01
   C  0.222674978E+01  0.290182219E-01  0.402238671E-01
   H -0.124998701E+02 -0.592241585E+00  0.109102497E+01
   H  0.121550527E+02 -0.821112307E+00 -0.980287956E+00
     4
 # iter = 36000  time[fs]=36.00000
   C -0.241083371E+01  0.798512267E-01  0.304010915E-01
   C  0.229904592E+01  0.301761928E-01  0.423989903E-01
   H -0.128540523E+02 -0.609049856E+00  0.112273391E+01
   H  0.124932769E+02 -0.843599897E+00 -0.100702436E+01
     4
 # iter = 36500  time[fs]=36.50000
   C -0.248778907E+01  0.821249889E-01  0.306809413E-01
   C  0.237188994E+01  0.313103913E-01  0.445570264E-01
   H -0.132088646E+02 -0.626000607E+00  0.115437438E+01
   H  0.128319183E+02 -0.866241696E+00 -0.103392576E+01
     4
 # iter = 37000  time[fs]=37.00000
   C -0.256527178E+01  0.844147164E-01  0.309653606E-01
   C  0.244527530E+01  0.324492786E-01  0.467261477E-01
   H -0.135641204E+02 -0.642932614E+00  0.118610382E+01
   H  0.131711095E+02 -0.888875777E+00 -0.106082969E+01
     4
 # iter = 37500  time[fs]=37.50000
   C -0.264324282E+01  0.867270128E-01  0.312614774E-01
   C  0.251917712E+01  0.336000741E-01  0.489132981E-01
   H -0.139197552E+02 -0.659805103E+00  0.121795954E+01
   H  0.135108646E+02 -0.911460796E+00 -0.108769431E+01
     4
 # iter = 38000  time[fs]=38.00000
   C -0.272168367E+01  0.890506354E-01  0.315585420E-01
   C  0.259355554E+01  0.347524304E-01  0.511078677E-01
   H -0.142758061E+02 -0.676676904E+00  0.124987947E+01
   H  0.138511001E+02 -0.934055130E+00 -0.111457752E+01
     4
 # iter = 38500  time[fs]=38.50000
   C -0.280057659E+01  0.913758886E-01  0.318473227E-01
   C  0.266837454E+01  0.358974565E-01  0.533007156E-01
   H -0.146323034E+02 -0.693598545E+00  0.128181008E+01
   H  0.141917424E+02 -0.956708878E+00 -0.114152900E+01
     4
 # iter = 39000  time[fs]=39.00000
   C -0.287989631E+01  0.937027628E-01  0.321282462E-01
   C  0.274360961E+01  0.370357044E-01  0.554921567E-01
   H -0.149892251E+02 -0.710566936E+00  0.131375167E+01
   H  0.145327734E+02 -0.979418516E+00 -0.116854481E+01
     4
 # iter = 39500  time[fs]=39.50000
   C -0.295961519E+01  0.960355342E-01  0.324059997E-01
   C  0.281924233E+01  0.381718806E-01  0.576866723E-01
   H -0.153465271E+02 -0.727555390E+00  0.134572832E+01
   H  0.148741997E+02 -0.100215693E+01 -0.119559747E+01
     4
 # iter = 40000  time[fs]=40.00000
   C -0.303970974E+01  0.983760907E-01  0.326828583E-01
   C  0.289525365E+01  0.393083069E-01  0.598863703E-01
   H -0.157041797E+02 -0.744550722E+00  0.137775077E+01
   H  0.152160160E+02 -0.102491054E+01 -0.122267305E+01
     4
 # iter = 40500  time[fs]=40.50000
   C -0.312016124E+01  0.100723137E+00  0.329578910E-01
   C  0.297162290E+01  0.404441446E-01  0.620902097E-01
   H -0.160621725E+02 -0.761557655E+00  0.140981204E+01
   H  0.155582003E+02 -0.104768373E+01 -0.124977558E+01
     4
 # iter = 41000  time[fs]=41.00000
   C -0.320095288E+01  0.103074894E+00  0.332296639E-01
   C  0.304833035E+01  0.415780477E-01  0.642966520E-01
   H -0.164204988E+02 -0.778583772E+00  0.144190242E+01
   H  0.159007286E+02 -0.107048375E+01 -0.127691203E+01
     4
 # iter = 41500  time[fs]=41.50000
   C -0.328206798E+01  0.105430792E+00  0.334979311E-01
   C  0.312535874E+01  0.427098228E-01  0.665053218E-01
   H -0.167791463E+02 -0.795630101E+00  0.147401886E+01
   H  0.162435848E+02 -0.109331131E+01 -0.130408282E+01
     4
 # iter = 42000  time[fs]=42.00000
   C -0.336349022E+01  0.107791085E+00  0.337632527E-01
   C  0.320269276E+01  0.438400564E-01  0.687166327E-01
   H -0.171380989E+02 -0.812693233E+00  0.150616292E+01
   H  0.165867578E+02 -0.111616272E+01 -0.133128397E+01
     4
 # iter = 42500  time[fs]=42.50000
   C -0.344520447E+01  0.110155925E+00  0.340260704E-01
   C  0.328031805E+01  0.449692101E-01  0.709308827E-01
   H -0.174973422E+02 -0.829770455E+00  0.153833552E+01
   H  0.169302370E+02 -0.113903497E+01 -0.135851223E+01
     4
 # iter = 43000  time[fs]=43.00000
   C -0.352719700E+01  0.112525083E+00  0.342864289E-01
   C  0.335822088E+01  0.460973484E-01  0.731479806E-01
   H -0.178568647E+02 -0.846861304E+00  0.157053549E+01
   H  0.172740102E+02 -0.116192735E+01 -0.138576663E+01
     4
 # iter = 43500  time[fs]=43.50000
   C -0.360945512E+01  0.114898202E+00  0.345442314E-01
   C  0.343638827E+01  0.472243905E-01  0.753676984E-01
   H -0.182166562E+02 -0.863966128E+00  0.160276090E+01
   H  0.176180650E+02 -0.118483995E+01 -0.141304706E+01
     4
 # iter = 44000  time[fs]=44.00000
   C -0.369196687E+01  0.117275034E+00  0.347994744E-01
   C  0.351480814E+01  0.483503421E-01  0.775899017E-01
   H -0.185767068E+02 -0.881084784E+00  0.163501041E+01
   H  0.179623904E+02 -0.120777241E+01 -0.144035292E+01
     4
 # iter = 44500  time[fs]=44.50000
   C -0.377472096E+01  0.119655443E+00  0.350522534E-01
   C  0.359346930E+01  0.494753008E-01  0.798145551E-01
   H -0.189370065E+02 -0.898216602E+00  0.166728331E+01
   H  0.183069765E+02 -0.123072383E+01 -0.146768312E+01
     4
 # iter = 45000  time[fs]=45.00000
   C -0.385770678E+01  0.122039312E+00  0.353026724E-01
   C  0.367236125E+01  0.505993684E-01  0.820416344E-01
   H -0.192975460E+02 -0.915360884E+00  0.169957896E+01
   H  0.186518138E+02 -0.125369330E+01 -0.149503657E+01
     4
 # iter = 45500  time[fs]=45.50000
   C -0.394091441E+01  0.124426500E+00  0.355507999E-01
   C  0.375147412E+01  0.517226088E-01  0.842710834E-01
   H -0.196583163E+02 -0.932517145E+00  0.173189660E+01
   H  0.189968933E+02 -0.127668015E+01 -0.152241238E+01
     4
 # iter = 46000  time[fs]=46.00000
   C -0.402433455E+01  0.126816857E+00  0.357966845E-01
   C  0.383079859E+01  0.528450632E-01  0.865028293E-01
   H -0.200193093E+02 -0.949685030E+00  0.176423541E+01
   H  0.193422064E+02 -0.129968383E+01 -0.154980986E+01
     4
 # iter = 46500  time[fs]=46.50000
   C -0.410795844E+01  0.129210246E+00  0.360403766E-01
   C  0.391032593E+01  0.539667723E-01  0.887368042E-01
   H -0.203805173E+02 -0.966864183E+00  0.179659461E+01
   H  0.196877450E+02 -0.132270381E+01 -0.157722831E+01
     4
 # iter = 47000  time[fs]=47.00000
   C -0.419177782E+01  0.131606545E+00  0.362819338E-01
   C  0.399004791E+01  0.550877819E-01  0.909729507E-01
   H -0.207419327E+02 -0.984054221E+00  0.182897352E+01
   H  0.200335012E+02 -0.134573953E+01 -0.160466701E+01
     4
 # iter = 47500  time[fs]=47.50000
   C -0.427578490E+01  0.134005641E+00  0.365214144E-01
   C  0.406995675E+01  0.562081365E-01  0.932112149E-01
   H -0.211035485E+02 -0.100125477E+01  0.186137151E+01
   H  0.203794679E+02 -0.136879046E+01 -0.163212529E+01
     4
 # iter = 48000  time[fs]=48.00000
   C -0.435997235E+01  0.136407427E+00  0.367588734E-01
   C  0.415004516E+01  0.573278760E-01  0.954515430E-01
   H -0.214653580E+02 -0.101846547E+01  0.189378795E+01
   H  0.207256379E+02 -0.139185610E+01 -0.165960249E+01
     4
 # iter = 48500  time[fs]=48.50000
   C -0.444433323E+01  0.138811801E+00  0.369943625E-01
   C  0.423030620E+01  0.584470359E-01  0.976938812E-01
   H -0.218273549E+02 -0.103568601E+01  0.192622225E+01
   H  0.210720047E+02 -0.141493598E+01 -0.168709802E+01
     4
 # iter = 49000  time[fs]=49.00000
   C -0.452886097E+01  0.141218664E+00  0.372279315E-01
   C  0.431073334E+01  0.595656490E-01  0.999381772E-01
   H -0.221895330E+02 -0.105291608E+01  0.195867385E+01
   H  0.214185620E+02 -0.143802965E+01 -0.171461131E+01
     4
 # iter = 49500  time[fs]=49.50000
   C -0.461354936E+01  0.143627926E+00  0.374596297E-01
   C  0.439132040E+01  0.606837463E-01  0.102184381E+00
   H -0.225518866E+02 -0.107015538E+01  0.199114221E+01
   H  0.217653036E+02 -0.146113668E+01 -0.174214180E+01
     4
 # iter = 50000  time[fs]=50.00000
   C -0.469839254E+01  0.146039499E+00  0.376895045E-01
   C  0.447206151E+01  0.618013571E-01  0.104432444E+00
   H -0.229144102E+02 -0.108740363E+01  0.202362681E+01
   H  0.221122240E+02 -0.148425667E+01 -0.176968897E+01
     4
 # iter = 50500  time[fs]=50.50000
   C -0.478338493E+01  0.148453302E+00  0.379176022E-01
   C  0.455295112E+01  0.629185085E-01  0.106682319E+00
   H -0.232770986E+02 -0.110466055E+01  0.205612717E+01
   H  0.224593176E+02 -0.150738922E+01 -0.179725231E+01
     4
 # iter = 51000  time[fs]=51.00000
   C -0.486852124E+01  0.150869256E+00  0.381439674E-01
   C  0.463398397E+01  0.640352258E-01  0.108933960E+00
   H -0.236399466E+02 -0.112192590E+01  0.208864282E+01
   H  0.228065792E+02 -0.153053396E+01 -0.182483135E+01
     4
 # iter = 51500  time[fs]=51.50000
   C -0.495379645E+01  0.153287288E+00  0.383686433E-01
   C  0.471515504E+01  0.651515326E-01  0.111187324E+00
   H -0.240029496E+02 -0.113919941E+01  0.212117331E+01
   H  0.231540037E+02 -0.155369053E+01 -0.185242563E+01
     4
 # iter = 52000  time[fs]=52.00000
   C -0.503920580E+01  0.155707328E+00  0.385916715E-01
   C  0.479645960E+01  0.662674510E-01  0.113442368E+00
   H -0.243661029E+02 -0.115648087E+01  0.215371820E+01
   H  0.235015865E+02 -0.157685860E+01 -0.188003471E+01
     4
 # iter = 52500  time[fs]=52.50000
   C -0.512474474E+01  0.158129309E+00  0.388130928E-01
   C  0.487789311E+01  0.673830017E-01  0.115699051E+00
   H -0.247294021E+02 -0.117377004E+01  0.218627711E+01
   H  0.238493228E+02 -0.160003784E+01 -0.190765817E+01
     4
 # iter = 53000  time[fs]=53.00000
   C -0.521040896E+01  0.160553167E+00  0.390329461E-01
   C  0.495945128E+01  0.684982041E-01  0.117957332E+00
   H -0.250928432E+02 -0.119106670E+01  0.221884962E+01
   H  0.241972085E+02 -0.162322792E+01 -0.193529560E+01
     4
 # iter = 53500  time[fs]=53.50000
   C -0.529619435E+01  0.162978842E+00  0.392512695E-01
   C  0.504113001E+01  0.696130764E-01  0.120217173E+00
   H -0.254564220E+02 -0.120837065E+01  0.225143537E+01
   H  0.245452391E+02 -0.164642857E+01 -0.196294663E+01
     4
 # iter = 54000  time[fs]=54.00000
   C -0.538209699E+01  0.165406276E+00  0.394680998E-01
   C  0.512292540E+01  0.707276356E-01  0.122478536E+00
   H -0.258201347E+02 -0.122568169E+01  0.228403398E+01
   H  0.248934108E+02 -0.166963947E+01 -0.199061089E+01
     4
 # iter = 54500  time[fs]=54.50000
   C -0.546811315E+01  0.167835415E+00  0.396834723E-01
   C  0.520483372E+01  0.718418978E-01  0.124741386E+00
   H -0.261839776E+02 -0.124299963E+01  0.231664513E+01
   H  0.252417197E+02 -0.169286037E+01 -0.201828801E+01
     4
 # iter = 55000  time[fs]=55.00000
   C -0.555423926E+01  0.170266205E+00  0.398974217E-01
   C  0.528685143E+01  0.729558781E-01  0.127005686E+00
   H -0.265479472E+02 -0.126032428E+01  0.234926847E+01
   H  0.255901621E+02 -0.171609099E+01 -0.204597766E+01
     4
 # iter = 55500  time[fs]=55.50000
   C -0.564047191E+01  0.172698597E+00  0.401099811E-01
   C  0.536897514E+01  0.740695906E-01  0.129271404E+00
   H -0.269120401E+02 -0.127765548E+01  0.238190368E+01
   H  0.259387343E+02 -0.173933108E+01 -0.207367950E+01
     4
 # iter = 56000  time[fs]=56.00000
   C -0.572680786E+01  0.175132543E+00  0.403211829E-01
   C  0.545120159E+01  0.751830488E-01  0.131538505E+00
   H -0.272762530E+02 -0.129499304E+01  0.241455046E+01
   H  0.262874331E+02 -0.176258039E+01 -0.210139324E+01
     4
 # iter = 56500  time[fs]=56.50000
   C -0.581324399E+01  0.177567997E+00  0.405310584E-01
   C  0.553352770E+01  0.762962651E-01  0.133806959E+00
   H -0.276405828E+02 -0.131233681E+01  0.244720852E+01
   H  0.266362550E+02 -0.178583869E+01 -0.212911855E+01
     4
 # iter = 57000  time[fs]=57.00000
   C -0.589977732E+01  0.180004916E+00  0.407396378E-01
   C  0.561595051E+01  0.774092515E-01  0.136076734E+00
   H -0.280050265E+02 -0.132968663E+01  0.247987756E+01
   H  0.269851970E+02 -0.180910575E+01 -0.215685516E+01
     4
 # iter = 57500  time[fs]=57.50000
   C -0.598640502E+01  0.182443256E+00  0.409469504E-01
   C  0.569846717E+01  0.785220192E-01  0.138347801E+00
   H -0.283695811E+02 -0.134704235E+01  0.251255731E+01
   H  0.273342560E+02 -0.183238136E+01 -0.218460277E+01
     4
 # iter = 58000  time[fs]=58.00000
   C -0.607312434E+01  0.184882980E+00  0.411530246E-01
   C  0.578107496E+01  0.796345786E-01  0.140620130E+00
   H -0.287342439E+02 -0.136440382E+01  0.254524751E+01
   H  0.276834292E+02 -0.185566530E+01 -0.221236113E+01
     4
 # iter = 58500  time[fs]=58.50000
   C -0.615993268E+01  0.187324046E+00  0.413578881E-01
   C  0.586377129E+01  0.807469398E-01  0.142893693E+00
   H -0.290990121E+02 -0.138177091E+01  0.257794791E+01
   H  0.280327135E+02 -0.187895738E+01 -0.224012996E+01
     4
 # iter = 59000  time[fs]=59.00000
   C -0.624682753E+01  0.189766420E+00  0.415615674E-01
   C  0.594655365E+01  0.818591122E-01  0.145168463E+00
   H -0.294638833E+02 -0.139914348E+01  0.261065827E+01
   H  0.283821065E+02 -0.190225738E+01 -0.226790902E+01
     4
 # iter = 59500  time[fs]=59.50000
   C -0.633380648E+01  0.192210065E+00  0.417640885E-01
   C  0.602941966E+01  0.829711047E-01  0.147444415E+00
   H -0.298288549E+02 -0.141652140E+01  0.264337833E+01
   H  0.287316053E+02 -0.192556514E+01 -0.229569807E+01
     4
 # iter = 60000  time[fs]=60.00000
   C -0.642086722E+01  0.194654947E+00  0.419654764E-01
   C  0.611236700E+01  0.840829257E-01  0.149721521E+00
   H -0.301939244E+02 -0.143390454E+01  0.267610789E+01
   H  0.290812076E+02 -0.194888046E+01 -0.232349687E+01
     4
 # iter = 60500  time[fs]=60.50000
   C -0.650800754E+01  0.197101034E+00  0.421657555E-01
   C  0.619539349E+01  0.851945833E-01  0.151999758E+00
   H -0.305590896E+02 -0.145129279E+01  0.270884671E+01
   H  0.294309108E+02 -0.197220317E+01 -0.235130520E+01
     4
 # iter = 61000  time[fs]=61.00000
   C -0.659522531E+01  0.199548294E+00  0.423649494E-01
   C  0.627849698E+01  0.863060850E-01  0.154279101E+00
   H -0.309243483E+02 -0.146868602E+01  0.274159459E+01
   H  0.297807127E+02 -0.199553311E+01 -0.237912283E+01
     4
 # iter = 61500  time[fs]=61.50000
   C -0.668251848E+01  0.201996697E+00  0.425630810E-01
   C  0.636167546E+01  0.874174380E-01  0.156559527E+00
   H -0.312896982E+02 -0.148608413E+01  0.277435132E+01
   H  0.301306109E+02 -0.201887010E+01 -0.240694957E+01
     4
 # iter = 62000  time[fs]=62.00000
   C -0.676988508E+01  0.204446214E+00  0.427601724E-01
   C  0.644492694E+01  0.885286491E-01  0.158841014E+00
   H -0.316551373E+02 -0.150348700E+01  0.280711670E+01
   H  0.304806033E+02 -0.204221399E+01 -0.243478520E+01
     4
 # iter = 62500  time[fs]=62.50000
   C -0.685732321E+01  0.206896817E+00  0.429562453E-01
   C  0.652824956E+01  0.896397247E-01  0.161123539E+00
   H -0.320206636E+02 -0.152089453E+01  0.283989054E+01
   H  0.308306877E+02 -0.206556463E+01 -0.246262952E+01
     4
 # iter = 63000  time[fs]=63.00000
   C -0.694483105E+01  0.209348478E+00  0.431513205E-01
   C  0.661164148E+01  0.907506709E-01  0.163407081E+00
   H -0.323862750E+02 -0.153830661E+01  0.287267266E+01
   H  0.311808621E+02 -0.208892186E+01 -0.249048236E+01
     4
 # iter = 63500  time[fs]=63.50000
   C -0.703240684E+01  0.211801173E+00  0.433454184E-01
   C  0.669510097E+01  0.918614936E-01  0.165691619E+00
   H -0.327519698E+02 -0.155572316E+01  0.290546287E+01
   H  0.315311246E+02 -0.211228555E+01 -0.251834352E+01
     4
 # iter = 64000  time[fs]=64.00000
   C -0.712004890E+01  0.214254876E+00  0.435385588E-01
   C  0.677862634E+01  0.929721983E-01  0.167977134E+00
   H -0.331177461E+02 -0.157314406E+01  0.293826101E+01
   H  0.318814731E+02 -0.213565556E+01 -0.254621283E+01
     4
 # iter = 64500  time[fs]=64.50000
   C -0.720775559E+01  0.216709562E+00  0.437307607E-01
   C  0.686221596E+01  0.940827903E-01  0.170263605E+00
   H -0.334836021E+02 -0.159056924E+01  0.297106690E+01
   H  0.322319058E+02 -0.215903175E+01 -0.257409011E+01
     4
 # iter = 65000  time[fs]=65.00000
   C -0.729552533E+01  0.219165210E+00  0.439220429E-01
   C  0.694586827E+01  0.951932745E-01  0.172551014E+00
   H -0.338495361E+02 -0.160799859E+01  0.300388038E+01
   H  0.325824210E+02 -0.218241400E+01 -0.260197519E+01
     4
 # iter = 65500  time[fs]=65.50000
   C -0.738335661E+01  0.221621795E+00  0.441124234E-01
   C  0.702958175E+01  0.963036558E-01  0.174839342E+00
   H -0.342155465E+02 -0.162543204E+01  0.303670129E+01
   H  0.329330169E+02 -0.220580217E+01 -0.262986792E+01
     4
 # iter = 66000  time[fs]=66.00000
   C -0.747124796E+01  0.224079296E+00  0.443019198E-01
   C  0.711335496E+01  0.974139385E-01  0.177128572E+00
   H -0.345816317E+02 -0.164286950E+01  0.306952949E+01
   H  0.332836918E+02 -0.222919615E+01 -0.265776814E+01
     4
 # iter = 66500  time[fs]=66.50000
   C -0.755919797E+01  0.226537693E+00  0.444905492E-01
   C  0.719718647E+01  0.985241271E-01  0.179418685E+00
   H -0.349477901E+02 -0.166031089E+01  0.310236481E+01
   H  0.336344441E+02 -0.225259581E+01 -0.268567569E+01
     4
 # iter = 67000  time[fs]=67.00000
   C -0.764720528E+01  0.228996965E+00  0.446783283E-01
   C  0.728107494E+01  0.996342257E-01  0.181709666E+00
   H -0.353140201E+02 -0.167775612E+01  0.313520713E+01
   H  0.339852722E+02 -0.227600105E+01 -0.271359043E+01
     4
 # iter = 67500  time[fs]=67.50000
   C -0.773526856E+01  0.231457092E+00  0.448652732E-01
   C  0.736501905E+01  0.100744238E+00  0.184001497E+00
   H -0.356803205E+02 -0.169520513E+01  0.316805630E+01
   H  0.343361745E+02 -0.229941175E+01 -0.274151222E+01
     4
 # iter = 68000  time[fs]=68.00000
   C -0.782338654E+01  0.233918057E+00  0.450513996E-01
   C  0.744901753E+01  0.101854168E+00  0.186294162E+00
   H -0.360466896E+02 -0.171265783E+01  0.320091217E+01
   H  0.346871496E+02 -0.232282781E+01 -0.276944091E+01
     4
 # iter = 68500  time[fs]=68.50000
   C -0.791155798E+01  0.236379839E+00  0.452367229E-01
   C  0.753306915E+01  0.102964019E+00  0.188587646E+00
   H -0.364131262E+02 -0.173011416E+01  0.323377464E+01
   H  0.350381961E+02 -0.234624911E+01 -0.279737637E+01
     4
 # iter = 69000  time[fs]=69.00000
   C -0.799978170E+01  0.238842422E+00  0.454212579E-01
   C  0.761717273E+01  0.104073795E+00  0.190881934E+00
   H -0.367796289E+02 -0.174757404E+01  0.326664355E+01
   H  0.353893124E+02 -0.236967556E+01 -0.282531847E+01
     4
 # iter = 69500  time[fs]=69.50000
   C -0.808805654E+01  0.241305789E+00  0.456050192E-01
   C  0.770132712E+01  0.105183499E+00  0.193177010E+00
   H -0.371461965E+02 -0.176503741E+01  0.329951880E+01
   H  0.357404973E+02 -0.239310705E+01 -0.285326709E+01
     4
 # iter = 70000  time[fs]=70.00000
   C -0.817638138E+01  0.243769922E+00  0.457880208E-01
   C  0.778553120E+01  0.106293133E+00  0.195472861E+00
   H -0.375128276E+02 -0.178250419E+01  0.333240026E+01
   H  0.360917495E+02 -0.241654350E+01 -0.288122209E+01
     4
 # iter = 70500  time[fs]=70.50000
   C -0.826475514E+01  0.246234806E+00  0.459702766E-01
   C  0.786978391E+01  0.107402701E+00  0.197769473E+00
   H -0.378795211E+02 -0.179997434E+01  0.336528782E+01
   H  0.364430676E+02 -0.243998481E+01 -0.290918336E+01
     4
 # iter = 71000  time[fs]=71.00000
   C -0.835317678E+01  0.248700425E+00  0.461517998E-01
   C  0.795408419E+01  0.108512206E+00  0.200066831E+00
   H -0.382462757E+02 -0.181744778E+01  0.339818135E+01
   H  0.367944505E+02 -0.246343089E+01 -0.293715079E+01
     4
 # iter = 71500  time[fs]=71.50000
   C -0.844164528E+01  0.251166764E+00  0.463326035E-01
   C  0.803843105E+01  0.109621650E+00  0.202364923E+00
   H -0.386130904E+02 -0.183492445E+01  0.343108076E+01
   H  0.371458968E+02 -0.248688165E+01 -0.296512425E+01
     4
 # iter = 72000  time[fs]=72.00000
   C -0.853015965E+01  0.253633809E+00  0.465127005E-01
   C  0.812282349E+01  0.110731037E+00  0.204663735E+00
   H -0.389799639E+02 -0.185240429E+01  0.346398592E+01
   H  0.374974054E+02 -0.251033700E+01 -0.299310364E+01
     4
 # iter = 72500  time[fs]=72.50000
   C -0.861871895E+01  0.256101545E+00  0.466921031E-01
   C  0.820726058E+01  0.111840367E+00  0.206963256E+00
   H -0.393468953E+02 -0.186988725E+01  0.349689675E+01
   H  0.378489752E+02 -0.253379686E+01 -0.302108886E+01
     4
 # iter = 73000  time[fs]=73.00000
   C -0.870732224E+01  0.258569958E+00  0.468708234E-01
   C  0.829174140E+01  0.112949645E+00  0.209263472E+00
   H -0.397138834E+02 -0.188737327E+01  0.352981313E+01
   H  0.382006050E+02 -0.255726116E+01 -0.304907979E+01
     4
 # iter = 73500  time[fs]=73.50000
   C -0.879596864E+01  0.261039035E+00  0.470488732E-01
   C  0.837626505E+01  0.114058871E+00  0.211564372E+00
   H -0.400809272E+02 -0.190486229E+01  0.356273497E+01
   H  0.385522938E+02 -0.258072980E+01 -0.307707633E+01
     4
 # iter = 74000  time[fs]=74.00000
   C -0.888465727E+01  0.263508762E+00  0.472262638E-01
   C  0.846083066E+01  0.115168049E+00  0.213865943E+00
   H -0.404480257E+02 -0.192235426E+01  0.359566217E+01
   H  0.389040405E+02 -0.260420272E+01 -0.310507839E+01
     4
 # iter = 74500  time[fs]=74.50000
   C -0.897338729E+01  0.265979129E+00  0.474030065E-01
   C  0.854543740E+01  0.116277180E+00  0.216168176E+00
   H -0.408151780E+02 -0.193984914E+01  0.362859463E+01
   H  0.392558441E+02 -0.262767983E+01 -0.313308587E+01
     4
 # iter = 75000  time[fs]=75.00000
   C -0.906215788E+01  0.268450121E+00  0.475791123E-01
   C  0.863008445E+01  0.117386266E+00  0.218471058E+00
   H -0.411823830E+02 -0.195734686E+01  0.366153227E+01
   H  0.396077035E+02 -0.265116108E+01 -0.316109867E+01
     4
 # iter = 75500  time[fs]=75.50000
   C -0.915096824E+01  0.270921728E+00  0.477545916E-01
   C  0.871477103E+01  0.118495310E+00  0.220774578E+00
   H -0.415496399E+02 -0.197484739E+01  0.369447500E+01
   H  0.399596178E+02 -0.267464638E+01 -0.318911671E+01
     4
 # iter = 76000  time[fs]=76.00000
   C -0.923981761E+01  0.273393937E+00  0.479294550E-01
   C  0.879949635E+01  0.119604312E+00  0.223078727E+00
   H -0.419169478E+02 -0.199235067E+01  0.372742273E+01
   H  0.403115861E+02 -0.269813566E+01 -0.321713990E+01
     4
 # iter = 76500  time[fs]=76.50000
   C -0.932870522E+01  0.275866737E+00  0.481037126E-01
   C  0.888425968E+01  0.120713275E+00  0.225383493E+00
   H -0.422843057E+02 -0.200985665E+01  0.376037537E+01
   H  0.406636074E+02 -0.272162886E+01 -0.324516814E+01
     4
 # iter = 77000  time[fs]=77.00000
   C -0.941763035E+01  0.278340118E+00  0.482773743E-01
   C  0.896906029E+01  0.121822201E+00  0.227688867E+00
   H -0.426517129E+02 -0.202736530E+01  0.379333285E+01
   H  0.410156808E+02 -0.274512592E+01 -0.327320135E+01
     4
 # iter = 77500  time[fs]=77.50000
   C -0.950659229E+01  0.280814069E+00  0.484504496E-01
   C  0.905389746E+01  0.122931090E+00  0.229994839E+00
   H -0.430191684E+02 -0.204487657E+01  0.382629507E+01
   H  0.413678055E+02 -0.276862676E+01 -0.330123945E+01
     4
 # iter = 78000  time[fs]=78.00000
   C -0.959559035E+01  0.283288579E+00  0.486229481E-01
   C  0.913877053E+01  0.124039945E+00  0.232301398E+00
   H -0.433866715E+02 -0.206239040E+01  0.385926197E+01
   H  0.417199805E+02 -0.279213133E+01 -0.332928236E+01
     4
 # iter = 78500  time[fs]=78.50000
   C -0.968462386E+01  0.285763638E+00  0.487948790E-01
   C  0.922367881E+01  0.125148768E+00  0.234608537E+00
   H -0.437542214E+02 -0.207990677E+01  0.389223347E+01
   H  0.420722051E+02 -0.281563956E+01 -0.335733001E+01
     4
 # iter = 79000  time[fs]=79.00000
   C -0.977369217E+01  0.288239237E+00  0.489662512E-01
   C  0.930862167E+01  0.126257558E+00  0.236916245E+00
   H -0.441218173E+02 -0.209742563E+01  0.392520949E+01
   H  0.424244784E+02 -0.283915140E+01 -0.338538231E+01
     4
 # iter = 79500  time[fs]=79.50000
   C -0.986279464E+01  0.290715365E+00  0.491370735E-01
   C  0.939359846E+01  0.127366319E+00  0.239224514E+00
   H -0.444894585E+02 -0.211494694E+01  0.395818996E+01
   H  0.427767996E+02 -0.286266679E+01 -0.341343918E+01
     4
 # iter = 80000  time[fs]=80.00000
   C -0.995193065E+01  0.293192015E+00  0.493073545E-01
   C  0.947860857E+01  0.128475050E+00  0.241533335E+00
   H -0.448571442E+02 -0.213247066E+01  0.399117481E+01
   H  0.431291680E+02 -0.288618567E+01 -0.344150057E+01
