     4
 # iter = 25000  time[fs]=25.00000
   C -0.960348219E+00 -0.369182727E-01  0.570570667E-02
   C  0.103751489E+01  0.276804238E-01  0.136867009E-01
   H -0.526559164E+01 -0.166256196E-01  0.578222286E+00
   H  0.528757081E+01 -0.498131414E+00 -0.833766588E+00
     4
 # iter = 25500  time[fs]=25.50000
   C -0.100607773E+01 -0.390728792E-01  0.211557089E-02
   C  0.108113784E+01  0.282779287E-01  0.159459076E-01
   H -0.560520729E+01 -0.242012843E-01  0.604739592E+00
   H  0.559627694E+01 -0.539107082E+00 -0.894639058E+00
     4
 # iter = 26000  time[fs]=26.00000
   C -0.105603337E+01 -0.422759973E-01 -0.245016211E-02
   C  0.112703209E+01  0.279881953E-01  0.172355781E-01
   H -0.595286378E+01 -0.371677979E-01  0.626168045E+00
   H  0.590218769E+01 -0.585757121E+00 -0.961375294E+00
     4
 # iter = 26500  time[fs]=26.50000
   C -0.110712303E+01 -0.437045982E-01 -0.518181098E-02
   C  0.117793201E+01  0.298148542E-01  0.205739833E-01
   H -0.629217473E+01 -0.394422522E-01  0.658555014E+00
   H  0.622112420E+01 -0.621958959E+00 -0.101783269E+01
     4
 # iter = 27000  time[fs]=27.00000
   C -0.115894732E+01 -0.432112164E-01 -0.594318503E-02
   C  0.123372582E+01  0.338968541E-01  0.261123032E-01
   H -0.662209689E+01 -0.302299284E-01  0.702666344E+00
   H  0.655364373E+01 -0.646892601E+00 -0.106317387E+01
     4
 # iter = 27500  time[fs]=27.50000
   C -0.121335923E+01 -0.428819249E-01 -0.682979642E-02
   C  0.129193031E+01  0.379819705E-01  0.316084576E-01
   H -0.695439280E+01 -0.214985990E-01  0.746510590E+00
   H  0.688756125E+01 -0.672512466E+00 -0.110933804E+01
     4
 # iter = 28000  time[fs]=28.00000
   C -0.127162032E+01 -0.441911946E-01 -0.932390630E-02
   C  0.135073901E+01  0.404748372E-01  0.354754742E-01
   H -0.729735339E+01 -0.217160586E-01  0.781599668E+00
   H  0.721422347E+01 -0.707273557E+00 -0.116476714E+01
     4
 # iter = 28500  time[fs]=28.50000
   C -0.133293308E+01 -0.465342736E-01 -0.128271280E-01
   C  0.141059385E+01  0.420091893E-01  0.383540253E-01
   H -0.764740024E+01 -0.274609054E-01  0.811337034E+00
   H  0.753690154E+01 -0.747736112E+00 -0.122601035E+01
     4
 # iter = 29000  time[fs]=29.00000
   C -0.139564937E+01 -0.484371486E-01 -0.158706439E-01
   C  0.147288769E+01  0.441514483E-01  0.418162497E-01
   H -0.799600086E+01 -0.303393371E-01  0.844100688E+00
   H  0.786386348E+01 -0.785486642E+00 -0.128464462E+01
     4
 # iter = 29500  time[fs]=29.50000
   C -0.145909973E+01 -0.493876193E-01 -0.179465111E-01
   C  0.153800119E+01  0.474388436E-01  0.464040711E-01
   H -0.834013638E+01 -0.274529276E-01  0.882775388E+00
   H  0.819789335E+01 -0.817612463E+00 -0.133774884E+01
     4
 # iter = 30000  time[fs]=30.00000
   C -0.152384869E+01 -0.500921188E-01 -0.197646540E-01
   C  0.160502609E+01  0.511041423E-01  0.513541045E-01
   H -0.868376780E+01 -0.228670299E-01  0.923283979E+00
   H  0.853481890E+01 -0.848170818E+00 -0.138937275E+01
     4
 # iter = 30500  time[fs]=30.50000
   C -0.159055744E+01 -0.513396402E-01 -0.221169173E-01
   C  0.167298083E+01  0.542927120E-01  0.558148764E-01
   H -0.903133773E+01 -0.211161896E-01  0.961081545E+00
   H  0.887000982E+01 -0.881689644E+00 -0.144403759E+01
     4
 # iter = 31000  time[fs]=31.00000
   C -0.165911843E+01 -0.531375167E-01 -0.250129525E-01
   C  0.174173499E+01  0.569883306E-01  0.597727631E-01
   H -0.938282705E+01 -0.222637041E-01  0.996095509E+00
   H  0.920332089E+01 -0.918223586E+00 -0.150179208E+01
     4
 # iter = 31500  time[fs]=31.50000
   C -0.172890761E+01 -0.549650416E-01 -0.279339349E-01
   C  0.181173611E+01  0.597413543E-01  0.637802601E-01
   H -0.973520396E+01 -0.233519106E-01  0.103127520E+01
   H  0.953763908E+01 -0.954805146E+00 -0.155966348E+01
     4
 # iter = 32000  time[fs]=32.00000
   C -0.179950811E+01 -0.564984428E-01 -0.305576243E-01
   C  0.188323167E+01  0.628918829E-01  0.681792277E-01
   H -0.100865684E+02 -0.225472435E-01  0.106844671E+01
   H  0.987473390E+01 -0.989592486E+00 -0.161580524E+01
     4
 # iter = 32500  time[fs]=32.50000
   C -0.187096904E+01 -0.578708602E-01 -0.330184082E-01
   C  0.195598938E+01  0.662911380E-01  0.728223357E-01
   H -0.104376380E+02 -0.206267478E-01  0.110682633E+01
   H  0.102137687E+02 -0.102335686E+01 -0.167098434E+01
     4
 # iter = 33000  time[fs]=33.00000
   C -0.194349227E+01 -0.593600451E-01 -0.355950527E-01
   C  0.202963071E+01  0.696359944E-01  0.774076510E-01
   H -0.107899615E+02 -0.191927088E-01  0.114480579E+01
   H  0.105530864E+02 -0.105769590E+01 -0.172679455E+01
     4
 # iter = 33500  time[fs]=33.50000
   C -0.201708895E+01 -0.610457757E-01 -0.383681577E-01
   C  0.210399696E+01  0.728359670E-01  0.818456710E-01
   H -0.111439592E+02 -0.187141335E-01  0.118191064E+01
   H  0.108921692E+02 -0.109307371E+01 -0.178369647E+01
     4
 # iter = 34000  time[fs]=34.00000
   C -0.209157530E+01 -0.628064153E-01 -0.412167499E-01
   C  0.217915216E+01  0.760168377E-01  0.862629888E-01
   H -0.114989032E+02 -0.185072550E-01  0.121881969E+01
   H  0.112316574E+02 -0.112880127E+01 -0.184099790E+01
     4
 # iter = 34500  time[fs]=34.50000
   C -0.216677615E+01 -0.645231769E-01 -0.440225763E-01
   C  0.225516343E+01  0.793017517E-01  0.907834175E-01
   H -0.118540847E+02 -0.179035432E-01  0.125619697E+01
   H  0.115721798E+02 -0.116420520E+01 -0.189802256E+01
     4
 # iter = 35000  time[fs]=35.00000
   C -0.224264044E+01 -0.661962642E-01 -0.467862693E-01
   C  0.233197585E+01  0.826867349E-01  0.954035333E-01
   H -0.122094776E+02 -0.169138524E-01  0.129402752E+01
   H  0.119136887E+02 -0.119929235E+01 -0.195477465E+01
     4
 # iter = 35500  time[fs]=35.50000
   C -0.231918680E+01 -0.678909628E-01 -0.495734562E-01
   C  0.240946969E+01  0.860984148E-01  0.100050416E+00
   H -0.125654303E+02 -0.159202810E-01  0.133192546E+01
   H  0.122557682E+02 -0.123444141E+01 -0.201163040E+01
     4
 # iter = 36000  time[fs]=36.00000
   C -0.239640760E+01 -0.696422268E-01 -0.524193614E-01
   C  0.248756209E+01  0.894962144E-01  0.104683860E+00
   H -0.129221198E+02 -0.151307328E-01  0.136967943E+01
   H  0.125981792E+02 -0.126985700E+01 -0.206879223E+01
     4
 # iter = 36500  time[fs]=36.50000
   C -0.247424675E+01 -0.714328519E-01 -0.553069915E-01
   C  0.256623000E+01  0.928957065E-01  0.109319743E+00
   H -0.132794266E+02 -0.144542019E-01  0.140737727E+01
   H  0.129409842E+02 -0.130544492E+01 -0.212616384E+01
     4
 # iter = 37000  time[fs]=37.00000
   C -0.255263952E+01 -0.732337162E-01 -0.582073874E-01
   C  0.264546662E+01  0.963254710E-01  0.113986893E+00
   H -0.136371646E+02 -0.137309308E-01  0.144517579E+01
   H  0.132843169E+02 -0.134104238E+01 -0.218358056E+01
     4
 # iter = 37500  time[fs]=37.50000
   C -0.263154528E+01 -0.750368422E-01 -0.611126938E-01
   C  0.272524568E+01  0.997916476E-01  0.118691650E+00
   H -0.139952701E+02 -0.129215053E-01  0.148311169E+01
   H  0.136281923E+02 -0.137660725E+01 -0.224099847E+01
     4
 # iter = 38000  time[fs]=38.00000
   C -0.271094356E+01 -0.768517437E-01 -0.640325143E-01
   C  0.280552499E+01  0.103281828E+00  0.123421770E+00
   H -0.143537807E+02 -0.120860229E-01  0.152112236E+01
   H  0.139725277E+02 -0.141219714E+01 -0.229847356E+01
     4
 # iter = 38500  time[fs]=38.50000
   C -0.279081487E+01 -0.786865450E-01 -0.669750354E-01
   C  0.288626641E+01  0.106785265E+00  0.128166636E+00
   H -0.147127272E+02 -0.112761844E-01  0.155915377E+01
   H  0.143172505E+02 -0.144786146E+01 -0.235605371E+01
     4
 # iter = 39000  time[fs]=39.00000
   C -0.287113260E+01 -0.805400505E-01 -0.699391019E-01
   C  0.296744408E+01  0.110301358E+00  0.132925749E+00
   H -0.150720883E+02 -0.104899973E-01  0.159720574E+01
   H  0.146623432E+02 -0.148359603E+01 -0.241373334E+01
     4
 # iter = 39500  time[fs]=39.50000
   C -0.295186798E+01 -0.824069886E-01 -0.729194636E-01
   C  0.304903860E+01  0.113834012E+00  0.137703095E+00
   H -0.154318201E+02 -0.970179567E-02  0.163530193E+01
   H  0.150078132E+02 -0.151937314E+01 -0.247148340E+01
     4
 # iter = 40000  time[fs]=40.00000
   C -0.303299644E+01 -0.842844958E-01 -0.759132639E-01
   C  0.313102989E+01  0.117384684E+00  0.142500191E+00
   H -0.157918935E+02 -0.889935038E-02  0.167345266E+01
   H  0.153536561E+02 -0.155517863E+01 -0.252928852E+01
     4
 # iter = 40500  time[fs]=40.50000
   C -0.311449819E+01 -0.861728826E-01 -0.789208077E-01
   C  0.321339615E+01  0.120951543E+00  0.147315253E+00
   H -0.161522986E+02 -0.808827819E-02  0.171165057E+01
   H  0.156998502E+02 -0.159101634E+01 -0.258715138E+01
     4
 # iter = 41000  time[fs]=41.00000
   C -0.319635543E+01 -0.880729983E-01 -0.819429286E-01
   C  0.329611661E+01  0.124532292E+00  0.152146014E+00
   H -0.165130288E+02 -0.727700120E-02  0.174988559E+01
   H  0.160463724E+02 -0.162689302E+01 -0.264507765E+01
     4
 # iter = 41500  time[fs]=41.50000
   C -0.327855057E+01 -0.899845806E-01 -0.849793406E-01
   C  0.337917305E+01  0.128125920E+00  0.156991484E+00
   H -0.168740724E+02 -0.646733503E-02  0.178815436E+01
   H  0.163932070E+02 -0.166280892E+01 -0.270306656E+01
     4
 # iter = 42000  time[fs]=42.00000
   C -0.336106651E+01 -0.919066228E-01 -0.880290065E-01
   C  0.346254937E+01  0.131732301E+00  0.161851549E+00
   H -0.172354135E+02 -0.565661025E-02  0.182645809E+01
   H  0.167403437E+02 -0.169875988E+01 -0.276111301E+01
     4
 # iter = 42500  time[fs]=42.50000
   C -0.344388738E+01 -0.938382691E-01 -0.910910352E-01
   C  0.354623049E+01  0.135351229E+00  0.166726006E+00
   H -0.175970382E+02 -0.484281287E-02  0.186479745E+01
   H  0.170877722E+02 -0.173474249E+01 -0.281921271E+01
     4
 # iter = 43000  time[fs]=43.00000
   C -0.352699875E+01 -0.957790830E-01 -0.941649505E-01
   C  0.363020195E+01  0.138982124E+00  0.171614272E+00
   H -0.179589351E+02 -0.402613366E-02  0.190317095E+01
   H  0.174354809E+02 -0.177075563E+01 -0.287736367E+01
     4
 # iter = 43500  time[fs]=43.50000
   C -0.361038729E+01 -0.977287947E-01 -0.972504396E-01
   C  0.371445009E+01  0.142624294E+00  0.176515647E+00
   H -0.183210943E+02 -0.320754217E-02  0.194157643E+01
   H  0.177834579E+02 -0.180679902E+01 -0.293556483E+01
     4
 # iter = 44000  time[fs]=44.00000
   C -0.369404043E+01 -0.996870702E-01 -0.100347123E+00
   C  0.379896223E+01  0.146277179E+00  0.181429558E+00
   H -0.186835063E+02 -0.238748019E-02  0.198001230E+01
   H  0.181316927E+02 -0.184287194E+01 -0.299381472E+01
     4
 # iter = 44500  time[fs]=44.50000
   C -0.377794634E+01 -0.101653504E+00 -0.103454549E+00
   C  0.388372662E+01  0.149940353E+00  0.186355562E+00
   H -0.190461613E+02 -0.156583053E-02  0.201847761E+01
   H  0.184801756E+02 -0.187897315E+01 -0.305211140E+01
     4
 # iter = 45000  time[fs]=45.00000
   C -0.386209389E+01 -0.103627703E+00 -0.106572276E+00
   C  0.396873222E+01  0.153613428E+00  0.191293251E+00
   H -0.194090501E+02 -0.742419817E-03  0.205697151E+01
   H  0.188288977E+02 -0.191510142E+01 -0.311045298E+01
     4
 # iter = 45500  time[fs]=45.50000
   C -0.394647270E+01 -0.105609332E+00 -0.109699918E+00
   C  0.405396867E+01  0.157296005E+00  0.196242207E+00
   H -0.197721642E+02  0.827402218E-04  0.209549303E+01
   H  0.191778505E+02 -0.195125578E+01 -0.316883783E+01
     4
 # iter = 46000  time[fs]=46.00000
   C -0.403107300E+01 -0.107598089E+00 -0.112837125E+00
   C  0.413942621E+01  0.160987693E+00  0.201202011E+00
   H -0.201354954E+02  0.909534873E-03  0.213404115E+01
   H  0.195270256E+02 -0.198743539E+01 -0.322726453E+01
     4
 # iter = 46500  time[fs]=46.50000
   C -0.411588562E+01 -0.109593691E+00 -0.115983564E+00
   C  0.422509565E+01  0.164688122E+00  0.206172272E+00
   H -0.204990364E+02  0.173787289E-02  0.217261490E+01
   H  0.198764152E+02 -0.202363944E+01 -0.328573169E+01
     4
 # iter = 47000  time[fs]=47.00000
   C -0.420090191E+01 -0.111595862E+00 -0.119138908E+00
   C  0.431096836E+01  0.168396954E+00  0.211152623E+00
   H -0.208627797E+02  0.256771237E-02  0.221121344E+01
   H  0.202260119E+02 -0.205986711E+01 -0.334423797E+01
     4
 # iter = 47500  time[fs]=47.50000
   C -0.428611373E+01 -0.113604339E+00 -0.122302846E+00
   C  0.439703621E+01  0.172113873E+00  0.216142720E+00
   H -0.212267185E+02  0.339902666E-02  0.224983596E+01
   H  0.205758087E+02 -0.209611764E+01 -0.340278206E+01
     4
 # iter = 48000  time[fs]=48.00000
   C -0.437151338E+01 -0.115618876E+00 -0.125475082E+00
   C  0.448329153E+01  0.175838577E+00  0.221142234E+00
   H -0.215908464E+02  0.423178049E-02  0.228848168E+01
   H  0.209257990E+02 -0.213239026E+01 -0.346136275E+01
     4
 # iter = 48500  time[fs]=48.50000
   C -0.445709361E+01 -0.117639241E+00 -0.128655337E+00
   C  0.456972706E+01  0.179570779E+00  0.226150850E+00
   H -0.219551570E+02  0.506593126E-02  0.232714985E+01
   H  0.212759765E+02 -0.216868430E+01 -0.351997886E+01
     4
 # iter = 49000  time[fs]=49.00000
   C -0.454284756E+01 -0.119665218E+00 -0.131843345E+00
   C  0.465633595E+01  0.183310207E+00  0.231168266E+00
   H -0.223196444E+02  0.590143755E-02  0.236583977E+01
   H  0.216263350E+02 -0.220499908E+01 -0.357862929E+01
     4
 # iter = 49500  time[fs]=49.50000
   C -0.462876873E+01 -0.121696597E+00 -0.135038852E+00
   C  0.474311173E+01  0.187056604E+00  0.236194197E+00
   H -0.226843031E+02  0.673826227E-02  0.240455075E+01
   H  0.219768689E+02 -0.224133397E+01 -0.363731299E+01
     4
 # iter = 50000  time[fs]=50.00000
   C -0.471485099E+01 -0.123733184E+00 -0.138241614E+00
   C  0.483004826E+01  0.190809727E+00  0.241228370E+00
   H -0.230491277E+02  0.757637107E-02  0.244328216E+01
   H  0.223275726E+02 -0.227768837E+01 -0.369602894E+01
     4
 # iter = 50500  time[fs]=50.50000
   C -0.480108850E+01 -0.125774792E+00 -0.141451402E+00
   C  0.491713972E+01  0.194569343E+00  0.246270524E+00
   H -0.234141130E+02  0.841573064E-02  0.248203338E+01
   H  0.226784410E+02 -0.231406170E+01 -0.375477619E+01
     4
 # iter = 51000  time[fs]=51.00000
   C -0.488747575E+01 -0.127821244E+00 -0.144667994E+00
   C  0.500438060E+01  0.198335233E+00  0.251320412E+00
   H -0.237792542E+02  0.925630846E-02  0.252080382E+01
   H  0.230294691E+02 -0.235045339E+01 -0.381355381E+01
     4
 # iter = 51500  time[fs]=51.50000
   C -0.497400748E+01 -0.129872372E+00 -0.147891178E+00
   C  0.509176566E+01  0.202107188E+00  0.256377796E+00
   H -0.241445465E+02  0.100980731E-01  0.255959293E+01
   H  0.233806520E+02 -0.238686293E+01 -0.387236092E+01
     4
 # iter = 52000  time[fs]=52.00000
   C -0.506067872E+01 -0.131928018E+00 -0.151120754E+00
   C  0.517928993E+01  0.205885008E+00  0.261442447E+00
   H -0.245099856E+02  0.109409946E-01  0.259840015E+01
   H  0.237319852E+02 -0.242328981E+01 -0.393119668E+01
     4
 # iter = 52500  time[fs]=52.50000
   C -0.514748474E+01 -0.133988030E+00 -0.154356529E+00
   C  0.526694867E+01  0.209668503E+00  0.266514150E+00
   H -0.248755671E+02  0.117850438E-01  0.263722499E+01
   H  0.240834643E+02 -0.245973353E+01 -0.399006028E+01
     4
 # iter = 53000  time[fs]=53.00000
   C -0.523442102E+01 -0.136052263E+00 -0.157598317E+00
   C  0.535473740E+01  0.213457494E+00  0.271592696E+00
   H -0.252412870E+02  0.126301931E-01  0.267606694E+01
   H  0.244350853E+02 -0.249619363E+01 -0.404895094E+01
     4
 # iter = 53500  time[fs]=53.50000
   C -0.532148327E+01 -0.138120579E+00 -0.160845943E+00
   C  0.544265183E+01  0.217251807E+00  0.276677886E+00
   H -0.256071413E+02  0.134764155E-01  0.271492554E+01
   H  0.247868440E+02 -0.253266967E+01 -0.410786793E+01
     4
 # iter = 54000  time[fs]=54.00000
   C -0.540866741E+01 -0.140192849E+00 -0.164099237E+00
   C  0.553068787E+01  0.221051279E+00  0.281769529E+00
   H -0.259731264E+02  0.143236852E-01  0.275380032E+01
   H  0.251387366E+02 -0.256916122E+01 -0.416681053E+01
     4
 # iter = 54500  time[fs]=54.50000
   C -0.549596953E+01 -0.142268947E+00 -0.167358036E+00
   C  0.561884164E+01  0.224855751E+00  0.286867442E+00
   H -0.263392385E+02  0.151719772E-01  0.279269086E+01
   H  0.254907595E+02 -0.260566787E+01 -0.422577805E+01
     4
 # iter = 55000  time[fs]=55.00000
   C -0.558338592E+01 -0.144348753E+00 -0.170622185E+00
   C  0.570710941E+01  0.228665073E+00  0.291971449E+00
   H -0.267054744E+02  0.160212674E-01  0.283159674E+01
   H  0.258429092E+02 -0.264218921E+01 -0.428476985E+01
     4
 # iter = 55500  time[fs]=55.50000
   C -0.567091303E+01 -0.146432154E+00 -0.173891536E+00
   C  0.579548766E+01  0.232479103E+00  0.297081383E+00
   H -0.270718305E+02  0.168715326E-01  0.287051756E+01
   H  0.261951821E+02 -0.267872488E+01 -0.434378529E+01
     4
 # iter = 56000  time[fs]=56.00000
   C -0.575854747E+01 -0.148519041E+00 -0.177165943E+00
   C  0.588397298E+01  0.236297702E+00  0.302197081E+00
   H -0.274383038E+02  0.177227502E-01  0.290945292E+01
   H  0.265475752E+02 -0.271527450E+01 -0.440282376E+01
     4
 # iter = 56500  time[fs]=56.50000
   C -0.584628598E+01 -0.150609310E+00 -0.180445270E+00
   C  0.597256215E+01  0.240120738E+00  0.307318388E+00
   H -0.278048912E+02  0.185748988E-01  0.294840247E+01
   H  0.269000852E+02 -0.275183773E+01 -0.446188469E+01
     4
 # iter = 57000  time[fs]=57.00000
   C -0.593412548E+01 -0.152702861E+00 -0.183729385E+00
   C  0.606125206E+01  0.243948087E+00  0.312445154E+00
   H -0.281715898E+02  0.194279572E-01  0.298736584E+01
   H  0.272527092E+02 -0.278841422E+01 -0.452096750E+01
     4
 # iter = 57500  time[fs]=57.50000
   C -0.602206298E+01 -0.154799599E+00 -0.187018160E+00
   C  0.615003976E+01  0.247779626E+00  0.317577237E+00
   H -0.285383967E+02  0.202819053E-01  0.302634269E+01
   H  0.276054442E+02 -0.282500364E+01 -0.458007166E+01
     4
 # iter = 58000  time[fs]=58.00000
   C -0.611009565E+01 -0.156899432E+00 -0.190311474E+00
   C  0.623892240E+01  0.251615240E+00  0.322714498E+00
   H -0.289053092E+02  0.211367234E-01  0.306533268E+01
   H  0.279582875E+02 -0.286160569E+01 -0.463919664E+01
     4
 # iter = 58500  time[fs]=58.50000
   C -0.619822077E+01 -0.159002272E+00 -0.193609207E+00
   C  0.632789727E+01  0.255454818E+00  0.327856803E+00
   H -0.292723246E+02  0.219923927E-01  0.310433551E+01
   H  0.283112364E+02 -0.289822007E+01 -0.469834196E+01
     4
 # iter = 59000  time[fs]=59.00000
   C -0.628643571E+01 -0.161108037E+00 -0.196911249E+00
   C  0.641696176E+01  0.259298252E+00  0.333004026E+00
   H -0.296394406E+02  0.228488946E-01  0.314335086E+01
   H  0.286642882E+02 -0.293484647E+01 -0.475750711E+01
     4
 # iter = 59500  time[fs]=59.50000
   C -0.637473798E+01 -0.163216645E+00 -0.200217488E+00
   C  0.650611337E+01  0.263145441E+00  0.338156043E+00
   H -0.300066546E+02  0.237062116E-01  0.318237843E+01
   H  0.290174406E+02 -0.297148462E+01 -0.481669163E+01
     4
 # iter = 60000  time[fs]=60.00000
   C -0.646312517E+01 -0.165328018E+00 -0.203527820E+00
   C  0.659534969E+01  0.266996285E+00  0.343312734E+00
   H -0.303739642E+02  0.245643264E-01  0.322141795E+01
   H  0.293706911E+02 -0.300813424E+01 -0.487589507E+01
     4
 # iter = 60500  time[fs]=60.50000
   C -0.655159497E+01 -0.167442083E+00 -0.206842145E+00
   C  0.668466843E+01  0.270850690E+00  0.348473986E+00
   H -0.307413673E+02  0.254232224E-01  0.326046913E+01
   H  0.297240374E+02 -0.304479508E+01 -0.493511701E+01
     4
 # iter = 61000  time[fs]=61.00000
   C -0.664014517E+01 -0.169558768E+00 -0.210160364E+00
   C  0.677406737E+01  0.274708564E+00  0.353639688E+00
   H -0.311088616E+02  0.262828833E-01  0.329953170E+01
   H  0.300774772E+02 -0.308146687E+01 -0.499435700E+01
     4
 # iter = 61500  time[fs]=61.50000
   C -0.672877362E+01 -0.171678004E+00 -0.213482383E+00
   C  0.686354438E+01  0.278569820E+00  0.358809734E+00
   H -0.314764450E+02  0.271432937E-01  0.333860542E+01
   H  0.304310084E+02 -0.311814938E+01 -0.505361466E+01
     4
 # iter = 62000  time[fs]=62.00000
   C -0.681747829E+01 -0.173799726E+00 -0.216808111E+00
   C  0.695309741E+01  0.282434373E+00  0.363984020E+00
   H -0.318441155E+02  0.280044382E-01  0.337769002E+01
   H  0.307846289E+02 -0.315484236E+01 -0.511288959E+01
     4
 # iter = 62500  time[fs]=62.50000
   C -0.690625719E+01 -0.175923869E+00 -0.220137461E+00
   C  0.704272451E+01  0.286302141E+00  0.369162448E+00
   H -0.322118711E+02  0.288663021E-01  0.341678528E+01
   H  0.311383367E+02 -0.319154559E+01 -0.517218140E+01
     4
 # iter = 63000  time[fs]=63.00000
   C -0.699510844E+01 -0.178050372E+00 -0.223470347E+00
   C  0.713242376E+01  0.290173046E+00  0.374344921E+00
   H -0.325797099E+02  0.297288713E-01  0.345589095E+01
   H  0.314921299E+02 -0.322825885E+01 -0.523148973E+01
     4
 # iter = 63500  time[fs]=63.50000
   C -0.708403020E+01 -0.180179177E+00 -0.226806689E+00
   C  0.722219336E+01  0.294047013E+00  0.379531347E+00
   H -0.329476301E+02  0.305921318E-01  0.349500681E+01
   H  0.318460065E+02 -0.326498191E+01 -0.529081423E+01
     4
 # iter = 64000  time[fs]=64.00000
   C -0.717302071E+01 -0.182310227E+00 -0.230146407E+00
   C  0.731203153E+01  0.297923968E+00  0.384721636E+00
   H -0.333156299E+02  0.314560701E-01  0.353413265E+01
   H  0.321999647E+02 -0.330171457E+01 -0.535015454E+01
     4
 # iter = 64500  time[fs]=64.50000
   C -0.726207827E+01 -0.184443466E+00 -0.233489424E+00
   C  0.740193659E+01  0.301803841E+00  0.389915702E+00
   H -0.336837076E+02  0.323206733E-01  0.357326825E+01
   H  0.325540028E+02 -0.333845664E+01 -0.540951034E+01
     4
 # iter = 65000  time[fs]=65.00000
   C -0.735120124E+01 -0.186578842E+00 -0.236835667E+00
   C  0.749190691E+01  0.305686563E+00  0.395113460E+00
   H -0.340518615E+02  0.331859285E-01  0.361241341E+01
   H  0.329081190E+02 -0.337520791E+01 -0.546888131E+01
     4
 # iter = 65500  time[fs]=65.50000
   C -0.744038806E+01 -0.188716304E+00 -0.240185064E+00
   C  0.758194090E+01  0.309572069E+00  0.400314830E+00
   H -0.344200899E+02  0.340518235E-01  0.365156793E+01
   H  0.332623118E+02 -0.341196820E+01 -0.552826713E+01
     4
 # iter = 66000  time[fs]=66.00000
   C -0.752963718E+01 -0.190855803E+00 -0.243537546E+00
   C  0.767203705E+01  0.313460296E+00  0.405519734E+00
   H -0.347883914E+02  0.349183463E-01  0.369073161E+01
   H  0.336165794E+02 -0.344873731E+01 -0.558766749E+01
     4
 # iter = 66500  time[fs]=66.50000
   C -0.761894715E+01 -0.192997291E+00 -0.246893046E+00
   C  0.776219389E+01  0.317351182E+00  0.410728094E+00
   H -0.351567644E+02  0.357854852E-01  0.372990428E+01
   H  0.339709204E+02 -0.348551509E+01 -0.564708211E+01
     4
 # iter = 67000  time[fs]=67.00000
   C -0.770831655E+01 -0.195140723E+00 -0.250251499E+00
   C  0.785241000E+01  0.321244667E+00  0.415939838E+00
   H -0.355252074E+02  0.366532289E-01  0.376908575E+01
   H  0.343253333E+02 -0.352230134E+01 -0.570651069E+01
     4
 # iter = 67500  time[fs]=67.50000
   C -0.779774399E+01 -0.197286053E+00 -0.253612842E+00
   C  0.794268402E+01  0.325140695E+00  0.421154895E+00
   H -0.358937190E+02  0.375215663E-01  0.380827584E+01
   H  0.346798165E+02 -0.355909591E+01 -0.576595297E+01
     4
 # iter = 68000  time[fs]=68.00000
   C -0.788722817E+01 -0.199433240E+00 -0.256977015E+00
   C  0.803301462E+01  0.329039210E+00  0.426373194E+00
   H -0.362622979E+02  0.383904868E-01  0.384747439E+01
   H  0.350343687E+02 -0.359589863E+01 -0.582540866E+01
     4
 # iter = 68500  time[fs]=68.50000
   C -0.797676778E+01 -0.201582241E+00 -0.260343958E+00
   C  0.812340052E+01  0.332940158E+00  0.431594670E+00
   H -0.366309427E+02  0.392599799E-01  0.388668124E+01
   H  0.353889885E+02 -0.363270934E+01 -0.588487752E+01
     4
 # iter = 69000  time[fs]=69.00000
   C -0.806636160E+01 -0.203733016E+00 -0.263713614E+00
   C  0.821384048E+01  0.336843486E+00  0.436819257E+00
   H -0.369996520E+02  0.401300353E-01  0.392589621E+01
   H  0.357436746E+02 -0.366952790E+01 -0.594435929E+01
     4
 # iter = 69500  time[fs]=69.50000
   C -0.815600842E+01 -0.205885527E+00 -0.267085927E+00
   C  0.830433331E+01  0.340749146E+00  0.442046892E+00
   H -0.373684247E+02  0.410006433E-01  0.396511916E+01
   H  0.360984256E+02 -0.370635415E+01 -0.600385372E+01
     4
 # iter = 70000  time[fs]=70.00000
   C -0.824570709E+01 -0.208039736E+00 -0.270460845E+00
   C  0.839487785E+01  0.344657087E+00  0.447277514E+00
   H -0.377372595E+02  0.418717942E-01  0.400434993E+01
   H  0.364532404E+02 -0.374318794E+01 -0.606336057E+01
     4
 # iter = 70500  time[fs]=70.50000
   C -0.833545647E+01 -0.210195607E+00 -0.273838314E+00
   C  0.848547298E+01  0.348567262E+00  0.452511064E+00
   H -0.381061552E+02  0.427434786E-01  0.404358838E+01
   H  0.368081176E+02 -0.378002914E+01 -0.612287961E+01
     4
 # iter = 71000  time[fs]=71.00000
   C -0.842525549E+01 -0.212353104E+00 -0.277218283E+00
   C  0.857611761E+01  0.352479626E+00  0.457747484E+00
   H -0.384751107E+02  0.436156874E-01  0.408283436E+01
   H  0.371630561E+02 -0.381687761E+01 -0.618241062E+01
     4
 # iter = 71500  time[fs]=71.50000
   C -0.851510309E+01 -0.214512194E+00 -0.280600705E+00
   C  0.866681070E+01  0.356394134E+00  0.462986718E+00
   H -0.388441248E+02  0.444884116E-01  0.412208774E+01
   H  0.375180548E+02 -0.385373322E+01 -0.624195337E+01
     4
 # iter = 72000  time[fs]=72.00000
   C -0.860499824E+01 -0.216672842E+00 -0.283985530E+00
   C  0.875755121E+01  0.360310743E+00  0.468228711E+00
   H -0.392131964E+02  0.453616426E-01  0.416134838E+01
   H  0.378731125E+02 -0.389059583E+01 -0.630150765E+01
     4
 # iter = 72500  time[fs]=72.50000
   C -0.869493996E+01 -0.218835018E+00 -0.287372713E+00
   C  0.884833817E+01  0.364229410E+00  0.473473412E+00
   H -0.395823245E+02  0.462353718E-01  0.420061615E+01
   H  0.382282282E+02 -0.392746533E+01 -0.636107325E+01
     4
 # iter = 73000  time[fs]=73.00000
   C -0.878492728E+01 -0.220998689E+00 -0.290762207E+00
   C  0.893917062E+01  0.368150096E+00  0.478720767E+00
   H -0.399515081E+02  0.471095911E-01  0.423989092E+01
   H  0.385834007E+02 -0.396434158E+01 -0.642064997E+01
     4
 # iter = 73500  time[fs]=73.50000
   C -0.887495928E+01 -0.223163826E+00 -0.294153971E+00
   C  0.903004762E+01  0.372072761E+00  0.483970729E+00
   H -0.403207461E+02  0.479842923E-01  0.427917256E+01
   H  0.389386291E+02 -0.400122448E+01 -0.648023762E+01
     4
 # iter = 74000  time[fs]=74.00000
   C -0.896503505E+01 -0.225330400E+00 -0.297547959E+00
   C  0.912096827E+01  0.375997366E+00  0.489223247E+00
   H -0.406900375E+02  0.488594677E-01  0.431846097E+01
   H  0.392939124E+02 -0.403811389E+01 -0.653983600E+01
     4
 # iter = 74500  time[fs]=74.50000
   C -0.905515371E+01 -0.227498381E+00 -0.300944132E+00
   C  0.921193171E+01  0.379923874E+00  0.494478275E+00
   H -0.410593815E+02  0.497351095E-01  0.435775600E+01
   H  0.396492495E+02 -0.407500972E+01 -0.659944492E+01
     4
 # iter = 75000  time[fs]=75.00000
   C -0.914531442E+01 -0.229667743E+00 -0.304342449E+00
   C  0.930293708E+01  0.383852249E+00  0.499735767E+00
   H -0.414287770E+02  0.506112103E-01  0.439705757E+01
   H  0.400046395E+02 -0.411191185E+01 -0.665906421E+01
     4
 # iter = 75500  time[fs]=75.50000
   C -0.923551634E+01 -0.231838458E+00 -0.307742871E+00
   C  0.939398356E+01  0.387782456E+00  0.504995679E+00
   H -0.417982232E+02  0.514877627E-01  0.443636554E+01
   H  0.403600815E+02 -0.414882017E+01 -0.671869368E+01
     4
 # iter = 76000  time[fs]=76.00000
   C -0.932575867E+01 -0.234010500E+00 -0.311145359E+00
   C  0.948507034E+01  0.391714461E+00  0.510257966E+00
   H -0.421677192E+02  0.523647596E-01  0.447567981E+01
   H  0.407155746E+02 -0.418573457E+01 -0.677833316E+01
     4
 # iter = 76500  time[fs]=76.50000
   C -0.941604064E+01 -0.236183844E+00 -0.314549876E+00
   C  0.957619665E+01  0.395648230E+00  0.515522586E+00
   H -0.425372641E+02  0.532421941E-01  0.451500028E+01
   H  0.410711179E+02 -0.422265497E+01 -0.683798248E+01
     4
 # iter = 77000  time[fs]=77.00000
   C -0.950636149E+01 -0.238358466E+00 -0.317956387E+00
   C  0.966736173E+01  0.399583731E+00  0.520789498E+00
   H -0.429068572E+02  0.541200593E-01  0.455432684E+01
   H  0.414267106E+02 -0.425958124E+01 -0.689764149E+01
     4
 # iter = 77500  time[fs]=77.50000
   C -0.959672048E+01 -0.240534341E+00 -0.321364855E+00
   C  0.975856484E+01  0.403520932E+00  0.526058662E+00
   H -0.432764975E+02  0.549983487E-01  0.459365939E+01
   H  0.417823518E+02 -0.429651331E+01 -0.695731002E+01
     4
 # iter = 78000  time[fs]=78.00000
   C -0.968711688E+01 -0.242711446E+00 -0.324775246E+00
   C  0.984980528E+01  0.407459804E+00  0.531330039E+00
   H -0.436461843E+02  0.558770556E-01  0.463299783E+01
   H  0.421380407E+02 -0.433345107E+01 -0.701698790E+01
     4
 # iter = 78500  time[fs]=78.50000
   C -0.977755002E+01 -0.244889759E+00 -0.328187528E+00
   C  0.994108235E+01  0.411400315E+00  0.536603591E+00
   H -0.440159168E+02  0.567561738E-01  0.467234207E+01
   H  0.424937765E+02 -0.437039443E+01 -0.707667500E+01
     4
 # iter = 79000  time[fs]=79.00000
   C -0.986801920E+01 -0.247069257E+00 -0.331601667E+00
   C  0.100323954E+02  0.415342437E+00  0.541879280E+00
   H -0.443856943E+02  0.576356971E-01  0.471169201E+01
   H  0.428495584E+02 -0.440734331E+01 -0.713637116E+01
     4
 # iter = 79500  time[fs]=79.50000
   C -0.995852378E+01 -0.249249919E+00 -0.335017632E+00
   C  0.101237437E+02  0.419286142E+00  0.547157070E+00
   H -0.447555161E+02  0.585156193E-01  0.475104755E+01
   H  0.432053857E+02 -0.444429761E+01 -0.719607624E+01
     4
 # iter = 80000  time[fs]=80.00000
   C -0.100490631E+02 -0.251431724E+00 -0.338435391E+00
   C  0.102151266E+02  0.423231403E+00  0.552436927E+00
   H -0.451253813E+02  0.593959346E-01  0.479040862E+01
   H  0.435612577E+02 -0.448125724E+01 -0.725579009E+01
