     4
 # iter = 25000  time[fs]=25.00000
   C -0.101032067E+01 -0.272136026E-01 -0.707719884E-02
   C  0.980557928E+00  0.364505260E-02  0.645741601E-01
   H -0.533065337E+01  0.415096515E+00 -0.581327712E+00
   H  0.535290491E+01  0.310118995E+00  0.354999220E+00
     4
 # iter = 25500  time[fs]=25.50000
   C -0.105887676E+01 -0.306438093E-01 -0.687351796E-02
   C  0.102055728E+01  0.701628466E-03  0.635187708E-01
   H -0.567061417E+01  0.432156006E+00 -0.626474890E+00
   H  0.566379500E+01  0.319248788E+00  0.364892530E+00
     4
 # iter = 26000  time[fs]=26.00000
   C -0.111208781E+01 -0.350134063E-01 -0.765132991E-02
   C  0.106326208E+01 -0.327921839E-02  0.615096307E-01
   H -0.601857500E+01  0.444020128E+00 -0.677338954E+00
   H  0.597190217E+01  0.323118510E+00  0.369548453E+00
     4
 # iter = 26500  time[fs]=26.50000
   C -0.116705584E+01 -0.377382179E-01 -0.681824810E-02
   C  0.111157122E+01 -0.507914522E-02  0.617521028E-01
   H -0.635814951E+01  0.466754686E+00 -0.717794013E+00
   H  0.629305443E+01  0.337809043E+00  0.385045012E+00
     4
 # iter = 27000  time[fs]=27.00000
   C -0.122334877E+01 -0.386839012E-01 -0.423276197E-02
   C  0.116533915E+01 -0.454288638E-02  0.643904342E-01
   H -0.668830025E+01  0.501136012E+00 -0.747015141E+00
   H  0.662781029E+01  0.364103194E+00  0.412162632E+00
     4
 # iter = 27500  time[fs]=27.50000
   C -0.128259913E+01 -0.397611180E-01 -0.179938753E-02
   C  0.122188495E+01 -0.407204344E-02  0.670137403E-01
   H -0.702080031E+01  0.535176622E+00 -0.776950187E+00
   H  0.696398191E+01  0.390013124E+00  0.438911482E+00
     4
 # iter = 28000  time[fs]=28.00000
   C -0.134590312E+01 -0.423207260E-01 -0.863904176E-03
   C  0.127925291E+01 -0.536657003E-02  0.679142869E-01
   H -0.736394872E+01  0.560392491E+00 -0.816049057E+00
   H  0.729291377E+01  0.407055205E+00  0.456806246E+00
     4
 # iter = 28500  time[fs]=28.50000
   C -0.141247807E+01 -0.458101680E-01 -0.869668139E-03
   C  0.133789378E+01 -0.774387722E-02  0.677681567E-01
   H -0.771416914E+01  0.580194700E+00 -0.860870180E+00
   H  0.761787744E+01  0.418645484E+00  0.469261513E+00
     4
 # iter = 29000  time[fs]=29.00000
   C -0.148076818E+01 -0.488811073E-01 -0.465056157E-03
   C  0.139927741E+01 -0.952474934E-02  0.682491304E-01
   H -0.806292833E+01  0.602969941E+00 -0.902999822E+00
   H  0.794714249E+01  0.433177295E+00  0.484669358E+00
     4
 # iter = 29500  time[fs]=29.50000
   C -0.155011813E+01 -0.510656389E-01  0.820515014E-03
   C  0.146379340E+01 -0.101307402E-01  0.699311148E-01
   H -0.840720849E+01  0.631608845E+00 -0.939523933E+00
   H  0.828349352E+01  0.453545256E+00  0.505923316E+00
     4
 # iter = 30000  time[fs]=30.00000
   C -0.162100638E+01 -0.530113776E-01  0.234161921E-02
   C  0.153045514E+01 -0.103784207E-01  0.719937457E-01
   H -0.875097428E+01  0.662036868E+00 -0.974496867E+00
   H  0.862275757E+01  0.475675612E+00  0.528948694E+00
     4
 # iter = 30500  time[fs]=30.50000
   C -0.169400404E+01 -0.554414800E-01  0.337686283E-02
   C  0.159819954E+01 -0.111781395E-01  0.735234984E-01
   H -0.909867186E+01  0.689711028E+00 -0.101244383E+01
   H  0.896030338E+01  0.495025651E+00  0.549201967E+00
     4
 # iter = 31000  time[fs]=31.00000
   C -0.176898244E+01 -0.583635321E-01  0.392005443E-02
   C  0.166687533E+01 -0.125441716E-01  0.745034311E-01
   H -0.945028358E+01  0.714561968E+00 -0.105341821E+01
   H  0.929598527E+01  0.511527822E+00  0.566614865E+00
     4
 # iter = 31500  time[fs]=31.50000
   C -0.184534365E+01 -0.613017013E-01  0.444812212E-02
   C  0.173695084E+01 -0.138853205E-01  0.755224947E-01
   H -0.980277763E+01  0.739543026E+00 -0.109445221E+01
   H  0.963269023E+01  0.528138274E+00  0.584142904E+00
     4
 # iter = 32000  time[fs]=32.00000
   C -0.192268235E+01 -0.639603613E-01  0.525755549E-02
   C  0.180868182E+01 -0.148354489E-01  0.769449306E-01
   H -0.101542542E+02  0.766483583E+00 -0.113370351E+01
   H  0.997218767E+01  0.546688604E+00  0.603617120E+00
     4
 # iter = 32500  time[fs]=32.50000
   C -0.200102234E+01 -0.664620727E-01  0.622647488E-02
   C  0.188181218E+01 -0.155513410E-01  0.786123497E-01
   H -0.105054321E+02  0.794601937E+00 -0.117194223E+01
   H  0.103136405E+02  0.566398167E+00  0.624256370E+00
     4
 # iter = 33000  time[fs]=33.00000
   C -0.208052957E+01 -0.690617201E-01  0.710052658E-02
   C  0.195593053E+01 -0.163550046E-01  0.802013805E-01
   H -0.108578613E+02  0.822291272E+00 -0.121076475E+01
   H  0.106553912E+02  0.585660742E+00  0.644453992E+00
     4
 # iter = 33500  time[fs]=33.50000
   C -0.216119746E+01 -0.718329259E-01  0.780649401E-02
   C  0.203086141E+01 -0.173412774E-01  0.816160225E-01
   H -0.112119631E+02  0.849078843E+00 -0.125063433E+01
   H  0.109969216E+02  0.604004492E+00  0.663737750E+00
     4
 # iter = 34000  time[fs]=34.00000
   C -0.224284285E+01 -0.746649009E-01  0.845546923E-02
   C  0.210666827E+01 -0.183739320E-01  0.829915081E-01
   H -0.115670098E+02  0.875645427E+00 -0.129086153E+01
   H  0.113388714E+02  0.622111442E+00  0.682789317E+00
     4
 # iter = 34500  time[fs]=34.50000
   C -0.232529206E+01 -0.774494200E-01  0.915589913E-02
   C  0.218341855E+01 -0.193197099E-01  0.844602414E-01
   H -0.119222927E+02  0.902656840E+00 -0.133077262E+01
   H  0.116818693E+02  0.640648572E+00  0.702275350E+00
     4
 # iter = 35000  time[fs]=35.00000
   C -0.240848639E+01 -0.801871359E-01  0.990728853E-02
   C  0.226104977E+01 -0.201814004E-01  0.860186973E-01
   H -0.122777863E+02  0.930099515E+00 -0.137037395E+01
   H  0.120258673E+02  0.659603143E+00  0.722182821E+00
     4
 # iter = 35500  time[fs]=35.50000
   C -0.249243215E+01 -0.829382370E-01  0.106495544E-01
   C  0.233943065E+01 -0.210361117E-01  0.875891318E-01
   H -0.126338393E+02  0.957588726E+00 -0.141004361E+01
   H  0.123704489E+02  0.678591050E+00  0.742127363E+00
     4
 # iter = 36000  time[fs]=36.00000
   C -0.257711270E+01 -0.857351160E-01  0.113503675E-01
   C  0.241846976E+01 -0.219259944E-01  0.891288428E-01
   H -0.129906291E+02  0.984914212E+00 -0.144998577E+01
   H  0.127153748E+02  0.697402650E+00  0.761899094E+00
     4
 # iter = 36500  time[fs]=36.50000
   C -0.266246799E+01 -0.885623922E-01  0.120251377E-01
   C  0.249813995E+01 -0.228332608E-01  0.906551383E-01
   H -0.133480364E+02  0.101216491E+01 -0.149010586E+01
   H  0.130607071E+02  0.716127558E+00  0.781587413E+00
     4
 # iter = 37000  time[fs]=37.00000
   C -0.274843091E+01 -0.913937480E-01  0.127001843E-01
   C  0.257843183E+01 -0.237263041E-01  0.921992067E-01
   H -0.137058753E+02  0.103949869E+01 -0.153024082E+01
   H  0.134065791E+02  0.734924305E+00  0.801350653E+00
     4
 # iter = 37500  time[fs]=37.50000
   C -0.283495718E+01 -0.942221942E-01  0.133824771E-01
   C  0.265931541E+01 -0.245975905E-01  0.937682153E-01
   H -0.140640824E+02  0.106695320E+01 -0.157034820E+01
   H  0.137530057E+02  0.753831089E+00  0.821226830E+00
     4
 # iter = 38000  time[fs]=38.00000
   C -0.292202160E+01 -0.970567286E-01  0.140629816E-01
   C  0.274074395E+01 -0.254594898E-01  0.953494728E-01
   H -0.144226952E+02  0.109446663E+01 -0.161048533E+01
   H  0.140999036E+02  0.772786612E+00  0.841154480E+00
     4
 # iter = 38500  time[fs]=38.50000
   C -0.300960048E+01 -0.999050554E-01  0.147339439E-01
   C  0.282267521E+01 -0.263226593E-01  0.969320389E-01
   H -0.147817448E+02  0.112198573E+01 -0.165070131E+01
   H  0.144472001E+02  0.791738061E+00  0.861080638E+00
     4
 # iter = 39000  time[fs]=39.00000
   C -0.309766412E+01 -0.102766329E+00  0.153961493E-01
   C  0.290508031E+01 -0.271869712E-01  0.985157914E-01
   H -0.151412100E+02  0.114951105E+01 -0.169099175E+01
   H  0.147948772E+02  0.810686434E+00  0.881006160E+00
     4
 # iter = 39500  time[fs]=39.50000
   C -0.318618133E+01 -0.105635953E+00  0.160541247E-01
   C  0.298793738E+01 -0.280475302E-01  0.100105405E+00
   H -0.155010470E+02  0.117706691E+01 -0.173132869E+01
   H  0.151429423E+02  0.829656483E+00  0.900955669E+00
     4
 # iter = 40000  time[fs]=40.00000
   C -0.327512517E+01 -0.108511522E+00  0.167102030E-01
   C  0.307122400E+01 -0.289021118E-01  0.101702907E+00
   H -0.158612269E+02  0.120466431E+01 -0.177169780E+01
   H  0.154913904E+02  0.848659578E+00  0.920940414E+00
     4
 # iter = 40500  time[fs]=40.50000
   C -0.336447345E+01 -0.111393518E+00  0.173638226E-01
   C  0.315491600E+01 -0.297520475E-01  0.103306792E+00
   H -0.162217396E+02  0.123229644E+01 -0.181210272E+01
   H  0.158401998E+02  0.867689286E+00  0.940953852E+00
     4
 # iter = 41000  time[fs]=41.00000
   C -0.345420614E+01 -0.114282904E+00  0.180139397E-01
   C  0.323899041E+01 -0.305992134E-01  0.104915028E+00
   H -0.165825788E+02  0.125995379E+01 -0.185255002E+01
   H  0.161893469E+02  0.886736417E+00  0.960986689E+00
     4
 # iter = 41500  time[fs]=41.50000
   C -0.354430370E+01 -0.117179611E+00  0.186605384E-01
   C  0.332342711E+01 -0.314441466E-01  0.106526939E+00
   H -0.169437326E+02  0.128763350E+01 -0.189303978E+01
   H  0.165388159E+02  0.905798442E+00  0.981036299E+00
     4
 # iter = 42000  time[fs]=42.00000
   C -0.363474731E+01 -0.120082878E+00  0.193042951E-01
   C  0.340820831E+01 -0.322864713E-01  0.108142777E+00
   H -0.173051855E+02  0.131533728E+01 -0.193356769E+01
   H  0.168885962E+02  0.924877361E+00  0.100110459E+01
     4
 # iter = 42500  time[fs]=42.50000
   C -0.372551954E+01 -0.122992072E+00  0.199457580E-01
   C  0.349331735E+01 -0.331259303E-01  0.109762686E+00
   H -0.176669233E+02  0.134306623E+01 -0.197413021E+01
   H  0.172386773E+02  0.943974559E+00  0.102119288E+01
     4
 # iter = 43000  time[fs]=43.00000
   C -0.381660448E+01 -0.125906933E+00  0.205851018E-01
   C  0.357873833E+01 -0.339626969E-01  0.111386393E+00
   H -0.180289347E+02  0.137081931E+01 -0.201472607E+01
   H  0.175890473E+02  0.963089254E+00  0.104130029E+01
     4
 # iter = 43500  time[fs]=43.50000
   C -0.390798743E+01 -0.128827345E+00  0.212223582E-01
   C  0.366445625E+01 -0.347970899E-01  0.113013489E+00
   H -0.183912100E+02  0.139859473E+01 -0.205535488E+01
   H  0.179396941E+02  0.982219915E+00  0.106142522E+01
     4
 # iter = 44000  time[fs]=44.00000
   C -0.399965458E+01 -0.131753125E+00  0.218576267E-01
   C  0.375045721E+01 -0.356293127E-01  0.114643687E+00
   H -0.187537396E+02  0.142639130E+01 -0.209601579E+01
   H  0.182906070E+02  0.100136557E+01  0.108156664E+01
     4
 # iter = 44500  time[fs]=44.50000
   C -0.409159296E+01 -0.134684015E+00  0.224910820E-01
   C  0.383672832E+01 -0.364594486E-01  0.116276832E+00
   H -0.191165136E+02  0.145420841E+01 -0.213670746E+01
   H  0.186417761E+02  0.102052585E+01  0.110172409E+01
     4
 # iter = 45000  time[fs]=45.00000
   C -0.418379038E+01 -0.137619766E+00  0.231228941E-01
   C  0.392325752E+01 -0.372875615E-01  0.117912791E+00
   H -0.194795230E+02  0.148204555E+01 -0.217742857E+01
   H  0.189931923E+02  0.103970044E+01  0.112189724E+01
     4
 # iter = 45500  time[fs]=45.50000
   C -0.427623548E+01 -0.140560168E+00  0.237531919E-01
   C  0.401003347E+01 -0.381137455E-01  0.119551410E+00
   H -0.198427591E+02  0.150990206E+01 -0.221817804E+01
   H  0.193448468E+02  0.105888889E+01  0.114208555E+01
     4
 # iter = 46000  time[fs]=46.00000
   C -0.436891760E+01 -0.143505043E+00  0.243820767E-01
   C  0.409704554E+01 -0.389381085E-01  0.121192525E+00
   H -0.202062139E+02  0.153777722E+01 -0.225895493E+01
   H  0.196967312E+02  0.107809066E+01  0.116228844E+01
     4
 # iter = 46500  time[fs]=46.50000
   C -0.446182673E+01 -0.146454219E+00  0.250096442E-01
   C  0.418428372E+01 -0.397607483E-01  0.122835989E+00
   H -0.205698800E+02  0.156567036E+01 -0.229975837E+01
   H  0.200488373E+02  0.109730526E+01  0.118250536E+01
     4
 # iter = 47000  time[fs]=47.00000
   C -0.455495345E+01 -0.149407528E+00  0.256359892E-01
   C  0.427173861E+01 -0.405817469E-01  0.124481673E+00
   H -0.209337499E+02  0.159358087E+01 -0.234058745E+01
   H  0.204011578E+02  0.111653227E+01  0.120273585E+01
     4
 # iter = 47500  time[fs]=47.50000
   C -0.464828887E+01 -0.152364808E+00  0.262612007E-01
   C  0.435940137E+01 -0.414011786E-01  0.126129460E+00
   H -0.212978169E+02  0.162150822E+01 -0.238144132E+01
   H  0.207536853E+02  0.113577130E+01  0.122297948E+01
     4
 # iter = 48000  time[fs]=48.00000
   C -0.474182466E+01 -0.155325910E+00  0.268853596E-01
   C  0.444726368E+01 -0.422191146E-01  0.127779242E+00
   H -0.216620743E+02  0.164945187E+01 -0.242231916E+01
   H  0.211064131E+02  0.115502197E+01  0.124323581E+01
     4
 # iter = 48500  time[fs]=48.50000
   C -0.483555291E+01 -0.158290691E+00  0.275085387E-01
   C  0.453531767E+01 -0.430356235E-01  0.129430914E+00
   H -0.220265160E+02  0.167741130E+01 -0.246322021E+01
   H  0.214593347E+02  0.117428391E+01  0.126350445E+01
     4
 # iter = 49000  time[fs]=49.00000
   C -0.492946620E+01 -0.161259019E+00  0.281308053E-01
   C  0.462355592E+01 -0.438507699E-01  0.131084380E+00
   H -0.223911361E+02  0.170538602E+01 -0.250414375E+01
   H  0.218124439E+02  0.119355676E+01  0.128378500E+01
     4
 # iter = 49500  time[fs]=49.50000
   C -0.502355748E+01 -0.164230767E+00  0.287522217E-01
   C  0.471197141E+01 -0.446646138E-01  0.132739549E+00
   H -0.227559288E+02  0.173337556E+01 -0.254508907E+01
   H  0.221657348E+02  0.121284019E+01  0.130407709E+01
     4
 # iter = 50000  time[fs]=50.00000
   C -0.511782011E+01 -0.167205814E+00  0.293728460E-01
   C  0.480055751E+01 -0.454772114E-01  0.134396338E+00
   H -0.231208888E+02  0.176137947E+01 -0.258605553E+01
   H  0.225192017E+02  0.123213388E+01  0.132438037E+01
     4
 # iter = 50500  time[fs]=50.50000
   C -0.521224777E+01 -0.170184046E+00  0.299927317E-01
   C  0.488930794E+01 -0.462886158E-01  0.136054669E+00
   H -0.234860111E+02  0.178939733E+01 -0.262704247E+01
   H  0.228728393E+02  0.125143754E+01  0.134469450E+01
     4
 # iter = 51000  time[fs]=51.00000
   C -0.530683450E+01 -0.173165356E+00  0.306119284E-01
   C  0.497821676E+01 -0.470988768E-01  0.137714469E+00
   H -0.238512906E+02  0.181742874E+01 -0.266804930E+01
   H  0.232266425E+02  0.127075086E+01  0.136501917E+01
     4
 # iter = 51500  time[fs]=51.50000
   C -0.540157464E+01 -0.176149640E+00  0.312304819E-01
   C  0.506727831E+01 -0.479080417E-01  0.139375669E+00
   H -0.242167227E+02  0.184547329E+01 -0.270907544E+01
   H  0.235806064E+02  0.129007357E+01  0.138535405E+01
     4
 # iter = 52000  time[fs]=52.00000
   C -0.549646281E+01 -0.179136800E+00  0.318484351E-01
   C  0.515648723E+01 -0.487161551E-01  0.141038204E+00
   H -0.245823029E+02  0.187353062E+01 -0.275012032E+01
   H  0.239347262E+02  0.130940539E+01  0.140569887E+01
     4
 # iter = 52500  time[fs]=52.50000
   C -0.559149391E+01 -0.182126744E+00  0.324658274E-01
   C  0.524583845E+01 -0.495232589E-01  0.142702015E+00
   H -0.249480270E+02  0.190160037E+01 -0.279118343E+01
   H  0.242889976E+02  0.132874609E+01  0.142605333E+01
     4
 # iter = 53000  time[fs]=53.00000
   C -0.568666309E+01 -0.185119382E+00  0.330826958E-01
   C  0.533532711E+01 -0.503293929E-01  0.144367044E+00
   H -0.253138908E+02  0.192968219E+01 -0.283226426E+01
   H  0.246434161E+02  0.134809540E+01  0.144641717E+01
     4
 # iter = 53500  time[fs]=53.50000
   C -0.578196571E+01 -0.188114630E+00  0.336990746E-01
   C  0.542494863E+01 -0.511345947E-01  0.146033239E+00
   H -0.256798904E+02  0.195777576E+01 -0.287336230E+01
   H  0.249979777E+02  0.136745310E+01  0.146679012E+01
     4
 # iter = 54000  time[fs]=54.00000
   C -0.587739740E+01 -0.191112408E+00  0.343149957E-01
   C  0.551469861E+01 -0.519388999E-01  0.147700549E+00
   H -0.260460220E+02  0.198588077E+01 -0.291447711E+01
   H  0.253526784E+02  0.138681896E+01  0.148717195E+01
     4
 # iter = 54500  time[fs]=54.50000
   C -0.597295395E+01 -0.194112637E+00  0.349304889E-01
   C  0.560457288E+01 -0.527423424E-01  0.149368926E+00
   H -0.264122821E+02  0.201399690E+01 -0.295560822E+01
   H  0.257075145E+02  0.140619277E+01  0.150756241E+01
     4
 # iter = 55000  time[fs]=55.00000
   C -0.606863138E+01 -0.197115245E+00  0.355455820E-01
   C  0.569456747E+01 -0.535449540E-01  0.151038327E+00
   H -0.267786671E+02  0.204212387E+01 -0.299675522E+01
   H  0.260624823E+02  0.142557431E+01  0.152796127E+01
     4
 # iter = 55500  time[fs]=55.50000
   C -0.616442587E+01 -0.200120161E+00  0.361603009E-01
   C  0.578467857E+01 -0.543467653E-01  0.152708708E+00
   H -0.271451737E+02  0.207026139E+01 -0.303791767E+01
   H  0.264175783E+02  0.144496338E+01  0.154836831E+01
     4
 # iter = 56000  time[fs]=56.00000
   C -0.626033379E+01 -0.203127318E+00  0.367746700E-01
   C  0.587490256E+01 -0.551478050E-01  0.154380031E+00
   H -0.275117988E+02  0.209840921E+01 -0.307909519E+01
   H  0.267727992E+02  0.146435980E+01  0.156878332E+01
     4
 # iter = 56500  time[fs]=56.50000
   C -0.635635166E+01 -0.206136651E+00  0.373887118E-01
   C  0.596523597E+01 -0.559481006E-01  0.156052256E+00
   H -0.278785392E+02  0.212656706E+01 -0.312028740E+01
   H  0.271281417E+02  0.148376337E+01  0.158920611E+01
     4
 # iter = 57000  time[fs]=57.00000
   C -0.645247616E+01 -0.209148099E+00  0.380024475E-01
   C  0.605567550E+01 -0.567476782E-01  0.157725350E+00
   H -0.282453920E+02  0.215473468E+01 -0.316149392E+01
   H  0.274836027E+02  0.150317393E+01  0.160963646E+01
     4
 # iter = 57500  time[fs]=57.50000
   C -0.654870410E+01 -0.212161603E+00  0.386158970E-01
   C  0.614621798E+01 -0.575465627E-01  0.159399278E+00
   H -0.286123544E+02  0.218291185E+01 -0.320271440E+01
   H  0.278391793E+02  0.152259129E+01  0.163007420E+01
     4
 # iter = 58000  time[fs]=58.00000
   C -0.664503246E+01 -0.215177105E+00  0.392290790E-01
   C  0.623686039E+01 -0.583447778E-01  0.161074008E+00
   H -0.289794235E+02  0.221109832E+01 -0.324394849E+01
   H  0.281948686E+02  0.154201530E+01  0.165051915E+01
     4
 # iter = 58500  time[fs]=58.50000
   C -0.674145831E+01 -0.218194552E+00  0.398420107E-01
   C  0.632759980E+01 -0.591423458E-01  0.162749510E+00
   H -0.293465969E+02  0.223929389E+01 -0.328519588E+01
   H  0.285506677E+02  0.156144579E+01  0.167097112E+01
     4
 # iter = 59000  time[fs]=59.00000
   C -0.683797886E+01 -0.221213891E+00  0.404547087E-01
   C  0.641843346E+01 -0.599392885E-01  0.164425755E+00
   H -0.297138718E+02  0.226749832E+01 -0.332645623E+01
   H  0.289065742E+02  0.158088261E+01  0.169142995E+01
     4
 # iter = 59500  time[fs]=59.50000
   C -0.693459145E+01 -0.224235072E+00  0.410671882E-01
   C  0.650935869E+01 -0.607356263E-01  0.166102715E+00
   H -0.300812460E+02  0.229571141E+01 -0.336772925E+01
   H  0.292625852E+02  0.160032561E+01  0.171189548E+01
     4
 # iter = 60000  time[fs]=60.00000
   C -0.703129349E+01 -0.227258047E+00  0.416794636E-01
   C  0.660037293E+01 -0.615313787E-01  0.167780365E+00
   H -0.304487170E+02  0.232393297E+01 -0.340901464E+01
   H  0.296186985E+02  0.161977465E+01  0.173236755E+01
     4
 # iter = 60500  time[fs]=60.50000
   C -0.712808254E+01 -0.230282769E+00  0.422915484E-01
   C  0.669147374E+01 -0.623265646E-01  0.169458681E+00
   H -0.308162825E+02  0.235216280E+01 -0.345031211E+01
   H  0.299749115E+02  0.163922959E+01  0.175284601E+01
     4
 # iter = 61000  time[fs]=61.00000
   C -0.722495622E+01 -0.233309193E+00  0.429034555E-01
   C  0.678265875E+01 -0.631212017E-01  0.171137637E+00
   H -0.311839403E+02  0.238040071E+01 -0.349162139E+01
   H  0.303312220E+02  0.165869029E+01  0.177333071E+01
     4
 # iter = 61500  time[fs]=61.50000
   C -0.732191227E+01 -0.236337278E+00  0.435151967E-01
   C  0.687392571E+01 -0.639153073E-01  0.172817213E+00
   H -0.315516884E+02  0.240864652E+01 -0.353294221E+01
   H  0.306876278E+02  0.167815664E+01  0.179382152E+01
     4
 # iter = 62000  time[fs]=62.00000
   C -0.741894849E+01 -0.239366981E+00  0.441267833E-01
   C  0.696527244E+01 -0.647088976E-01  0.174497387E+00
   H -0.319195246E+02  0.243690006E+01 -0.357427431E+01
   H  0.310441266E+02  0.169762849E+01  0.181431829E+01
     4
 # iter = 62500  time[fs]=62.50000
   C -0.751606280E+01 -0.242398264E+00  0.447382259E-01
   C  0.705669684E+01 -0.655019884E-01  0.176178138E+00
   H -0.322874470E+02  0.246516116E+01 -0.361561745E+01
   H  0.314007165E+02  0.171710574E+01  0.183482090E+01
     4
 # iter = 63000  time[fs]=63.00000
   C -0.761325316E+01 -0.245431086E+00  0.453495345E-01
   C  0.714819691E+01 -0.662945947E-01  0.177859447E+00
   H -0.326554536E+02  0.249342966E+01 -0.365697139E+01
   H  0.317573953E+02  0.173658827E+01  0.185532921E+01
     4
 # iter = 63500  time[fs]=63.50000
   C -0.771051763E+01 -0.248465412E+00  0.459607184E-01
   C  0.723977070E+01 -0.670867309E-01  0.179541296E+00
   H -0.330235427E+02  0.252170539E+01 -0.369833589E+01
   H  0.321141612E+02  0.175607595E+01  0.187584310E+01
     4
 # iter = 64000  time[fs]=64.00000
   C -0.780785435E+01 -0.251501205E+00  0.465717866E-01
   C  0.733141637E+01 -0.678784108E-01  0.181223667E+00
   H -0.333917124E+02  0.254998820E+01 -0.373971072E+01
   H  0.324710122E+02  0.177556869E+01  0.189636246E+01
     4
 # iter = 64500  time[fs]=64.50000
   C -0.790526151E+01 -0.254538432E+00  0.471827474E-01
   C  0.742313209E+01 -0.686696475E-01  0.182906542E+00
   H -0.337599609E+02  0.257827795E+01 -0.378109567E+01
   H  0.328279465E+02  0.179506638E+01  0.191688717E+01
     4
 # iter = 65000  time[fs]=65.00000
   C -0.800273736E+01 -0.257577059E+00  0.477936087E-01
   C  0.751491616E+01 -0.694604539E-01  0.184589906E+00
   H -0.341282867E+02  0.260657449E+01 -0.382249053E+01
   H  0.331849624E+02  0.181456891E+01  0.193741711E+01
     4
 # iter = 65500  time[fs]=65.50000
   C -0.810028024E+01 -0.260617054E+00  0.484043778E-01
   C  0.760676689E+01 -0.702508422E-01  0.186273744E+00
   H -0.344966880E+02  0.263487769E+01 -0.386389509E+01
   H  0.335420581E+02  0.183407619E+01  0.195795218E+01
     4
 # iter = 66000  time[fs]=66.00000
   C -0.819788852E+01 -0.263658386E+00  0.490150619E-01
   C  0.769868267E+01 -0.710408239E-01  0.187958040E+00
   H -0.348651633E+02  0.266318740E+01 -0.390530915E+01
   H  0.338992320E+02  0.185358811E+01  0.197849227E+01
     4
 # iter = 66500  time[fs]=66.50000
   C -0.829556065E+01 -0.266701024E+00  0.496256675E-01
   C  0.779066196E+01 -0.718304105E-01  0.189642780E+00
   H -0.352337110E+02  0.269150349E+01 -0.394673252E+01
   H  0.342564825E+02  0.187310459E+01  0.199903728E+01
     4
 # iter = 67000  time[fs]=67.00000
   C -0.839329512E+01 -0.269744941E+00  0.502362008E-01
   C  0.788270326E+01 -0.726196127E-01  0.191327952E+00
   H -0.356023298E+02  0.271982585E+01 -0.398816502E+01
   H  0.346138080E+02  0.189262553E+01  0.201958711E+01
     4
 # iter = 67500  time[fs]=67.50000
   C -0.849109047E+01 -0.272790107E+00  0.508466679E-01
   C  0.797480511E+01 -0.734084410E-01  0.193013540E+00
   H -0.359710181E+02  0.274815434E+01 -0.402960646E+01
   H  0.349712070E+02  0.191215085E+01  0.204014167E+01
     4
 # iter = 68000  time[fs]=68.00000
   C -0.858894530E+01 -0.275836497E+00  0.514570743E-01
   C  0.806696611E+01 -0.741969054E-01  0.194699535E+00
   H -0.363397745E+02  0.277648885E+01 -0.407105666E+01
   H  0.353286780E+02  0.193168046E+01  0.206070086E+01
     4
 # iter = 68500  time[fs]=68.50000
   C -0.868685826E+01 -0.278884083E+00  0.520674252E-01
   C  0.815918492E+01 -0.749850155E-01  0.196385922E+00
   H -0.367085977E+02  0.280482926E+01 -0.411251546E+01
   H  0.356862196E+02  0.195121427E+01  0.208126459E+01
     4
 # iter = 69000  time[fs]=69.00000
   C -0.878482802E+01 -0.281932839E+00  0.526777257E-01
   C  0.825146023E+01 -0.757727807E-01  0.198072691E+00
   H -0.370774864E+02  0.283317546E+01 -0.415398269E+01
   H  0.360438305E+02  0.197075222E+01  0.210183277E+01
     4
 # iter = 69500  time[fs]=69.50000
   C -0.888285333E+01 -0.284982743E+00  0.532879805E-01
   C  0.834379077E+01 -0.765602099E-01  0.199759831E+00
   H -0.374464393E+02  0.286152733E+01 -0.419545819E+01
   H  0.364015092E+02  0.199029421E+01  0.212240532E+01
     4
 # iter = 70000  time[fs]=70.00000
   C -0.898093294E+01 -0.288033769E+00  0.538981940E-01
   C  0.843617532E+01 -0.773473117E-01  0.201447332E+00
   H -0.378154552E+02  0.288988477E+01 -0.423694180E+01
   H  0.367592545E+02  0.200984017E+01  0.214298216E+01
     4
 # iter = 70500  time[fs]=70.50000
   C -0.907906568E+01 -0.291085895E+00  0.545083705E-01
   C  0.852861270E+01 -0.781340945E-01  0.203135182E+00
   H -0.381845329E+02  0.291824768E+01 -0.427843338E+01
   H  0.371170651E+02  0.202939003E+01  0.216356320E+01
     4
 # iter = 71000  time[fs]=71.00000
   C -0.917725038E+01 -0.294139097E+00  0.551185140E-01
   C  0.862110175E+01 -0.789205662E-01  0.204823372E+00
   H -0.385536711E+02  0.294661596E+01 -0.431993276E+01
   H  0.374749398E+02  0.204894372E+01  0.218414837E+01
     4
 # iter = 71500  time[fs]=71.50000
   C -0.927548595E+01 -0.297193355E+00  0.557286282E-01
   C  0.871364138E+01 -0.797067347E-01  0.206511893E+00
   H -0.389228689E+02  0.297498951E+01 -0.436143982E+01
   H  0.378328774E+02  0.206850117E+01  0.220473759E+01
     4
 # iter = 72000  time[fs]=72.00000
   C -0.937377129E+01 -0.300248647E+00  0.563387168E-01
   C  0.880623051E+01 -0.804926074E-01  0.208200736E+00
   H -0.392921249E+02  0.300336823E+01 -0.440295440E+01
   H  0.381908767E+02  0.208806230E+01  0.222533079E+01
     4
 # iter = 72500  time[fs]=72.50000
   C -0.947210536E+01 -0.303304953E+00  0.569487831E-01
   C  0.889886809E+01 -0.812781915E-01  0.209889892E+00
   H -0.396614383E+02  0.303175203E+01 -0.444447637E+01
   H  0.385489366E+02  0.210762705E+01  0.224592789E+01
     4
 # iter = 73000  time[fs]=73.00000
   C -0.957048715E+01 -0.306362253E+00  0.575588303E-01
   C  0.899155312E+01 -0.820634940E-01  0.211579353E+00
   H -0.400308079E+02  0.306014082E+01 -0.448600561E+01
   H  0.389070560E+02  0.212719536E+01  0.226652882E+01
     4
 # iter = 73500  time[fs]=73.50000
   C -0.966891567E+01 -0.309420527E+00  0.581688615E-01
   C  0.908428462E+01 -0.828485217E-01  0.213269110E+00
   H -0.404002327E+02  0.308853451E+01 -0.452754198E+01
   H  0.392652337E+02  0.214676717E+01  0.228713352E+01
     4
 # iter = 74000  time[fs]=74.00000
   C -0.976738997E+01 -0.312479758E+00  0.587788796E-01
   C  0.917706163E+01 -0.836332810E-01  0.214959155E+00
   H -0.407697118E+02  0.311693302E+01 -0.456908535E+01
   H  0.396234689E+02  0.216634241E+01  0.230774192E+01
     4
 # iter = 74500  time[fs]=74.50000
   C -0.986590913E+01 -0.315539926E+00  0.593888873E-01
   C  0.926988324E+01 -0.844177783E-01  0.216649482E+00
   H -0.411392441E+02  0.314533626E+01 -0.461063561E+01
   H  0.399817604E+02  0.218592102E+01  0.232835396E+01
     4
 # iter = 75000  time[fs]=75.00000
   C -0.996447224E+01 -0.318601013E+00  0.599988872E-01
   C  0.936274856E+01 -0.852020196E-01  0.218340082E+00
   H -0.415088288E+02  0.317374415E+01 -0.465219263E+01
   H  0.403401073E+02  0.220550295E+01  0.234896957E+01
     4
 # iter = 75500  time[fs]=75.50000
   C -0.100630784E+02 -0.321663004E+00  0.606088817E-01
   C  0.945565671E+01 -0.859860109E-01  0.220030950E+00
   H -0.418784649E+02  0.320215662E+01 -0.469375630E+01
   H  0.406985086E+02  0.222508814E+01  0.236958868E+01
     4
 # iter = 76000  time[fs]=76.00000
   C -0.101617269E+02 -0.324725881E+00  0.612188732E-01
   C  0.954860685E+01 -0.867697578E-01  0.221722077E+00
   H -0.422481515E+02  0.323057358E+01 -0.473532651E+01
   H  0.410569634E+02  0.224467654E+01  0.239021125E+01
     4
 # iter = 76500  time[fs]=76.50000
   C -0.102604167E+02 -0.327789627E+00  0.618288638E-01
   C  0.964159817E+01 -0.875532658E-01  0.223413459E+00
   H -0.426178878E+02  0.325899496E+01 -0.477690315E+01
   H  0.414154707E+02  0.226426808E+01  0.241083722E+01
     4
 # iter = 77000  time[fs]=77.00000
   C -0.103591472E+02 -0.330854227E+00  0.624388556E-01
   C  0.973462987E+01 -0.883365404E-01  0.225105087E+00
   H -0.429876730E+02  0.328742069E+01 -0.481848610E+01
   H  0.417740297E+02  0.228386272E+01  0.243146651E+01
     4
 # iter = 77500  time[fs]=77.50000
   C -0.104579175E+02 -0.333919666E+00  0.630488507E-01
   C  0.982770117E+01 -0.891195867E-01  0.226796957E+00
   H -0.433575061E+02  0.331585069E+01 -0.486007526E+01
   H  0.421326395E+02  0.230346041E+01  0.245209909E+01
     4
 # iter = 78000  time[fs]=78.00000
   C -0.105567269E+02 -0.336985929E+00  0.636588509E-01
   C  0.992081133E+01 -0.899024096E-01  0.228489062E+00
   H -0.437273864E+02  0.334428490E+01 -0.490167054E+01
   H  0.424912993E+02  0.232306110E+01  0.247273490E+01
     4
 # iter = 78500  time[fs]=78.50000
   C -0.106555746E+02 -0.340053000E+00  0.642688579E-01
   C  0.100139596E+02 -0.906850142E-01  0.230181397E+00
   H -0.440973131E+02  0.337272325E+01 -0.494327183E+01
   H  0.428500081E+02  0.234266474E+01  0.249337388E+01
     4
 # iter = 79000  time[fs]=79.00000
   C -0.107544600E+02 -0.343120866E+00  0.648788734E-01
   C  0.101071453E+02 -0.914674050E-01  0.231873956E+00
   H -0.444672855E+02  0.340116567E+01 -0.498487903E+01
   H  0.432087653E+02  0.236227127E+01  0.251401598E+01
     4
 # iter = 79500  time[fs]=79.50000
   C -0.108533823E+02 -0.346189513E+00  0.654888991E-01
   C  0.102003678E+02 -0.922495866E-01  0.233566733E+00
   H -0.448373028E+02  0.342961209E+01 -0.502649206E+01
   H  0.435675700E+02  0.238188067E+01  0.253466115E+01
     4
 # iter = 80000  time[fs]=80.00000
   C -0.109523409E+02 -0.349258927E+00  0.660989364E-01
   C  0.102936262E+02 -0.930315636E-01  0.235259725E+00
   H -0.452073642E+02  0.345806246E+01 -0.506811081E+01
   H  0.439264215E+02  0.240149287E+01  0.255530934E+01
