     4
 # iter = 25000  time[fs]=25.00000
   C -0.101736195E+01 -0.157966581E-01  0.188909530E-01
   C  0.933454081E+00 -0.413990626E-01 -0.254399446E-01
   H -0.528059786E+01 -0.106281567E+00  0.316722412E+00
   H  0.522640609E+01  0.437330285E+00  0.252952714E+00
     4
 # iter = 25500  time[fs]=25.50000
   C -0.106641363E+01 -0.175835538E-01  0.174724994E-01
   C  0.971344726E+00 -0.462947260E-01 -0.280771236E-01
   H -0.562200458E+01 -0.122402499E+00  0.327634914E+00
   H  0.552935571E+01  0.455270314E+00  0.261015738E+00
     4
 # iter = 26000  time[fs]=26.00000
   C -0.111988667E+01 -0.202398832E-01  0.152039474E-01
   C  0.101172027E+01 -0.522756415E-01 -0.318271920E-01
   H -0.597154790E+01 -0.143986910E+00  0.333303429E+00
   H  0.582960467E+01  0.468055188E+00  0.263803740E+00
     4
 # iter = 26500  time[fs]=26.50000
   C -0.117474886E+01 -0.210321498E-01  0.148134646E-01
   C  0.105731974E+01 -0.562991325E-01 -0.336410923E-01
   H -0.631283043E+01 -0.154946502E+00  0.349790999E+00
   H  0.614297272E+01  0.491754705E+00  0.277399146E+00
     4
 # iter = 27000  time[fs]=27.00000
   C -0.123058510E+01 -0.198269424E-01  0.164300417E-01
   C  0.110801268E+01 -0.582115244E-01 -0.333599476E-01
   H -0.664479920E+01 -0.154480314E+00  0.377878087E+00
   H  0.647001078E+01  0.527142239E+00  0.302586453E+00
     4
 # iter = 27500  time[fs]=27.50000
   C -0.128917031E+01 -0.186611661E-01  0.180131611E-01
   C  0.116127838E+01 -0.602708337E-01 -0.332375845E-01
   H -0.697920783E+01 -0.154549140E+00  0.405587114E+00
   H  0.679852406E+01  0.562221888E+00  0.327379611E+00
     4
 # iter = 28000  time[fs]=28.00000
   C -0.135170656E+01 -0.189768112E-01  0.181179640E-01
   C  0.121527960E+01 -0.640737689E-01 -0.348673409E-01
   H -0.732433983E+01 -0.163614977E+00  0.424441633E+00
   H  0.711985100E+01  0.588503064E+00  0.343296455E+00
     4
 # iter = 28500  time[fs]=28.50000
   C -0.141739707E+01 -0.201945592E-01  0.173215463E-01
   C  0.127044735E+01 -0.689705623E-01 -0.375967393E-01
   H -0.767661136E+01 -0.178252762E+00  0.437853835E+00
   H  0.743725802E+01  0.609395725E+00  0.353753975E+00
     4
 # iter = 29000  time[fs]=29.00000
   C -0.148462058E+01 -0.208896785E-01  0.170469304E-01
   C  0.132817288E+01 -0.733720026E-01 -0.398344091E-01
   H -0.802748564E+01 -0.190066164E+00  0.454208647E+00
   H  0.775901020E+01  0.633287865E+00  0.367146160E+00
     4
 # iter = 29500  time[fs]=29.50000
   C -0.155270891E+01 -0.205715757E-01  0.177833933E-01
   C  0.138882825E+01 -0.767274048E-01 -0.410279682E-01
   H -0.837393971E+01 -0.196153947E+00  0.476397429E+00
   H  0.808788823E+01  0.663069453E+00  0.386368291E+00
     4
 # iter = 30000  time[fs]=30.00000
   C -0.162219495E+01 -0.199334078E-01  0.188367709E-01
   C  0.145148730E+01 -0.798020883E-01 -0.419414156E-01
   H -0.871993032E+01 -0.200578111E+00  0.500349647E+00
   H  0.841971563E+01  0.694662680E+00  0.407347334E+00
     4
 # iter = 30500  time[fs]=30.50000
   C -0.169370728E+01 -0.197480140E-01  0.194334717E-01
   C  0.151515125E+01 -0.834502231E-01 -0.434278973E-01
   H -0.906989631E+01 -0.207870099E+00  0.521526348E+00
   H  0.874985803E+01  0.723521240E+00  0.425541232E+00
     4
 # iter = 31000  time[fs]=31.00000
   C -0.176712900E+01 -0.200280587E-01  0.195602890E-01
   C  0.157968055E+01 -0.876813285E-01 -0.454961396E-01
   H -0.942381565E+01 -0.218090945E+00  0.539859752E+00
   H  0.907816695E+01  0.749574326E+00  0.440882914E+00
     4
 # iter = 31500  time[fs]=31.50000
   C -0.184184273E+01 -0.202725478E-01  0.197178398E-01
   C  0.164551943E+01 -0.919342906E-01 -0.475844197E-01
   H -0.977865427E+01 -0.228281339E+00  0.558303084E+00
   H  0.940752690E+01  0.775775139E+00  0.456328884E+00
     4
 # iter = 32000  time[fs]=32.00000
   C -0.191743366E+01 -0.201714323E-01  0.202159214E-01
   C  0.171291125E+01 -0.958605521E-01 -0.493437200E-01
   H -0.101325100E+02 -0.236606119E+00  0.578686046E+00
   H  0.973970507E+01  0.803952641E+00  0.473711064E+00
     4
 # iter = 32500  time[fs]=32.50000
   C -0.199394099E+01 -0.198583045E-01  0.209207850E-01
   C  0.178161643E+01 -0.996049781E-01 -0.509185663E-01
   H -0.104860983E+02 -0.243840569E+00  0.600228473E+00
   H  0.100738624E+02  0.833323836E+00  0.492249143E+00
     4
 # iter = 33000  time[fs]=33.00000
   C -0.207155330E+01 -0.196069292E-01  0.215585844E-01
   C  0.185124861E+01 -0.103468512E+00 -0.526096564E-01
   H -0.108409658E+02 -0.251585256E+00  0.621325400E+00
   H  0.104083396E+02  0.862280384E+00  0.510337214E+00
     4
 # iter = 33500  time[fs]=33.50000
   C -0.215027471E+01 -0.194983385E-01  0.220482655E-01
   C  0.192164368E+01 -0.107538110E+00 -0.545037762E-01
   H -0.111975313E+02 -0.260307749E+00  0.641505264E+00
   H  0.107426168E+02  0.890348506E+00  0.527503702E+00
     4
 # iter = 34000  time[fs]=34.00000
   C -0.222992066E+01 -0.194175190E-01  0.225048649E-01
   C  0.199286259E+01 -0.111683047E+00 -0.564700862E-01
   H -0.115550653E+02 -0.269323110E+00  0.661449356E+00
   H  0.110773325E+02  0.918208443E+00  0.544430844E+00
     4
 # iter = 34500  time[fs]=34.50000
   C -0.231031561E+01 -0.192519530E-01  0.230409584E-01
   C  0.206496987E+01 -0.115775593E+00 -0.583807874E-01
   H -0.119128576E+02 -0.277961742E+00  0.681823948E+00
   H  0.114131138E+02  0.946525544E+00  0.561785807E+00
     4
 # iter = 35000  time[fs]=35.00000
   C -0.239140524E+01 -0.190045150E-01  0.236537540E-01
   C  0.213790738E+01 -0.119816488E+00 -0.602365890E-01
   H -0.122708811E+02 -0.286233434E+00  0.702616208E+00
   H  0.117499116E+02  0.975285583E+00  0.579556029E+00
     4
 # iter = 35500  time[fs]=35.50000
   C -0.247320342E+01 -0.187411054E-01  0.242774525E-01
   C  0.221155197E+01 -0.123876717E+00 -0.621084723E-01
   H -0.126294828E+02 -0.294519257E+00  0.723442280E+00
   H  0.120873084E+02  0.100410309E+01  0.597357574E+00
     4
 # iter = 36000  time[fs]=36.00000
   C -0.255569899E+01 -0.184979459E-01  0.248759467E-01
   C  0.228581797E+01 -0.127994443E+00 -0.640346183E-01
   H -0.129888388E+02 -0.303026183E+00  0.744092630E+00
   H  0.124250637E+02  0.103276718E+01  0.614980947E+00
     4
 # iter = 36500  time[fs]=36.50000
   C -0.263883405E+01 -0.182603862E-01  0.254640107E-01
   C  0.236068022E+01 -0.132151437E+00 -0.659968316E-01
   H -0.133488285E+02 -0.311662381E+00  0.764656727E+00
   H  0.127632390E+02  0.106136628E+01  0.632515894E+00
     4
 # iter = 37000  time[fs]=37.00000
   C -0.272254266E+01 -0.180020293E-01  0.260681711E-01
   C  0.243613022E+01 -0.136316552E+00 -0.679640146E-01
   H -0.137092651E+02 -0.320267337E+00  0.785292901E+00
   H  0.131019665E+02  0.109005787E+01  0.650121061E+00
     4
 # iter = 37500  time[fs]=37.50000
   C -0.280678263E+01 -0.177168773E-01  0.266945588E-01
   C  0.251214000E+01 -0.140481452E+00 -0.699278862E-01
   H -0.140700840E+02 -0.328800922E+00  0.806039264E+00
   H  0.134412604E+02  0.111887913E+01  0.667834753E+00
     4
 # iter = 38000  time[fs]=38.00000
   C -0.289153158E+01 -0.174157963E-01  0.273324426E-01
   C  0.258866572E+01 -0.144656664E+00 -0.718990378E-01
   H -0.144313220E+02 -0.337322552E+00  0.826834524E+00
   H  0.137810368E+02  0.114776785E+01  0.685595772E+00
     4
 # iter = 38500  time[fs]=38.50000
   C -0.297676837E+01 -0.171081785E-01  0.279725643E-01
   C  0.266566776E+01 -0.148851187E+00 -0.738865373E-01
   H -0.147930094E+02 -0.345883296E+00  0.847625874E+00
   H  0.141212222E+02  0.117667034E+01  0.703351396E+00
     4
 # iter = 39000  time[fs]=39.00000
   C -0.306246511E+01 -0.167942477E-01  0.286148334E-01
   C  0.274311902E+01 -0.153063928E+00 -0.758893644E-01
   H -0.151551239E+02 -0.354480575E+00  0.868414273E+00
   H  0.144617982E+02  0.120558681E+01  0.721102703E+00
     4
 # iter = 39500  time[fs]=39.50000
   C -0.314859204E+01 -0.164701648E-01  0.292632204E-01
   C  0.282099901E+01 -0.157289372E+00 -0.779020767E-01
   H -0.155176213E+02 -0.363088179E+00  0.889224421E+00
   H  0.148027714E+02  0.123454126E+01  0.738874522E+00
     4
 # iter = 40000  time[fs]=40.00000
   C -0.323512361E+01 -0.161343387E-01  0.299194446E-01
   C  0.289928666E+01 -0.161524584E+00 -0.799218162E-01
   H -0.158804720E+02 -0.371693368E+00  0.910067647E+00
   H  0.151441365E+02  0.126354435E+01  0.756678291E+00
     4
 # iter = 40500  time[fs]=40.50000
   C -0.332203908E+01 -0.157881788E-01  0.305822221E-01
   C  0.297795928E+01 -0.165770046E+00 -0.819491383E-01
   H -0.162436652E+02 -0.380301276E+00  0.930937499E+00
   H  0.154858712E+02  0.129258900E+01  0.774507640E+00
     4
 # iter = 41000  time[fs]=41.00000
   C -0.340931977E+01 -0.154335408E-01  0.312498189E-01
   C  0.305699524E+01 -0.170026804E+00 -0.839851655E-01
   H -0.166071943E+02 -0.388919871E+00  0.951824772E+00
   H  0.158279516E+02  0.132166539E+01  0.792353440E+00
     4
 # iter = 41500  time[fs]=41.50000
   C -0.349694734E+01 -0.150711301E-01  0.319216475E-01
   C  0.313637559E+01 -0.174294693E+00 -0.860298064E-01
   H -0.169710467E+02 -0.397550543E+00  0.972726919E+00
   H  0.161703614E+02  0.135077043E+01  0.810213212E+00
     4
 # iter = 42000  time[fs]=42.00000
   C -0.358490401E+01 -0.147008640E-01  0.325979050E-01
   C  0.321608357E+01 -0.178572731E+00 -0.880821526E-01
   H -0.173352064E+02 -0.406190222E+00  0.993645921E+00
   H  0.165130895E+02  0.137990556E+01  0.828089009E+00
     4
 # iter = 42500  time[fs]=42.50000
   C -0.367317329E+01 -0.143227478E-01  0.332786964E-01
   C  0.329610350E+01 -0.182860090E+00 -0.901414478E-01
   H -0.176996589E+02 -0.414836515E+00  0.101458315E+01
   H  0.168561253E+02  0.140907166E+01  0.845982263E+00
     4
 # iter = 43000  time[fs]=43.00000
   C -0.376174019E+01 -0.139371398E-01  0.339637698E-01
   C  0.337642035E+01 -0.187156388E+00 -0.922073779E-01
   H -0.180643925E+02 -0.423489256E+00  0.103553780E+01
   H  0.171994564E+02  0.143826746E+01  0.863892232E+00
     4
 # iter = 43500  time[fs]=43.50000
   C -0.385059086E+01 -0.135445104E-01  0.346527571E-01
   C  0.345701999E+01 -0.191461410E+00 -0.942797990E-01
   H -0.184293971E+02 -0.432149077E+00  0.105650833E+01
   H  0.175430704E+02  0.146749098E+01  0.881817428E+00
     4
 # iter = 44000  time[fs]=44.00000
   C -0.393971227E+01 -0.131452221E-01  0.353453948E-01
   C  0.353788927E+01 -0.195774871E+00 -0.963584891E-01
   H -0.187946626E+02 -0.440816100E+00  0.107749378E+01
   H  0.178869564E+02  0.149674082E+01  0.899756917E+00
     4
 # iter = 44500  time[fs]=44.50000
   C -0.402909214E+01 -0.127395250E-01  0.360415274E-01
   C  0.361901601E+01 -0.200096396E+00 -0.984431401E-01
   H -0.191601790E+02 -0.449489905E+00  0.109849373E+01
   H  0.182311041E+02  0.152601619E+01  0.917710352E+00
     4
 # iter = 45000  time[fs]=45.00000
   C -0.411871898E+01 -0.123276438E-01  0.367410216E-01
   C  0.370038882E+01 -0.204425623E+00 -0.100533451E+00
   H -0.195259368E+02 -0.458170031E+00  0.111950790E+01
   H  0.185755043E+02  0.155531640E+01  0.935677470E+00
     4
 # iter = 45500  time[fs]=45.50000
   C -0.420858202E+01 -0.119098202E-01  0.374437234E-01
   C  0.378199698E+01 -0.208762243E+00 -0.102629173E+00
   H -0.198919272E+02 -0.466856218E+00  0.114053581E+01
   H  0.189201479E+02  0.158464064E+01  0.953657841E+00
     4
 # iter = 46000  time[fs]=46.00000
   C -0.429867117E+01 -0.114862994E-01  0.381494718E-01
   C  0.386383040E+01 -0.213105983E+00 -0.104730091E+00
   H -0.202581419E+02 -0.475548321E+00  0.116157691E+01
   H  0.192650261E+02  0.161398801E+01  0.971650956E+00
     4
 # iter = 46500  time[fs]=46.50000
   C -0.438897697E+01 -0.110573102E-01  0.388581189E-01
   C  0.394587962E+01 -0.217456582E+00 -0.106836001E+00
   H -0.206245731E+02 -0.484246185E+00  0.118263072E+01
   H  0.196101309E+02  0.164335769E+01  0.989656350E+00
     4
 # iter = 47000  time[fs]=47.00000
   C -0.447949048E+01 -0.106230610E-01  0.395695341E-01
   C  0.402813574E+01 -0.221813784E+00 -0.108946701E+00
   H -0.209912133E+02 -0.492949619E+00  0.120369681E+01
   H  0.199554543E+02  0.167274896E+01  0.100767362E+01
     4
 # iter = 47500  time[fs]=47.50000
   C -0.457020329E+01 -0.101837470E-01  0.402835969E-01
   C  0.411059037E+01 -0.226177345E+00 -0.111061998E+00
   H -0.213580554E+02 -0.501658426E+00  0.122477477E+01
   H  0.203009891E+02  0.170216112E+01  0.102570241E+01
     4
 # iter = 48000  time[fs]=48.00000
   C -0.466110749E+01 -0.973955425E-02  0.410001930E-01
   C  0.419323561E+01 -0.230547034E+00 -0.113181714E+00
   H -0.217250925E+02 -0.510372428E+00  0.124586424E+01
   H  0.206467283E+02  0.173159351E+01  0.104374236E+01
     4
 # iter = 48500  time[fs]=48.50000
   C -0.475219560E+01 -0.929066072E-02  0.417192133E-01
   C  0.427606401E+01 -0.234922636E+00 -0.115305680E+00
   H -0.220923184E+02 -0.519091465E+00  0.126696482E+01
   H  0.209926652E+02  0.176104549E+01  0.106179312E+01
     4
 # iter = 49000  time[fs]=49.00000
   C -0.484346054E+01 -0.883723527E-02  0.424405552E-01
   C  0.435906853E+01 -0.239303945E+00 -0.117433739E+00
   H -0.224597269E+02 -0.527815384E+00  0.128807618E+01
   H  0.213387934E+02  0.179051645E+01  0.107985434E+01
     4
 # iter = 49500  time[fs]=49.50000
   C -0.493489565E+01 -0.837943769E-02  0.431641224E-01
   C  0.444224250E+01 -0.243690765E+00 -0.119565739E+00
   H -0.228273122E+02 -0.536544039E+00  0.130919797E+01
   H  0.216851069E+02  0.182000580E+01  0.109792573E+01
     4
 # iter = 50000  time[fs]=50.00000
   C -0.502649461E+01 -0.791741955E-02  0.438898246E-01
   C  0.452557962E+01 -0.248082910E+00 -0.121701539E+00
   H -0.231950688E+02 -0.545277286E+00  0.133032987E+01
   H  0.220316000E+02  0.184951301E+01  0.111600697E+01
     4
 # iter = 50500  time[fs]=50.50000
   C -0.511825142E+01 -0.745132497E-02  0.446175765E-01
   C  0.460907394E+01 -0.252480204E+00 -0.123841002E+00
   H -0.235629913E+02 -0.554014990E+00  0.135147158E+01
   H  0.223782671E+02  0.187903753E+01  0.113409778E+01
     4
 # iter = 51000  time[fs]=51.00000
   C -0.521016043E+01 -0.698129113E-02  0.453472972E-01
   C  0.469271978E+01 -0.256882477E+00 -0.125984002E+00
   H -0.239310747E+02 -0.562757020E+00  0.137262280E+01
   H  0.227251030E+02  0.190857886E+01  0.115219789E+01
     4
 # iter = 51500  time[fs]=51.50000
   C -0.530221623E+01 -0.650744863E-02  0.460789107E-01
   C  0.477651178E+01 -0.261289569E+00 -0.128130416E+00
   H -0.242993143E+02 -0.571503254E+00  0.139378326E+01
   H  0.230721027E+02  0.193813652E+01  0.117030702E+01
     4
 # iter = 52000  time[fs]=52.00000
   C -0.539441372E+01 -0.602992186E-02  0.468123448E-01
   C  0.486044486E+01 -0.265701327E+00 -0.130280129E+00
   H -0.246677053E+02 -0.580253573E+00  0.141495268E+01
   H  0.234192613E+02  0.196771005E+01  0.118842493E+01
     4
 # iter = 52500  time[fs]=52.50000
   C -0.548674805E+01 -0.554882939E-02  0.475475312E-01
   C  0.494451416E+01 -0.270117604E+00 -0.132433032E+00
   H -0.250362434E+02 -0.589007862E+00  0.143613082E+01
   H  0.237665743E+02  0.199729899E+01  0.120655137E+01
     4
 # iter = 53000  time[fs]=53.00000
   C -0.557921459E+01 -0.506428429E-02  0.482844053E-01
   C  0.502871508E+01 -0.274538263E+00 -0.134589019E+00
   H -0.254049244E+02 -0.597766014E+00  0.145731742E+01
   H  0.241140372E+02  0.202690293E+01  0.122468611E+01
     4
 # iter = 53500  time[fs]=53.50000
   C -0.567180895E+01 -0.457639453E-02  0.490229057E-01
   C  0.511304324E+01 -0.278963168E+00 -0.136747992E+00
   H -0.257737442E+02 -0.606527923E+00  0.147851225E+01
   H  0.244616459E+02  0.205652146E+01  0.124282892E+01
     4
 # iter = 54000  time[fs]=54.00000
   C -0.576452694E+01 -0.408526321E-02  0.497629743E-01
   C  0.519749447E+01 -0.283392193E+00 -0.138909855E+00
   H -0.261426989E+02 -0.615293489E+00  0.149971508E+01
   H  0.248093964E+02  0.208615419E+01  0.126097960E+01
     4
 # iter = 54500  time[fs]=54.50000
   C -0.585736458E+01 -0.359098885E-02  0.505045559E-01
   C  0.528206480E+01 -0.287825216E+00 -0.141074517E+00
   H -0.265117849E+02 -0.624062616E+00  0.152092570E+01
   H  0.251572846E+02  0.211580073E+01  0.127913793E+01
     4
 # iter = 55000  time[fs]=55.00000
   C -0.595031804E+01 -0.309366569E-02  0.512475977E-01
   C  0.536675042E+01 -0.292262120E+00 -0.143241894E+00
   H -0.268809986E+02 -0.632835212E+00  0.154214391E+01
   H  0.255053070E+02  0.214546073E+01  0.129730372E+01
     4
 # iter = 55500  time[fs]=55.50000
   C -0.604338372E+01 -0.259338388E-02  0.519920500E-01
   C  0.545154772E+01 -0.296702794E+00 -0.145411902E+00
   H -0.272503365E+02 -0.641611186E+00  0.156336950E+01
   H  0.258534599E+02  0.217513384E+01  0.131547678E+01
     4
 # iter = 56000  time[fs]=56.00000
   C -0.613655813E+01 -0.209022973E-02  0.527378652E-01
   C  0.553645324E+01 -0.301147130E+00 -0.147584462E+00
   H -0.276197953E+02 -0.650390454E+00  0.158460227E+01
   H  0.262017399E+02  0.220481973E+01  0.133365693E+01
     4
 # iter = 56500  time[fs]=56.50000
   C -0.622983796E+01 -0.158428593E-02  0.534849978E-01
   C  0.562146368E+01 -0.305595027E+00 -0.149759499E+00
   H -0.279893720E+02 -0.659172933E+00  0.160584205E+01
   H  0.265501438E+02  0.223451807E+01  0.135184398E+01
     4
 # iter = 57000  time[fs]=57.00000
   C -0.632322005E+01 -0.107563174E-02  0.542334049E-01
   C  0.570657589E+01 -0.310046385E+00 -0.151936941E+00
   H -0.283590634E+02 -0.667958543E+00  0.162708866E+01
   H  0.268986683E+02  0.226422856E+01  0.137003777E+01
     4
 # iter = 57500  time[fs]=57.50000
   C -0.641670135E+01 -0.564343139E-03  0.549830452E-01
   C  0.579178685E+01 -0.314501110E+00 -0.154116719E+00
   H -0.287288667E+02 -0.676747210E+00  0.164834193E+01
   H  0.272473104E+02  0.229395090E+01  0.138823813E+01
     4
 # iter = 58000  time[fs]=58.00000
   C -0.651027898E+01 -0.504930575E-04  0.557338793E-01
   C  0.587709365E+01 -0.318959112E+00 -0.156298767E+00
   H -0.290987790E+02 -0.685538857E+00  0.166960169E+01
   H  0.275960671E+02  0.232368480E+01  0.140644491E+01
     4
 # iter = 58500  time[fs]=58.50000
   C -0.660395015E+01  0.465848507E-03  0.564858698E-01
   C  0.596249353E+01 -0.323420302E+00 -0.158483021E+00
   H -0.294687976E+02 -0.694333416E+00  0.169086779E+01
   H  0.279449357E+02  0.235342998E+01  0.142465796E+01
     4
 # iter = 59000  time[fs]=59.00000
   C -0.669771219E+01  0.984614323E-03  0.572389809E-01
   C  0.604798385E+01 -0.327884599E+00 -0.160669421E+00
   H -0.298389200E+02 -0.703130816E+00  0.171214007E+01
   H  0.282939133E+02  0.238318618E+01  0.144287712E+01
     4
 # iter = 59500  time[fs]=59.50000
   C -0.679156255E+01  0.150573979E-02  0.579931782E-01
   C  0.613356204E+01 -0.332351920E+00 -0.162857907E+00
   H -0.302091436E+02 -0.711930993E+00  0.173341838E+01
   H  0.286429975E+02  0.241295313E+01  0.146110226E+01
     4
 # iter = 60000  time[fs]=60.00000
   C -0.688549878E+01  0.202916278E-02  0.587484289E-01
   C  0.621922568E+01 -0.336822188E+00 -0.165048425E+00
   H -0.305794659E+02 -0.720733882E+00  0.175470259E+01
   H  0.289921855E+02  0.244273060E+01  0.147933324E+01
     4
 # iter = 60500  time[fs]=60.50000
   C -0.697951853E+01  0.255482357E-02  0.595047017E-01
   C  0.630497242E+01 -0.341295330E+00 -0.167240921E+00
   H -0.309498847E+02 -0.729539421E+00  0.177599255E+01
   H  0.293414750E+02  0.247251834E+01  0.149756993E+01
     4
 # iter = 61000  time[fs]=61.00000
   C -0.707361954E+01  0.308266467E-02  0.602619664E-01
   C  0.639080000E+01 -0.345771272E+00 -0.169435341E+00
   H -0.313203977E+02 -0.738347551E+00  0.179728814E+01
   H  0.296908637E+02  0.250231612E+01  0.151581220E+01
     4
 # iter = 61500  time[fs]=61.50000
   C -0.716779963E+01  0.361263073E-02  0.610201943E-01
   C  0.647670626E+01 -0.350249946E+00 -0.171631638E+00
   H -0.316910027E+02 -0.747158215E+00  0.181858922E+01
   H  0.300403492E+02  0.253212371E+01  0.153405992E+01
     4
 # iter = 62000  time[fs]=62.00000
   C -0.726205672E+01  0.414466845E-02  0.617793577E-01
   C  0.656268913E+01 -0.354731284E+00 -0.173829763E+00
   H -0.320616977E+02 -0.755971356E+00  0.183989568E+01
   H  0.303899293E+02  0.256194089E+01  0.155231298E+01
     4
 # iter = 62500  time[fs]=62.50000
   C -0.735638880E+01  0.467872646E-02  0.625394301E-01
   C  0.664874661E+01 -0.359215224E+00 -0.176029669E+00
   H -0.324324805E+02 -0.764786921E+00  0.186120739E+01
   H  0.307396020E+02  0.259176747E+01  0.157057126E+01
     4
 # iter = 63000  time[fs]=63.00000
   C -0.745079394E+01  0.521475525E-02  0.633003862E-01
   C  0.673487676E+01 -0.363701701E+00 -0.178231313E+00
   H -0.328033492E+02 -0.773604858E+00  0.188252423E+01
   H  0.310893651E+02  0.262160322E+01  0.158883464E+01
     4
 # iter = 63500  time[fs]=63.50000
   C -0.754527028E+01  0.575270707E-02  0.640622014E-01
   C  0.682107775E+01 -0.368190658E+00 -0.180434652E+00
   H -0.331743019E+02 -0.782425117E+00  0.190384610E+01
   H  0.314392166E+02  0.265144797E+01  0.160710303E+01
     4
 # iter = 64000  time[fs]=64.00000
   C -0.763981603E+01  0.629253587E-02  0.648248524E-01
   C  0.690734778E+01 -0.372682035E+00 -0.182639644E+00
   H -0.335453368E+02 -0.791247647E+00  0.192517289E+01
   H  0.317891547E+02  0.268130151E+01  0.162537632E+01
     4
 # iter = 64500  time[fs]=64.50000
   C -0.773442947E+01  0.683419718E-02  0.655883165E-01
   C  0.699368514E+01 -0.377175777E+00 -0.184846250E+00
   H -0.339164521E+02 -0.800072403E+00  0.194650450E+01
   H  0.321391775E+02  0.271116367E+01  0.164365440E+01
     4
 # iter = 65000  time[fs]=65.00000
   C -0.782910892E+01  0.737764807E-02  0.663525722E-01
   C  0.708008816E+01 -0.381671830E+00 -0.187054431E+00
   H -0.342876461E+02 -0.808899338E+00  0.196784081E+01
   H  0.324892831E+02  0.274103426E+01  0.166193717E+01
     4
 # iter = 65500  time[fs]=65.50000
   C -0.792385278E+01  0.792284709E-02  0.671175984E-01
   C  0.716655526E+01 -0.386170141E+00 -0.189264151E+00
   H -0.346589171E+02 -0.817728408E+00  0.198918174E+01
   H  0.328394698E+02  0.277091311E+01  0.168022455E+01
     4
 # iter = 66000  time[fs]=66.00000
   C -0.801865952E+01  0.846975417E-02  0.678833753E-01
   C  0.725308490E+01 -0.390670661E+00 -0.191475374E+00
   H -0.350302635E+02 -0.826559570E+00  0.201052719E+01
   H  0.331897360E+02  0.280080006E+01  0.169851643E+01
     4
 # iter = 66500  time[fs]=66.50000
   C -0.811352763E+01  0.901833060E-02  0.686498833E-01
   C  0.733967558E+01 -0.395173340E+00 -0.193688064E+00
   H -0.354016837E+02 -0.835392781E+00  0.203187706E+01
   H  0.335400799E+02  0.283069494E+01  0.171681273E+01
     4
 # iter = 67000  time[fs]=67.00000
   C -0.820845567E+01  0.956853892E-02  0.694171040E-01
   C  0.742632586E+01 -0.399678132E+00 -0.195902190E+00
   H -0.357731763E+02 -0.844228002E+00  0.205323127E+01
   H  0.338905001E+02  0.286059759E+01  0.173511336E+01
     4
 # iter = 67500  time[fs]=67.50000
   C -0.830344225E+01  0.101203429E-01  0.701850194E-01
   C  0.751303437E+01 -0.404184990E+00 -0.198117718E+00
   H -0.361447396E+02 -0.853065192E+00  0.207458973E+01
   H  0.342409948E+02  0.289050786E+01  0.175341824E+01
     4
 # iter = 68000  time[fs]=68.00000
   C -0.839848602E+01  0.106737076E-01  0.709536122E-01
   C  0.759979976E+01 -0.408693870E+00 -0.200334618E+00
   H -0.365163724E+02 -0.861904314E+00  0.209595235E+01
   H  0.345915628E+02  0.292042560E+01  0.177172728E+01
     4
 # iter = 68500  time[fs]=68.50000
   C -0.849358569E+01  0.112285990E-01  0.717228657E-01
   C  0.768662074E+01 -0.413204730E+00 -0.202552860E+00
   H -0.368880733E+02 -0.870745331E+00  0.211731906E+01
   H  0.349422024E+02  0.295035068E+01  0.179004040E+01
     4
 # iter = 69000  time[fs]=69.00000
   C -0.858873999E+01  0.117849842E-01  0.724927638E-01
   C  0.777349605E+01 -0.417717528E+00 -0.204772413E+00
   H -0.372598408E+02 -0.879588206E+00  0.213868978E+01
   H  0.352929123E+02  0.298028293E+01  0.180835753E+01
     4
 # iter = 69500  time[fs]=69.50000
   C -0.868394771E+01  0.123428315E-01  0.732632909E-01
   C  0.786042449E+01 -0.422232223E+00 -0.206993250E+00
   H -0.376316737E+02 -0.888432905E+00  0.216006442E+01
   H  0.356436912E+02  0.301022224E+01  0.182667859E+01
     4
 # iter = 70000  time[fs]=70.00000
   C -0.877920768E+01  0.129021101E-01  0.740344322E-01
   C  0.794740488E+01 -0.426748777E+00 -0.209215344E+00
   H -0.380035707E+02 -0.897279393E+00  0.218144291E+01
   H  0.359945376E+02  0.304016847E+01  0.184500351E+01
     4
 # iter = 70500  time[fs]=70.50000
   C -0.887451874E+01  0.134627900E-01  0.748061731E-01
   C  0.803443609E+01 -0.431267152E+00 -0.211438669E+00
   H -0.383755306E+02 -0.906127637E+00  0.220282519E+01
   H  0.363454504E+02  0.307012149E+01  0.186333221E+01
     4
 # iter = 71000  time[fs]=71.00000
   C -0.896987981E+01  0.140248423E-01  0.755784996E-01
   C  0.812151702E+01 -0.435787311E+00 -0.213663197E+00
   H -0.387475522E+02 -0.914977606E+00  0.222421117E+01
   H  0.366964282E+02  0.310008117E+01  0.188166464E+01
     4
 # iter = 71500  time[fs]=71.50000
   C -0.906528980E+01  0.145882390E-01  0.763513982E-01
   C  0.820864661E+01 -0.440309219E+00 -0.215888906E+00
   H -0.391196344E+02 -0.923829267E+00  0.224560080E+01
   H  0.370474698E+02  0.313004739E+01  0.190000071E+01
     4
 # iter = 72000  time[fs]=72.00000
   C -0.916074769E+01  0.151529528E-01  0.771248558E-01
   C  0.829582382E+01 -0.444832840E+00 -0.218115770E+00
   H -0.394917760E+02 -0.932682591E+00  0.226699399E+01
   H  0.373985741E+02  0.316002004E+01  0.191834036E+01
     4
 # iter = 72500  time[fs]=72.50000
   C -0.925625248E+01  0.157189572E-01  0.778988598E-01
   C  0.838304766E+01 -0.449358142E+00 -0.220343766E+00
   H -0.398639758E+02 -0.941537547E+00  0.228839070E+01
   H  0.377497398E+02  0.318999900E+01  0.193668354E+01
     4
 # iter = 73000  time[fs]=73.00000
   C -0.935180318E+01  0.162862266E-01  0.786733979E-01
   C  0.847031716E+01 -0.453885092E+00 -0.222572871E+00
   H -0.402362329E+02 -0.950394106E+00  0.230979085E+01
   H  0.381009660E+02  0.321998416E+01  0.195503018E+01
     4
 # iter = 73500  time[fs]=73.50000
   C -0.944739887E+01  0.168547361E-01  0.794484583E-01
   C  0.855763138E+01 -0.458413658E+00 -0.224803064E+00
   H -0.406085463E+02 -0.959252242E+00  0.233119439E+01
   H  0.384522514E+02  0.324997540E+01  0.197338021E+01
     4
 # iter = 74000  time[fs]=74.00000
   C -0.954303861E+01  0.174244614E-01  0.802240295E-01
   C  0.864498941E+01 -0.462943809E+00 -0.227034323E+00
   H -0.409809148E+02 -0.968111926E+00  0.235260125E+01
   H  0.388035950E+02  0.327997262E+01  0.199173358E+01
     4
 # iter = 74500  time[fs]=74.50000
   C -0.963872153E+01  0.179953792E-01  0.810001004E-01
   C  0.873239037E+01 -0.467475515E+00 -0.229266627E+00
   H -0.413533375E+02 -0.976973131E+00  0.237401138E+01
   H  0.391549958E+02  0.330997572E+01  0.201009023E+01
     4
 # iter = 75000  time[fs]=75.00000
   C -0.973444677E+01  0.185674666E-01  0.817766602E-01
   C  0.881983340E+01 -0.472008748E+00 -0.231499956E+00
   H -0.417258135E+02 -0.985835832E+00  0.239542471E+01
   H  0.395064528E+02  0.333998460E+01  0.202845011E+01
     4
 # iter = 75500  time[fs]=75.50000
   C -0.983021348E+01  0.191407013E-01  0.825536986E-01
   C  0.890731767E+01 -0.476543479E+00 -0.233734291E+00
   H -0.420983418E+02 -0.994700003E+00  0.241684120E+01
   H  0.398579649E+02  0.336999916E+01  0.204681316E+01
     4
 # iter = 76000  time[fs]=76.00000
   C -0.992602085E+01  0.197150618E-01  0.833312054E-01
   C  0.899484237E+01 -0.481079680E+00 -0.235969612E+00
   H -0.424709215E+02 -0.100356562E+01  0.243826079E+01
   H  0.402095313E+02  0.340001930E+01  0.206517933E+01
     4
 # iter = 76500  time[fs]=76.50000
   C -0.100218681E+02  0.202905270E-01  0.841091708E-01
   C  0.908240671E+01 -0.485617325E+00 -0.238205902E+00
   H -0.428435517E+02 -0.101243266E+01  0.245968342E+01
   H  0.405611510E+02  0.343004493E+01  0.208354856E+01
     4
 # iter = 77000  time[fs]=77.00000
   C -0.101177545E+02  0.208670767E-01  0.848875853E-01
   C  0.917000993E+01 -0.490156388E+00 -0.240443141E+00
   H -0.432162316E+02 -0.102130109E+01  0.248110905E+01
   H  0.409128231E+02  0.346007596E+01  0.210192081E+01
     4
 # iter = 77500  time[fs]=77.50000
   C -0.102136792E+02  0.214446910E-01  0.856664398E-01
   C  0.925765129E+01 -0.494696843E+00 -0.242681313E+00
   H -0.435889603E+02 -0.103017090E+01  0.250253763E+01
   H  0.412645468E+02  0.349011229E+01  0.212029603E+01
     4
 # iter = 78000  time[fs]=78.00000
   C -0.103096416E+02  0.220233505E-01  0.864457251E-01
   C  0.934533007E+01 -0.499238666E+00 -0.244920401E+00
   H -0.439617370E+02 -0.103904207E+01  0.252396910E+01
   H  0.416163211E+02  0.352015385E+01  0.213867416E+01
     4
 # iter = 78500  time[fs]=78.50000
   C -0.104056409E+02  0.226030364E-01  0.872254328E-01
   C  0.943304557E+01 -0.503781833E+00 -0.247160387E+00
   H -0.443345609E+02 -0.104791456E+01  0.254540343E+01
   H  0.419681452E+02  0.355020055E+01  0.215705516E+01
     4
 # iter = 79000  time[fs]=79.00000
   C -0.105016764E+02  0.231837304E-01  0.880055542E-01
   C  0.952079711E+01 -0.508326320E+00 -0.249401257E+00
   H -0.447074313E+02 -0.105678837E+01  0.256684055E+01
   H  0.423200182E+02  0.358025230E+01  0.217543899E+01
     4
 # iter = 79500  time[fs]=79.50000
   C -0.105977476E+02  0.237654147E-01  0.887860814E-01
   C  0.960858402E+01 -0.512872104E+00 -0.251642993E+00
   H -0.450803473E+02 -0.106566346E+01  0.258828043E+01
   H  0.426719395E+02  0.361030903E+01  0.219382560E+01
     4
 # iter = 80000  time[fs]=80.00000
   C -0.106938536E+02  0.243480719E-01  0.895670061E-01
   C  0.969640566E+01 -0.517419164E+00 -0.253885581E+00
   H -0.454533082E+02 -0.107453983E+01  0.260972303E+01
   H  0.430239082E+02  0.364037065E+01  0.221221495E+01
