     4
 # iter = 25000  time[fs]=25.00000
   C -0.103590617E+01  0.212997156E-01  0.101184225E-02
   C  0.952859255E+00  0.458480256E-01 -0.133230435E-01
   H -0.528886579E+01 -0.274960977E+00 -0.690668752E+00
   H  0.526356805E+01 -0.394899459E+00  0.574342779E+00
     4
 # iter = 25500  time[fs]=25.50000
   C -0.108704245E+01  0.215868501E-01  0.263644287E-02
   C  0.992580466E+00  0.476220936E-01 -0.169496503E-01
   H -0.563032462E+01 -0.300291545E+00 -0.741912766E+00
   H  0.556863692E+01 -0.426181134E+00  0.602686468E+00
     4
 # iter = 26000  time[fs]=26.00000
   C -0.114346097E+01  0.210478527E-01  0.353725273E-02
   C  0.103562555E+01  0.482932500E-01 -0.218071850E-01
   H -0.597983996E+01 -0.331176972E+00 -0.798940882E+00
   H  0.587093334E+01 -0.463088857E+00  0.625941455E+00
     4
 # iter = 26500  time[fs]=26.50000
   C -0.120243253E+01  0.220175953E-01  0.604890021E-02
   C  0.108509941E+01  0.513605470E-01 -0.243939945E-01
   H -0.632101711E+01 -0.351512487E+00 -0.845621956E+00
   H  0.618628342E+01 -0.489504243E+00  0.660171460E+00
     4
 # iter = 27000  time[fs]=27.00000
   C -0.126346395E+01  0.246137446E-01  0.102871007E-01
   C  0.114079672E+01  0.569922084E-01 -0.245376624E-01
   H -0.665281155E+01 -0.360488008E+00 -0.881124676E+00
   H  0.651524529E+01 -0.504611195E+00  0.706144457E+00
     4
 # iter = 27500  time[fs]=27.50000
   C -0.132793737E+01  0.271031651E-01  0.145155187E-01
   C  0.119975748E+01  0.625760254E-01 -0.248450745E-01
   H -0.698698979E+01 -0.370061135E+00 -0.917389407E+00
   H  0.684563173E+01 -0.520367748E+00  0.751859701E+00
     4
 # iter = 28000  time[fs]=28.00000
   C -0.139675867E+01  0.282602881E-01  0.175045536E-01
   C  0.125981529E+01  0.662626388E-01 -0.271597444E-01
   H -0.733184569E+01 -0.388690589E+00 -0.962860037E+00
   H  0.716878769E+01 -0.545232082E+00  0.788822413E+00
     4
 # iter = 28500  time[fs]=28.50000
   C -0.146914298E+01  0.285834567E-01  0.197480301E-01
   C  0.132142648E+01  0.687934294E-01 -0.307343215E-01
   H -0.768379984E+01 -0.412944853E+00 -0.101409176E+01
   H  0.748798442E+01 -0.575767088E+00  0.820438993E+00
     4
 # iter = 29000  time[fs]=29.00000
   C -0.154361470E+01  0.292919379E-01  0.224604602E-01
   C  0.138616075E+01  0.719934873E-01 -0.337377555E-01
   H -0.803431708E+01 -0.434420184E+00 -0.106266901E+01
   H  0.781149083E+01 -0.603561573E+00  0.855094355E+00
     4
 # iter = 29500  time[fs]=29.50000
   C -0.161952118E+01  0.308082488E-01  0.260595420E-01
   C  0.145441699E+01  0.764908268E-01 -0.355361192E-01
   H -0.838037742E+01 -0.450210352E+00 -0.110567534E+01
   H  0.814209115E+01 -0.625704990E+00  0.895675704E+00
     4
 # iter = 30000  time[fs]=30.00000
   C -0.169724299E+01  0.325452484E-01  0.299533769E-01
   C  0.152510095E+01  0.813964236E-01 -0.370126577E-01
   H -0.872594274E+01 -0.464375182E+00 -0.114716178E+01
   H  0.847561235E+01 -0.646256606E+00  0.938102715E+00
     4
 # iter = 30500  time[fs]=30.50000
   C -0.177725106E+01  0.338475836E-01  0.334820082E-01
   C  0.159703852E+01  0.857193042E-01 -0.391528184E-01
   H -0.907545677E+01 -0.481444533E+00 -0.119165046E+01
   H  0.880742315E+01 -0.669746187E+00  0.977826815E+00
     4
 # iter = 31000  time[fs]=31.00000
   C -0.185938884E+01  0.347078380E-01  0.366336292E-01
   C  0.167005027E+01  0.894430142E-01 -0.419678628E-01
   H -0.942890035E+01 -0.501476750E+00 -0.123919274E+01
   H  0.913737769E+01 -0.696229953E+00  0.101477518E+01
     4
 # iter = 31500  time[fs]=31.50000
   C -0.194308011E+01  0.355563390E-01  0.398344211E-01
   C  0.174463314E+01  0.932095918E-01 -0.448109052E-01
   H -0.978324083E+01 -0.521509148E+00 -0.128681963E+01
   H  0.946836265E+01 -0.722741784E+00  0.105189920E+01
     4
 # iter = 32000  time[fs]=32.00000
   C -0.202792739E+01  0.366603740E-01  0.433477806E-01
   C  0.182105499E+01  0.974163595E-01 -0.472801002E-01
   H -0.101365776E+02 -0.539703802E+00 -0.133268754E+01
   H  0.980214717E+01 -0.747441107E+00  0.109102621E+01
     4
 # iter = 32500  time[fs]=32.50000
   C -0.211392538E+01  0.379087344E-01  0.470588655E-01
   C  0.189902873E+01  0.101891998E+00 -0.495425515E-01
   H -0.104896281E+02 -0.556834301E+00 -0.137756499E+01
   H  0.101378940E+02 -0.771100368E+00  0.113137170E+01
     4
 # iter = 33000  time[fs]=33.00000
   C -0.220120068E+01  0.390704737E-01  0.507333491E-01
   C  0.197809976E+01  0.106285552E+00 -0.519452996E-01
   H -0.108439413E+02 -0.574499978E+00 -0.142304676E+01
   H  0.104739454E+02 -0.795318314E+00  0.117132595E+01
     4
 # iter = 33500  time[fs]=33.50000
   C -0.228972660E+01  0.400787682E-01  0.543012723E-01
   C  0.205807134E+01  0.110493171E+00 -0.545885755E-01
   H -0.111999376E+02 -0.593166977E+00 -0.146959483E+01
   H  0.108097829E+02 -0.820560025E+00  0.121041392E+01
     4
 # iter = 34000  time[fs]=34.00000
   C -0.237931906E+01  0.410337607E-01  0.578598742E-01
   C  0.213900761E+01  0.114662342E+00 -0.573215516E-01
   H -0.115568888E+02 -0.612148710E+00 -0.151651883E+01
   H  0.111460463E+02 -0.846137358E+00  0.124931471E+01
     4
 # iter = 34500  time[fs]=34.50000
   C -0.246980470E+01  0.420332989E-01  0.615043167E-01
   C  0.222097785E+01  0.118937363E+00 -0.599968422E-01
   H -0.119140855E+02 -0.630774063E+00 -0.156314415E+01
   H  0.114833638E+02 -0.871377754E+00  0.128869259E+01
     4
 # iter = 35000  time[fs]=35.00000
   C -0.256111608E+01  0.430766928E-01  0.652314258E-01
   C  0.230391079E+01  0.123314618E+00 -0.626152131E-01
   H -0.122715016E+02 -0.649051639E+00 -0.160947623E+01
   H  0.118216874E+02 -0.896288818E+00  0.132853236E+01
     4
 # iter = 35500  time[fs]=35.50000
   C -0.265324619E+01  0.441093740E-01  0.689843365E-01
   C  0.238766089E+01  0.127709700E+00 -0.652584315E-01
   H -0.126294854E+02 -0.667361541E+00 -0.165589225E+01
   H  0.121606004E+02 -0.921249928E+00  0.136844765E+01
     4
 # iter = 36000  time[fs]=36.00000
   C -0.274616862E+01  0.451019469E-01  0.727315301E-01
   C  0.247212645E+01  0.132076260E+00 -0.679704100E-01
   H -0.129882138E+02 -0.685909810E+00 -0.170259558E+01
   H  0.124998632E+02 -0.946466373E+00  0.140822669E+01
     4
 # iter = 36500  time[fs]=36.50000
   C -0.283981892E+01  0.460682708E-01  0.764849014E-01
   C  0.255727611E+01  0.136433167E+00 -0.707300250E-01
   H -0.133475671E+02 -0.704603668E+00 -0.174949097E+01
   H  0.128395379E+02 -0.971844527E+00  0.144795717E+01
     4
 # iter = 37000  time[fs]=37.00000
   C -0.293412728E+01  0.470321127E-01  0.802663994E-01
   C  0.264309812E+01  0.140814351E+00 -0.735012608E-01
   H -0.137073589E+02 -0.723281706E+00 -0.179641469E+01
   H  0.131797576E+02 -0.997222154E+00  0.148779581E+01
     4
 # iter = 37500  time[fs]=37.50000
   C -0.302904546E+01  0.479997507E-01  0.840806178E-01
   C  0.272955864E+01  0.145227588E+00 -0.762744067E-01
   H -0.140675253E+02 -0.741902998E+00 -0.184332371E+01
   H  0.135205368E+02 -0.102255762E+01  0.152777911E+01
     4
 # iter = 38000  time[fs]=38.00000
   C -0.312454336E+01  0.489629960E-01  0.879178070E-01
   C  0.281660583E+01  0.149659035E+00 -0.790615117E-01
   H -0.144281039E+02 -0.760526257E+00 -0.189027477E+01
   H  0.138617924E+02 -0.104790902E+01  0.156784423E+01
     4
 # iter = 38500  time[fs]=38.50000
   C -0.322059291E+01  0.499148355E-01  0.917695049E-01
   C  0.290419298E+01  0.154096739E+00 -0.818728658E-01
   H -0.147891252E+02 -0.779201896E+00 -0.193731645E+01
   H  0.142034513E+02 -0.107332620E+01  0.160793689E+01
     4
 # iter = 39000  time[fs]=39.00000
   C -0.331716126E+01  0.508559987E-01  0.956350954E-01
   C  0.299228802E+01  0.158540495E+00 -0.847071241E-01
   H -0.151505678E+02 -0.797926713E+00 -0.198444382E+01
   H  0.145454956E+02 -0.109880539E+01  0.164805671E+01
     4
 # iter = 39500  time[fs]=39.50000
   C -0.341421477E+01  0.517906120E-01  0.995174538E-01
   C  0.308086671E+01  0.162995309E+00 -0.875578434E-01
   H -0.155123876E+02 -0.816673909E+00 -0.203162849E+01
   H  0.148879323E+02 -0.112431925E+01  0.168822719E+01
     4
 # iter = 40000  time[fs]=40.00000
   C -0.351172411E+01  0.527208241E-01  0.103417564E+00
   C  0.316990423E+01  0.167463297E+00 -0.904215640E-01
   H -0.158745554E+02 -0.835430198E+00 -0.207885569E+01
   H  0.152307564E+02 -0.114985400E+01  0.172845850E+01
     4
 # iter = 40500  time[fs]=40.50000
   C -0.360966474E+01  0.536461694E-01  0.107333876E+00
   C  0.325937406E+01  0.171942729E+00 -0.932987657E-01
   H -0.162370610E+02 -0.854200210E+00 -0.212612865E+01
   H  0.155739460E+02 -0.117541379E+01  0.176874307E+01
     4
 # iter = 41000  time[fs]=41.00000
   C -0.370801442E+01  0.545657504E-01  0.111264479E+00
   C  0.334925100E+01  0.176431299E+00 -0.961905872E-01
   H -0.165998979E+02 -0.872991444E+00 -0.217345354E+01
   H  0.159174776E+02 -0.120100571E+01  0.180907066E+01
     4
 # iter = 41500  time[fs]=41.50000
   C -0.380675174E+01  0.554796037E-01  0.115208465E+00
   C  0.343951302E+01  0.180928172E+00 -0.990967709E-01
   H -0.169630540E+02 -0.891804845E+00 -0.222083009E+01
   H  0.162613350E+02 -0.122663027E+01  0.184943775E+01
     4
 # iter = 42000  time[fs]=42.00000
   C -0.390585623E+01  0.563883947E-01  0.119165615E+00
   C  0.353014069E+01  0.185433522E+00 -0.102016123E+00
   H -0.173265135E+02 -0.910636928E+00 -0.226825365E+01
   H  0.166055076E+02 -0.125228361E+01  0.188984541E+01
     4
 # iter = 42500  time[fs]=42.50000
   C -0.400530897E+01  0.572926744E-01  0.123135654E+00
   C  0.362111588E+01  0.189947405E+00 -0.104947628E+00
   H -0.176902621E+02 -0.929484909E+00 -0.231572034E+01
   H  0.169499849E+02 -0.127796257E+01  0.193029414E+01
     4
 # iter = 43000  time[fs]=43.00000
   C -0.410509266E+01  0.581926566E-01  0.127118020E+00
   C  0.371242127E+01  0.194469424E+00 -0.107890788E+00
   H -0.180542884E+02 -0.948348254E+00 -0.236322861E+01
   H  0.172947547E+02 -0.130366627E+01  0.197078231E+01
     4
 # iter = 43500  time[fs]=43.50000
   C -0.420519133E+01  0.590884262E-01  0.131112071E+00
   C  0.380404061E+01  0.198999033E+00 -0.110845306E+00
   H -0.184185825E+02 -0.967227248E+00 -0.241077776E+01
   H  0.176398049E+02 -0.132939466E+01  0.201130761E+01
     4
 # iter = 44000  time[fs]=44.00000
   C -0.430559003E+01  0.599801296E-01  0.135117273E+00
   C  0.389595883E+01  0.203535824E+00 -0.113810797E+00
   H -0.187831345E+02 -0.986121689E+00 -0.245836667E+01
   H  0.179851247E+02 -0.135514724E+01  0.205186833E+01
     4
 # iter = 44500  time[fs]=44.50000
   C -0.440627472E+01  0.608679806E-01  0.139133196E+00
   C  0.398816198E+01  0.208079529E+00 -0.116786785E+00
   H -0.191479347E+02 -0.100503085E+01 -0.250599375E+01
   H  0.183307040E+02 -0.138092297E+01  0.209246338E+01
     4
 # iter = 45000  time[fs]=45.00000
   C -0.450723229E+01  0.617521885E-01  0.143159449E+00
   C  0.408063707E+01  0.212629910E+00 -0.119772806E+00
   H -0.195129736E+02 -0.102395397E+01 -0.255365743E+01
   H  0.186765339E+02 -0.140672083E+01  0.213309178E+01
     4
 # iter = 45500  time[fs]=45.50000
   C -0.460845048E+01  0.626329245E-01  0.147195632E+00
   C  0.417337188E+01  0.217186706E+00 -0.122768461E+00
   H -0.198782427E+02 -0.104289053E+01 -0.260135638E+01
   H  0.190226052E+02 -0.143254001E+01  0.217375244E+01
     4
 # iter = 46000  time[fs]=46.00000
   C -0.470991783E+01  0.635103339E-01  0.151241357E+00
   C  0.426635494E+01  0.221749648E+00 -0.125773393E+00
   H -0.202437338E+02 -0.106184011E+01 -0.264908946E+01
   H  0.193689095E+02 -0.145837985E+01  0.221444423E+01
     4
 # iter = 46500  time[fs]=46.50000
   C -0.481162359E+01  0.643845558E-01  0.155296257E+00
   C  0.435957553E+01  0.226318487E+00 -0.128787263E+00
   H -0.206094392E+02 -0.108080232E+01 -0.269685557E+01
   H  0.197154387E+02 -0.148423971E+01  0.225516606E+01
     4
 # iter = 47000  time[fs]=47.00000
   C -0.491355766E+01  0.652557273E-01  0.159359992E+00
   C  0.445302356E+01  0.230892997E+00 -0.131809740E+00
   H -0.209753515E+02 -0.109977672E+01 -0.274465362E+01
   H  0.200621851E+02 -0.151011894E+01  0.229591697E+01
     4
 # iter = 47500  time[fs]=47.50000
   C -0.501571054E+01  0.661239792E-01  0.163432242E+00
   C  0.454668955E+01  0.235472967E+00 -0.134840507E+00
   H -0.213414638E+02 -0.111876290E+01 -0.279248255E+01
   H  0.204091415E+02 -0.153601688E+01  0.233669605E+01
     4
 # iter = 48000  time[fs]=48.00000
   C -0.511807329E+01  0.669894334E-01  0.167512703E+00
   C  0.464056461E+01  0.240058198E+00 -0.137879264E+00
   H -0.217077694E+02 -0.113776047E+01 -0.284034136E+01
   H  0.207563010E+02 -0.156193295E+01  0.237750242E+01
     4
 # iter = 48500  time[fs]=48.50000
   C -0.522063749E+01  0.678522036E-01  0.171601084E+00
   C  0.473464033E+01  0.244648497E+00 -0.140925732E+00
   H -0.220742621E+02 -0.115676906E+01 -0.288822912E+01
   H  0.211036571E+02 -0.158786657E+01  0.241833524E+01
     4
 # iter = 49000  time[fs]=49.00000
   C -0.532339520E+01  0.687123967E-01  0.175697108E+00
   C  0.482890879E+01  0.249243681E+00 -0.143979643E+00
   H -0.224409358E+02 -0.117578834E+01 -0.293614493E+01
   H  0.214512034E+02 -0.161381723E+01  0.245919370E+01
     4
 # iter = 49500  time[fs]=49.50000
   C -0.542633893E+01  0.695701142E-01  0.179800516E+00
   C  0.492336252E+01  0.253843579E+00 -0.147040743E+00
   H -0.228077848E+02 -0.119481798E+01 -0.298408794E+01
   H  0.217989340E+02 -0.163978440E+01  0.250007703E+01
     4
 # iter = 50000  time[fs]=50.00000
   C -0.552946160E+01  0.704254522E-01  0.183911057E+00
   C  0.501799445E+01  0.258448028E+00 -0.150108790E+00
   H -0.231748036E+02 -0.121385764E+01 -0.303205733E+01
   H  0.221468432E+02 -0.166576758E+01  0.254098449E+01
     4
 # iter = 50500  time[fs]=50.50000
   C -0.563275651E+01  0.712785015E-01  0.188028495E+00
   C  0.511279791E+01  0.263056873E+00 -0.153183555E+00
   H -0.235419870E+02 -0.123290705E+01 -0.308005232E+01
   H  0.224949256E+02 -0.169176632E+01  0.258191539E+01
     4
 # iter = 51000  time[fs]=51.00000
   C -0.573621732E+01  0.721293480E-01  0.192152605E+00
   C  0.520776658E+01  0.267669966E+00 -0.156264817E+00
   H -0.239093301E+02 -0.125196590E+01 -0.312807216E+01
   H  0.228431761E+02 -0.171778016E+01  0.262286906E+01
     4
 # iter = 51500  time[fs]=51.50000
   C -0.583983802E+01  0.729780731E-01  0.196283173E+00
   C  0.530289445E+01  0.272287168E+00 -0.159352368E+00
   H -0.242768281E+02 -0.127103391E+01 -0.317611614E+01
   H  0.231915895E+02 -0.174380867E+01  0.266384485E+01
     4
 # iter = 52000  time[fs]=52.00000
   C -0.594361291E+01  0.738247538E-01  0.200419993E+00
   C  0.539817587E+01  0.276908344E+00 -0.162446009E+00
   H -0.246444765E+02 -0.129011084E+01 -0.322418358E+01
   H  0.235401613E+02 -0.176985145E+01  0.270484214E+01
     4
 # iter = 52500  time[fs]=52.50000
   C -0.604753660E+01  0.746694634E-01  0.204562869E+00
   C  0.549360543E+01  0.281533369E+00 -0.165545550E+00
   H -0.250122709E+02 -0.130919642E+01 -0.327227381E+01
   H  0.238888868E+02 -0.179590809E+01  0.274586035E+01
     4
 # iter = 53000  time[fs]=53.00000
   C -0.615160394E+01  0.755122715E-01  0.208711616E+00
   C  0.558917801E+01  0.286162120E+00 -0.168650810E+00
   H -0.253802072E+02 -0.132829041E+01 -0.332038622E+01
   H  0.242377618E+02 -0.182197821E+01  0.278689891E+01
     4
 # iter = 53500  time[fs]=53.50000
   C -0.625581006E+01  0.763532441E-01  0.212866056E+00
   C  0.568488876E+01  0.290794482E+00 -0.171761615E+00
   H -0.257482813E+02 -0.134739259E+01 -0.336852020E+01
   H  0.245867819E+02 -0.184806147E+01  0.282795728E+01
     4
 # iter = 54000  time[fs]=54.00000
   C -0.636015031E+01  0.771924441E-01  0.217026017E+00
   C  0.578073304E+01  0.295430345E+00 -0.174877799E+00
   H -0.261164895E+02 -0.136650272E+01 -0.341667517E+01
   H  0.249359434E+02 -0.187415749E+01  0.286903493E+01
     4
 # iter = 54500  time[fs]=54.50000
   C -0.646462027E+01  0.780299313E-01  0.221191336E+00
   C  0.587670645E+01  0.300069602E+00 -0.177999204E+00
   H -0.264848281E+02 -0.138562060E+01 -0.346485058E+01
   H  0.252852422E+02 -0.190026596E+01  0.291013136E+01
     4
 # iter = 55000  time[fs]=55.00000
   C -0.656921573E+01  0.788657627E-01  0.225361859E+00
   C  0.597280479E+01  0.304712154E+00 -0.181125678E+00
   H -0.268532936E+02 -0.140474602E+01 -0.351304589E+01
   H  0.256346747E+02 -0.192638655E+01  0.295124609E+01
     4
 # iter = 55500  time[fs]=55.50000
   C -0.667393268E+01  0.796999925E-01  0.229537435E+00
   C  0.606902405E+01  0.309357903E+00 -0.184257075E+00
   H -0.272218825E+02 -0.142387878E+01 -0.356126059E+01
   H  0.259842375E+02 -0.195251896E+01  0.299237866E+01
     4
 # iter = 56000  time[fs]=56.00000
   C -0.677876728E+01  0.805326725E-01  0.233717920E+00
   C  0.616536043E+01  0.314006758E+00 -0.187393257E+00
   H -0.275905917E+02 -0.144301869E+01 -0.360949419E+01
   H  0.263339271E+02 -0.197866287E+01  0.303352862E+01
     4
 # iter = 56500  time[fs]=56.50000
   C -0.688371589E+01  0.813638521E-01  0.237903179E+00
   C  0.626181027E+01  0.318658630E+00 -0.190534090E+00
   H -0.279594181E+02 -0.146216558E+01 -0.365774621E+01
   H  0.266837402E+02 -0.200481801E+01  0.307469554E+01
     4
 # iter = 57000  time[fs]=57.00000
   C -0.698877501E+01  0.821935785E-01  0.242093078E+00
   C  0.635837010E+01  0.323313434E+00 -0.193679445E+00
   H -0.283283585E+02 -0.148131927E+01 -0.370601621E+01
   H  0.270336736E+02 -0.203098410E+01  0.311587901E+01
     4
 # iter = 57500  time[fs]=57.50000
   C -0.709394129E+01  0.830218967E-01  0.246287492E+00
   C  0.645503659E+01  0.327971089E+00 -0.196829200E+00
   H -0.286974102E+02 -0.150047958E+01 -0.375430373E+01
   H  0.273837245E+02 -0.205716088E+01  0.315707862E+01
     4
 # iter = 58000  time[fs]=58.00000
   C -0.719921155E+01  0.838488499E-01  0.250486300E+00
   C  0.655180655E+01  0.332631517E+00 -0.199983236E+00
   H -0.290665704E+02 -0.151964636E+01 -0.380260835E+01
   H  0.277338898E+02 -0.208334808E+01  0.319829399E+01
     4
 # iter = 58500  time[fs]=58.50000
   C -0.730458273E+01  0.846744793E-01  0.254689383E+00
   C  0.664867695E+01  0.337294643E+00 -0.203141440E+00
   H -0.294358363E+02 -0.153881944E+01 -0.385092967E+01
   H  0.280841667E+02 -0.210954547E+01  0.323952475E+01
     4
 # iter = 59000  time[fs]=59.00000
   C -0.741005191E+01  0.854988242E-01  0.258896632E+00
   C  0.674564487E+01  0.341960395E+00 -0.206303703E+00
   H -0.298052055E+02 -0.155799869E+01 -0.389926729E+01
   H  0.284345526E+02 -0.213575280E+01  0.328077055E+01
     4
 # iter = 59500  time[fs]=59.50000
   C -0.751561627E+01  0.863219226E-01  0.263107937E+00
   C  0.684270750E+01  0.346628704E+00 -0.209469920E+00
   H -0.301746753E+02 -0.157718394E+01 -0.394762083E+01
   H  0.287850448E+02 -0.216196984E+01  0.332203103E+01
     4
 # iter = 60000  time[fs]=60.00000
   C -0.762127314E+01  0.871438105E-01  0.267323195E+00
   C  0.693986219E+01  0.351299503E+00 -0.212639989E+00
   H -0.305442435E+02 -0.159637507E+01 -0.399598993E+01
   H  0.291356408E+02 -0.218819637E+01  0.336330587E+01
     4
 # iter = 60500  time[fs]=60.50000
   C -0.772701994E+01  0.879645227E-01  0.271542305E+00
   C  0.703710635E+01  0.355972730E+00 -0.215813814E+00
   H -0.309139078E+02 -0.161557194E+01 -0.404437422E+01
   H  0.294863382E+02 -0.221443218E+01  0.340459473E+01
     4
 # iter = 61000  time[fs]=61.00000
   C -0.783285418E+01  0.887840924E-01  0.275765173E+00
   C  0.713443752E+01  0.360648322E+00 -0.218991300E+00
   H -0.312836657E+02 -0.163477441E+01 -0.409277337E+01
   H  0.298371347E+02 -0.224067706E+01  0.344589732E+01
     4
 # iter = 61500  time[fs]=61.50000
   C -0.793877350E+01  0.896025517E-01  0.279991704E+00
   C  0.723185334E+01  0.365326220E+00 -0.222172359E+00
   H -0.316535154E+02 -0.165398236E+01 -0.414118705E+01
   H  0.301880279E+02 -0.226693081E+01  0.348721332E+01
     4
 # iter = 62000  time[fs]=62.00000
   C -0.804477562E+01  0.904199311E-01  0.284221811E+00
   C  0.732935153E+01  0.370006367E+00 -0.225356902E+00
   H -0.320234545E+02 -0.167319567E+01 -0.418961493E+01
   H  0.305390158E+02 -0.229319323E+01  0.352854244E+01
     4
 # iter = 62500  time[fs]=62.50000
   C -0.815085833E+01  0.912362601E-01  0.288455406E+00
   C  0.742692991E+01  0.374688708E+00 -0.228544846E+00
   H -0.323934812E+02 -0.169241421E+01 -0.423805670E+01
   H  0.308900961E+02 -0.231946413E+01  0.356988441E+01
     4
 # iter = 63000  time[fs]=63.00000
   C -0.825701954E+01  0.920515671E-01  0.292692406E+00
   C  0.752458637E+01  0.379373190E+00 -0.231736110E+00
   H -0.327635935E+02 -0.171163788E+01 -0.428651208E+01
   H  0.312412669E+02 -0.234574335E+01  0.361123894E+01
     4
 # iter = 63500  time[fs]=63.50000
   C -0.836325720E+01  0.928658792E-01  0.296932732E+00
   C  0.762231890E+01  0.384059762E+00 -0.234930616E+00
   H -0.331337895E+02 -0.173086656E+01 -0.433498076E+01
   H  0.315925261E+02 -0.237203069E+01  0.365260578E+01
     4
 # iter = 64000  time[fs]=64.00000
   C -0.846956938E+01  0.936792227E-01  0.301176306E+00
   C  0.772012555E+01  0.388748375E+00 -0.238128288E+00
   H -0.335040673E+02 -0.175010015E+01 -0.438346246E+01
   H  0.319438718E+02 -0.239832599E+01  0.369398467E+01
     4
 # iter = 64500  time[fs]=64.50000
   C -0.857595418E+01  0.944916227E-01  0.305423053E+00
   C  0.781800445E+01  0.393438981E+00 -0.241329053E+00
   H -0.338744253E+02 -0.176933854E+01 -0.443195692E+01
   H  0.322953023E+02 -0.242462908E+01  0.373537536E+01
     4
 # iter = 65000  time[fs]=65.00000
   C -0.868240980E+01  0.953031035E-01  0.309672900E+00
   C  0.791595379E+01  0.398131534E+00 -0.244532842E+00
   H -0.342448617E+02 -0.178858164E+01 -0.448046387E+01
   H  0.326468156E+02 -0.245093981E+01  0.377677760E+01
     4
 # iter = 65500  time[fs]=65.50000
   C -0.878893449E+01  0.961136884E-01  0.313925779E+00
   C  0.801397183E+01  0.402825990E+00 -0.247739586E+00
   H -0.346153748E+02 -0.180782933E+01 -0.452898305E+01
   H  0.329984102E+02 -0.247725801E+01  0.381819117E+01
     4
 # iter = 66000  time[fs]=66.00000
   C -0.889552656E+01  0.969234000E-01  0.318181621E+00
   C  0.811205689E+01  0.407522306E+00 -0.250949219E+00
   H -0.349859631E+02 -0.182708154E+01 -0.457751422E+01
   H  0.333500841E+02 -0.250358354E+01  0.385961584E+01
     4
 # iter = 66500  time[fs]=66.50000
   C -0.900218440E+01  0.977322600E-01  0.322440361E+00
   C  0.821020737E+01  0.412220441E+00 -0.254161679E+00
   H -0.353566250E+02 -0.184633817E+01 -0.462605713E+01
   H  0.337018360E+02 -0.252991626E+01  0.390105139E+01
     4
 # iter = 67000  time[fs]=67.00000
   C -0.910890643E+01  0.985402893E-01  0.326701935E+00
   C  0.830842170E+01  0.416920353E+00 -0.257376902E+00
   H -0.357273590E+02 -0.186559912E+01 -0.467461156E+01
   H  0.340536641E+02 -0.255625602E+01  0.394249760E+01
     4
 # iter = 67500  time[fs]=67.50000
   C -0.921569115E+01  0.993475082E-01  0.330966284E+00
   C  0.840669836E+01  0.421622005E+00 -0.260594830E+00
   H -0.360981637E+02 -0.188486432E+01 -0.472317727E+01
   H  0.344055669E+02 -0.258260268E+01  0.398395428E+01
     4
 # iter = 68000  time[fs]=68.00000
   C -0.932253708E+01  0.100153936E+00  0.335233347E+00
   C  0.850503592E+01  0.426325359E+00 -0.263815405E+00
   H -0.364690376E+02 -0.190413369E+01 -0.477175406E+01
   H  0.347575430E+02 -0.260895611E+01  0.402542120E+01
     4
 # iter = 68500  time[fs]=68.50000
   C -0.942944283E+01  0.100959592E+00  0.339503067E+00
   C  0.860343296E+01  0.431030379E+00 -0.267038570E+00
   H -0.368399793E+02 -0.192340713E+01 -0.482034169E+01
   H  0.351095908E+02 -0.263531618E+01  0.406689819E+01
     4
 # iter = 69000  time[fs]=69.00000
   C -0.953640703E+01  0.101764493E+00  0.343775388E+00
   C  0.870188812E+01  0.435737029E+00 -0.270264273E+00
   H -0.372109876E+02 -0.194268457E+01 -0.486893998E+01
   H  0.354617091E+02 -0.266168277E+01  0.410838505E+01
     4
 # iter = 69500  time[fs]=69.50000
   C -0.964342835E+01  0.102568658E+00  0.348050257E+00
   C  0.880040010E+01  0.440445274E+00 -0.273492460E+00
   H -0.375820611E+02 -0.196196593E+01 -0.491754870E+01
   H  0.358138963E+02 -0.268805574E+01  0.414988160E+01
     4
 # iter = 70000  time[fs]=70.00000
   C -0.975050553E+01  0.103372104E+00  0.352327621E+00
   C  0.889896761E+01  0.445155083E+00 -0.276723080E+00
   H -0.379531986E+02 -0.198125115E+01 -0.496616768E+01
   H  0.361661513E+02 -0.271443500E+01  0.419138766E+01
     4
 # iter = 70500  time[fs]=70.50000
   C -0.985763732E+01  0.104174846E+00  0.356607429E+00
   C  0.899758945E+01  0.449866423E+00 -0.279956084E+00
   H -0.383243988E+02 -0.200054014E+01 -0.501479672E+01
   H  0.365184727E+02 -0.274082040E+01  0.423290305E+01
     4
 # iter = 71000  time[fs]=71.00000
   C -0.996482254E+01  0.104976902E+00  0.360889633E+00
   C  0.909626440E+01  0.454579263E+00 -0.283191425E+00
   H -0.386956606E+02 -0.201983284E+01 -0.506343564E+01
   H  0.368708593E+02 -0.276721186E+01  0.427442760E+01
     4
 # iter = 71500  time[fs]=71.50000
   C -0.100720600E+02  0.105778285E+00  0.365174185E+00
   C  0.919499133E+01  0.459293573E+00 -0.286429055E+00
   H -0.390669828E+02 -0.203912917E+01 -0.511208425E+01
   H  0.372233098E+02 -0.279360925E+01  0.431596115E+01
     4
 # iter = 72000  time[fs]=72.00000
   C -0.101793487E+02  0.106579012E+00  0.369461038E+00
   C  0.929376912E+01  0.464009323E+00 -0.289668929E+00
   H -0.394383643E+02 -0.205842909E+01 -0.516074238E+01
   H  0.375758231E+02 -0.282001247E+01  0.435750354E+01
     4
 # iter = 72500  time[fs]=72.50000
   C -0.102866874E+02  0.107379096E+00  0.373750148E+00
   C  0.939259670E+01  0.468726485E+00 -0.292911005E+00
   H -0.398098040E+02 -0.207773250E+01 -0.520940986E+01
   H  0.379283980E+02 -0.284642141E+01  0.439905462E+01
     4
 # iter = 73000  time[fs]=73.00000
   C -0.103940751E+02  0.108178551E+00  0.378041470E+00
   C  0.949147300E+01  0.473445032E+00 -0.296155238E+00
   H -0.401813009E+02 -0.209703937E+01 -0.525808652E+01
   H  0.382810334E+02 -0.287283598E+01  0.444061422E+01
     4
 # iter = 73500  time[fs]=73.50000
   C -0.105015108E+02  0.108977391E+00  0.382334963E+00
   C  0.959039703E+01  0.478164937E+00 -0.299401588E+00
   H -0.405528538E+02 -0.211634962E+01 -0.530677221E+01
   H  0.386337283E+02 -0.289925608E+01  0.448218220E+01
     4
 # iter = 74000  time[fs]=74.00000
   C -0.106089935E+02  0.109775628E+00  0.386630584E+00
   C  0.968936779E+01  0.482886173E+00 -0.302650015E+00
   H -0.409244619E+02 -0.213566319E+01 -0.535546676E+01
   H  0.389864815E+02 -0.292568161E+01  0.452375842E+01
     4
 # iter = 74500  time[fs]=74.50000
   C -0.107165223E+02  0.110573277E+00  0.390928295E+00
   C  0.978838434E+01  0.487608716E+00 -0.305900480E+00
   H -0.412961241E+02 -0.215498003E+01 -0.540417002E+01
   H  0.393392920E+02 -0.295211247E+01  0.456534273E+01
     4
 # iter = 75000  time[fs]=75.00000
   C -0.108240962E+02  0.111370348E+00  0.395228056E+00
   C  0.988744575E+01  0.492332540E+00 -0.309152944E+00
   H -0.416678395E+02 -0.217430007E+01 -0.545288185E+01
   H  0.396921588E+02 -0.297854858E+01  0.460693500E+01
     4
 # iter = 75500  time[fs]=75.50000
   C -0.109317143E+02  0.112166854E+00  0.399529829E+00
   C  0.998655112E+01  0.497057623E+00 -0.312407372E+00
   H -0.420396071E+02 -0.219362328E+01 -0.550160210E+01
   H  0.400450810E+02 -0.300498985E+01  0.464853510E+01
     4
 # iter = 76000  time[fs]=76.00000
   C -0.110393758E+02  0.112962806E+00  0.403833578E+00
   C  0.100856996E+02  0.501783940E+00 -0.315663725E+00
   H -0.424114261E+02 -0.221294958E+01 -0.555033062E+01
   H  0.403980576E+02 -0.303143620E+01  0.469014289E+01
     4
 # iter = 76500  time[fs]=76.50000
   C -0.111470797E+02  0.113758216E+00  0.408139266E+00
   C  0.101848903E+02  0.506511469E+00 -0.318921971E+00
   H -0.427832956E+02 -0.223227893E+01 -0.559906728E+01
   H  0.407510877E+02 -0.305788753E+01  0.473175825E+01
     4
 # iter = 77000  time[fs]=77.00000
   C -0.112548253E+02  0.114553094E+00  0.412446859E+00
   C  0.102841224E+02  0.511240189E+00 -0.322182075E+00
   H -0.431552146E+02 -0.225161128E+01 -0.564781195E+01
   H  0.411041703E+02 -0.308434376E+01  0.477338105E+01
     4
 # iter = 77500  time[fs]=77.50000
   C -0.113626118E+02  0.115347452E+00  0.416756322E+00
   C  0.103833951E+02  0.515970077E+00 -0.325444004E+00
   H -0.435271825E+02 -0.227094658E+01 -0.569656449E+01
   H  0.414573046E+02 -0.311080482E+01  0.481501117E+01
     4
 # iter = 78000  time[fs]=78.00000
   C -0.114704384E+02  0.116141298E+00  0.421067623E+00
   C  0.104827077E+02  0.520701114E+00 -0.328707725E+00
   H -0.438991983E+02 -0.229028478E+01 -0.574532477E+01
   H  0.418104897E+02 -0.313727063E+01  0.485664850E+01
     4
 # iter = 78500  time[fs]=78.50000
   C -0.115783043E+02  0.116934644E+00  0.425380729E+00
   C  0.105820594E+02  0.525433278E+00 -0.331973207E+00
   H -0.442712612E+02 -0.230962583E+01 -0.579409267E+01
   H  0.421637248E+02 -0.316374111E+01  0.489829291E+01
     4
 # iter = 79000  time[fs]=79.00000
   C -0.116862088E+02  0.117727499E+00  0.429695610E+00
   C  0.106814495E+02  0.530166550E+00 -0.335240420E+00
   H -0.446433706E+02 -0.232896968E+01 -0.584286806E+01
   H  0.425170090E+02 -0.319021619E+01  0.493994430E+01
     4
 # iter = 79500  time[fs]=79.50000
   C -0.117941511E+02  0.118519872E+00  0.434012233E+00
   C  0.107808771E+02  0.534900910E+00 -0.338509334E+00
   H -0.450155255E+02 -0.234831630E+01 -0.589165084E+01
   H  0.428703416E+02 -0.321669579E+01  0.498160256E+01
     4
 # iter = 80000  time[fs]=80.00000
   C -0.119021307E+02  0.119311773E+00  0.438330571E+00
   C  0.108803418E+02  0.539636341E+00 -0.341779919E+00
   H -0.453877254E+02 -0.236766563E+01 -0.594044087E+01
   H  0.432237218E+02 -0.324317984E+01  0.502326758E+01
