     4
 # iter = 25000  time[fs]=25.00000
   C -0.103822980E+01 -0.205850083E-01 -0.101665456E-04
   C  0.103046573E+01  0.280920821E-01  0.521245402E-02
   H -0.531267039E+01 -0.335727076E+00 -0.429680157E+00
   H  0.539289677E+01 -0.391525226E+00  0.470603026E+00
     4
 # iter = 25500  time[fs]=25.50000
   C -0.109101053E+01 -0.206977934E-01 -0.108291051E-03
   C  0.107579419E+01  0.288640468E-01  0.265069286E-02
   H -0.565718261E+01 -0.362757830E+00 -0.466829071E+00
   H  0.570706130E+01 -0.424628245E+00  0.491937800E+00
     4
 # iter = 26000  time[fs]=26.00000
   C -0.114797850E+01 -0.218064363E-01 -0.113491230E-02
   C  0.112333499E+01  0.286819264E-01 -0.962936795E-03
   H -0.600973995E+01 -0.395350966E+00 -0.509617362E+00
   H  0.601840207E+01 -0.463337179E+00  0.508108724E+00
     4
 # iter = 26500  time[fs]=26.50000
   C -0.120606474E+01 -0.211234377E-01 -0.306914962E-03
   C  0.117591339E+01  0.306526297E-01 -0.251409994E-02
   H -0.635396318E+01 -0.417415399E+00 -0.541946134E+00
   H  0.634274887E+01 -0.491536476E+00  0.535187028E+00
     4
 # iter = 27000  time[fs]=27.00000
   C -0.126486463E+01 -0.185050797E-01  0.251513888E-02
   C  0.123341526E+01  0.349213894E-01 -0.185055275E-02
   H -0.668880796E+01 -0.428140359E+00 -0.562998138E+00
   H  0.668066315E+01 -0.508412361E+00  0.573947239E+00
     4
 # iter = 27500  time[fs]=27.50000
   C -0.132620197E+01 -0.160146027E-01  0.526390397E-02
   C  0.129327695E+01  0.391612294E-01 -0.129270072E-02
   H -0.702602829E+01 -0.439470751E+00 -0.584712877E+00
   H  0.701996084E+01 -0.525924813E+00  0.612394381E+00
     4
 # iter = 28000  time[fs]=28.00000
   C -0.139131877E+01 -0.151109347E-01  0.647654993E-02
   C  0.135363614E+01  0.417244031E-01 -0.248227479E-02
   H -0.737390910E+01 -0.459856147E+00 -0.615535187E+00
   H  0.735198954E+01 -0.552533586E+00  0.642038611E+00
     4
 # iter = 28500  time[fs]=28.50000
   C -0.145942466E+01 -0.151985333E-01  0.674493928E-02
   C  0.141495631E+01  0.432679714E-01 -0.475678281E-02
   H -0.772887394E+01 -0.485867447E+00 -0.652031678E+00
   H  0.768002274E+01 -0.584802835E+00  0.666290463E+00
     4
 # iter = 29000  time[fs]=29.00000
   C -0.152889025E+01 -0.148228877E-01  0.752014838E-02
   C  0.147868469E+01  0.454133193E-01 -0.648991715E-02
   H -0.808239562E+01 -0.509108222E+00 -0.685802062E+00
   H  0.801233125E+01 -0.614322388E+00  0.693538395E+00
     4
 # iter = 29500  time[fs]=29.50000
   C -0.159905402E+01 -0.134797298E-01  0.930326809E-02
   C  0.154522206E+01  0.487176130E-01 -0.712000663E-02
   H -0.843145684E+01 -0.526674380E+00 -0.713938858E+00
   H  0.835170106E+01 -0.638182562E+00  0.726672766E+00
     4
 # iter = 30000  time[fs]=30.00000
   C -0.167047421E+01 -0.118687811E-01  0.113916533E-01
   C  0.161363639E+01  0.523891619E-01 -0.743460965E-02
   H -0.878001539E+01 -0.542621282E+00 -0.740494471E+00
   H  0.869396083E+01 -0.660443373E+00  0.761616101E+00
     4
 # iter = 30500  time[fs]=30.50000
   C -0.174380502E+01 -0.107712305E-01  0.130014295E-01
   C  0.168291968E+01  0.555458191E-01 -0.831210622E-02
   H -0.913251049E+01 -0.561473948E+00 -0.769991283E+00
   H  0.903448084E+01 -0.685635232E+00  0.793822377E+00
     4
 # iter = 31000  time[fs]=31.00000
   C -0.181894136E+01 -0.101958277E-01  0.141213812E-01
   C  0.175294362E+01  0.581722381E-01 -0.976442653E-02
   H -0.948892289E+01 -0.583290248E+00 -0.802484779E+00
   H  0.937311667E+01 -0.713814918E+00  0.823221022E+00
     4
 # iter = 31500  time[fs]=31.50000
   C -0.189526802E+01 -0.962947797E-02  0.152623432E-01
   C  0.182417715E+01  0.608388047E-01 -0.112180860E-01
   H -0.984622286E+01 -0.605109980E+00 -0.835012577E+00
   H  0.971275624E+01 -0.742016789E+00  0.852765432E+00
     4
 # iter = 32000  time[fs]=32.00000
   C -0.197237451E+01 -0.875356740E-02  0.167408606E-01
   C  0.189688192E+01  0.638984082E-01 -0.123173716E-01
   H -0.102025116E+02 -0.625096665E+00 -0.865736229E+00
   H  0.100551699E+02 -0.768400688E+00  0.884284739E+00
     4
 # iter = 32500  time[fs]=32.50000
   C -0.205031080E+01 -0.770084272E-02  0.184222946E-01
   C  0.197082310E+01  0.671983579E-01 -0.132123943E-01
   H -0.105585060E+02 -0.644022860E+00 -0.895426518E+00
   H  0.103995214E+02 -0.793739430E+00  0.916996098E+00
     4
 # iter = 33000  time[fs]=33.00000
   C -0.212927773E+01 -0.674684573E-02  0.200293721E-01
   C  0.204561425E+01  0.704262861E-01 -0.142131633E-01
   H -0.109157535E+02 -0.663486110E+00 -0.925679379E+00
   H  0.107441543E+02 -0.819632090E+00  0.949291300E+00
     4
 # iter = 33500  time[fs]=33.50000
   C -0.220928766E+01 -0.597142367E-02  0.214806600E-01
   C  0.212109585E+01  0.734896124E-01 -0.154101054E-01
   H -0.112746743E+02 -0.683951891E+00 -0.956958812E+00
   H  0.110885509E+02 -0.846544041E+00  0.980696681E+00
     4
 # iter = 34000  time[fs]=34.00000
   C -0.229016029E+01 -0.525533577E-02  0.228939455E-01
   C  0.219733829E+01  0.765192980E-01 -0.166702901E-01
   H -0.116345408E+02 -0.704734079E+00 -0.988577342E+00
   H  0.114333520E+02 -0.873787406E+00  0.101189258E+01
     4
 # iter = 34500  time[fs]=34.50000
   C -0.237172374E+01 -0.448208418E-02  0.243843929E-01
   C  0.227441482E+01  0.796435087E-01 -0.178637481E-01
   H -0.119946446E+02 -0.725162031E+00 -0.101986308E+01
   H  0.117791867E+02 -0.900689861E+00  0.104354444E+01
     4
 # iter = 35000  time[fs]=35.00000
   C -0.245392871E+01 -0.365267511E-02  0.259497717E-01
   C  0.235227220E+01  0.828589071E-01 -0.189921605E-01
   H -0.123549597E+02 -0.745244186E+00 -0.105082333E+01
   H  0.121260077E+02 -0.927259227E+00  0.107563811E+01
     4
 # iter = 35500  time[fs]=35.50000
   C -0.253679464E+01 -0.283235847E-02  0.275237066E-01
   C  0.243078987E+01  0.860903409E-01 -0.201291566E-01
   H -0.127158341E+02 -0.765360140E+00 -0.108183663E+01
   H  0.124733992E+02 -0.953875076E+00  0.110778820E+01
     4
 # iter = 36000  time[fs]=36.00000
   C -0.262031497E+01 -0.205635932E-02  0.290699368E-01
   C  0.250988513E+01  0.892965138E-01 -0.213146304E-01
   H -0.130774448E+02 -0.785715611E+00 -0.111310773E+01
   H  0.128211222E+02 -0.980742873E+00  0.113978387E+01
     4
 # iter = 36500  time[fs]=36.50000
   C -0.270443518E+01 -0.130831590E-02  0.306038693E-01
   C  0.258953687E+01  0.924941392E-01 -0.225305766E-01
   H -0.134396723E+02 -0.806217797E+00 -0.114454292E+01
   H  0.131692395E+02 -0.100776916E+01  0.117171362E+01
     4
 # iter = 37000  time[fs]=37.00000
   C -0.278909214E+01 -0.560044658E-03  0.321528068E-01
   C  0.266974058E+01  0.957133341E-01 -0.237456849E-01
   H -0.138023306E+02 -0.826705343E+00 -0.117598001E+01
   H  0.135178849E+02 -0.103479185E+01  0.120373498E+01
     4
 # iter = 37500  time[fs]=37.50000
   C -0.287424647E+01  0.195789012E-03  0.337232698E-01
   C  0.275047138E+01  0.989609713E-01 -0.249519790E-01
   H -0.141653560E+02 -0.847137272E+00 -0.120737725E+01
   H  0.138670735E+02 -0.106176944E+01  0.123588518E+01
     4
 # iter = 38000  time[fs]=38.00000
   C -0.295987865E+01  0.949276172E-03  0.353045963E-01
   C  0.283168777E+01  0.102224708E+00 -0.261607804E-01
   H -0.145287861E+02 -0.867572155E+00 -0.123879250E+01
   H  0.142167228E+02 -0.108876016E+01  0.126810204E+01
     4
 # iter = 38500  time[fs]=38.50000
   C -0.304597008E+01  0.169191682E-02  0.368875886E-01
   C  0.291335226E+01  0.105493884E+00 -0.273817996E-01
   H -0.148926516E+02 -0.888060282E+00 -0.127027535E+01
   H  0.145667601E+02 -0.111581398E+01  0.130033193E+01
     4
 # iter = 39000  time[fs]=39.00000
   C -0.313249504E+01  0.242445213E-02  0.384723404E-01
   C  0.299543991E+01  0.108768299E+00 -0.286143589E-01
   H -0.152569313E+02 -0.908598386E+00 -0.130182192E+01
   H  0.149171682E+02 -0.114292723E+01  0.133257508E+01
     4
 # iter = 39500  time[fs]=39.50000
   C -0.321942567E+01  0.315168085E-02  0.400630492E-01
   C  0.307793233E+01  0.112052383E+00 -0.298532085E-01
   H -0.156215813E+02 -0.929159630E+00 -0.133340478E+01
   H  0.152679546E+02 -0.117007269E+01  0.136485553E+01
     4
 # iter = 40000  time[fs]=40.00000
   C -0.330673820E+01  0.387604988E-02  0.416616025E-01
   C  0.316081026E+01  0.115348005E+00 -0.310957157E-01
   H -0.159865726E+02 -0.949730685E+00 -0.136501004E+01
   H  0.156191146E+02 -0.119723665E+01  0.139718398E+01
     4
 # iter = 40500  time[fs]=40.50000
   C -0.339441352E+01  0.459689531E-02  0.432668156E-01
   C  0.324405259E+01  0.118653616E+00 -0.323427192E-01
   H -0.163518951E+02 -0.970316123E+00 -0.139664177E+01
   H  0.159706270E+02 -0.122442337E+01  0.142955335E+01
     4
 # iter = 41000  time[fs]=41.00000
   C -0.348243448E+01  0.531304422E-02  0.448770296E-01
   C  0.332763913E+01  0.121967157E+00 -0.335956139E-01
   H -0.167175425E+02 -0.990923389E+00 -0.142830692E+01
   H  0.163224684E+02 -0.125164002E+01  0.146195389E+01
     4
 # iter = 41500  time[fs]=41.50000
   C -0.357078410E+01  0.602444344E-02  0.464917378E-01
   C  0.341155227E+01  0.125287879E+00 -0.348545266E-01
   H -0.170835027E+02 -0.101155338E+01 -0.146000593E+01
   H  0.166746234E+02 -0.127888719E+01  0.149438250E+01
     4
 # iter = 42000  time[fs]=42.00000
   C -0.365944583E+01  0.673179510E-02  0.481112185E-01
   C  0.349577649E+01  0.128615933E+00 -0.361187262E-01
   H -0.174497602E+02 -0.103220259E+01 -0.149173485E+01
   H  0.170270814E+02 -0.130616109E+01  0.152684065E+01
     4
 # iter = 42500  time[fs]=42.50000
   C -0.374840433E+01  0.743567017E-02  0.497356457E-01
   C  0.358029722E+01  0.131951365E+00 -0.373876197E-01
   H -0.178163008E+02 -0.105286818E+01 -0.152349045E+01
   H  0.173798325E+02 -0.133345864E+01  0.155932926E+01
     4
 # iter = 43000  time[fs]=43.00000
   C -0.383764564E+01  0.813624240E-02  0.513648213E-01
   C  0.366510049E+01  0.135293821E+00 -0.386610511E-01
   H -0.181831133E+02 -0.107354959E+01 -0.155527179E+01
   H  0.177328648E+02 -0.136077901E+01  0.159184706E+01
     4
 # iter = 43500  time[fs]=43.50000
   C -0.392715688E+01  0.883353616E-02  0.529984211E-01
   C  0.375017307E+01  0.138642815E+00 -0.399390249E-01
   H -0.185501879E+02 -0.109424707E+01 -0.158707875E+01
   H  0.180861667E+02 -0.138812224E+01  0.162439210E+01
     4
 # iter = 44000  time[fs]=44.00000
   C -0.401692590E+01  0.952765362E-02  0.546362195E-01
   C  0.383550271E+01  0.141997984E+00 -0.412214524E-01
   H -0.189175149E+02 -0.111496040E+01 -0.161891076E+01
   H  0.184397274E+02 -0.141548787E+01  0.165696299E+01
     4
 # iter = 44500  time[fs]=44.50000
   C -0.410694124E+01  0.102187813E-01  0.562780952E-01
   C  0.392107802E+01  0.145359090E+00 -0.425081451E-01
   H -0.192850846E+02 -0.113568882E+01 -0.165076674E+01
   H  0.187935375E+02 -0.144287493E+01  0.168955895E+01
     4
 # iter = 45000  time[fs]=45.00000
   C -0.419719214E+01  0.109071040E-01  0.579239434E-01
   C  0.400688834E+01  0.148725924E+00 -0.437989114E-01
   H -0.196528877E+02 -0.115643155E+01 -0.168264560E+01
   H  0.191475879E+02 -0.147028243E+01  0.172217933E+01
     4
 # iter = 45500  time[fs]=45.50000
   C -0.428766853E+01  0.115927646E-01  0.595736338E-01
   C  0.409292362E+01  0.152098255E+00 -0.450936035E-01
   H -0.200209158E+02 -0.117718803E+01 -0.171454650E+01
   H  0.195018702E+02 -0.149770963E+01  0.175482331E+01
     4
 # iter = 46000  time[fs]=46.00000
   C -0.437836097E+01  0.122758787E-01  0.612270246E-01
   C  0.417917442E+01  0.155475847E+00 -0.463921002E-01
   H -0.203891609E+02 -0.119795785E+01 -0.174646873E+01
   H  0.198563760E+02 -0.152515593E+01  0.178749003E+01
     4
 # iter = 46500  time[fs]=46.50000
   C -0.446926057E+01  0.129565570E-01  0.628839837E-01
   C  0.426563184E+01  0.158858480E+00 -0.476942827E-01
   H -0.207576153E+02 -0.121874057E+01 -0.177841161E+01
   H  0.202110974E+02 -0.155262071E+01  0.182017866E+01
     4
 # iter = 47000  time[fs]=47.00000
   C -0.456035895E+01  0.136349111E-01  0.645443931E-01
   C  0.435228752E+01  0.162245956E+00 -0.490000291E-01
   H -0.211262718E+02 -0.123953576E+01 -0.181037444E+01
   H  0.205660271E+02 -0.158010337E+01  0.185288850E+01
     4
 # iter = 47500  time[fs]=47.50000
   C -0.465164821E+01  0.143110479E-01  0.662081427E-01
   C  0.443913357E+01  0.165638091E+00 -0.503092202E-01
   H -0.214951236E+02 -0.126034297E+01 -0.184235654E+01
   H  0.209211582E+02 -0.160760331E+01  0.188561887E+01
     4
 # iter = 48000  time[fs]=48.00000
   C -0.474312089E+01  0.149850659E-01  0.678751255E-01
   C  0.452616256E+01  0.169034710E+00 -0.516217443E-01
   H -0.218641641E+02 -0.128116180E+01 -0.187435729E+01
   H  0.212764839E+02 -0.163511998E+01  0.191836911E+01
     4
 # iter = 48500  time[fs]=48.50000
   C -0.483476997E+01  0.156570563E-01  0.695452381E-01
   C  0.461336747E+01  0.172435646E+00 -0.529374964E-01
   H -0.222333871E+02 -0.130199189E+01 -0.190637609E+01
   H  0.216319978E+02 -0.166265284E+01  0.195113859E+01
     4
 # iter = 49000  time[fs]=49.00000
   C -0.492658879E+01  0.163271046E-01  0.712183815E-01
   C  0.470074164E+01  0.175840739E+00 -0.542563763E-01
   H -0.226027868E+02 -0.132283286E+01 -0.193841237E+01
   H  0.219876941E+02 -0.169020141E+01  0.198392673E+01
     4
 # iter = 49500  time[fs]=49.50000
   C -0.501857104E+01  0.169952917E-01  0.728944616E-01
   C  0.478827879E+01  0.179249841E+00 -0.555782876E-01
   H -0.229723574E+02 -0.134368438E+01 -0.197046560E+01
   H  0.223435668E+02 -0.171776520E+01  0.201673293E+01
     4
 # iter = 50000  time[fs]=50.00000
   C -0.511071077E+01  0.176616941E-01  0.745733887E-01
   C  0.487597296E+01  0.182662809E+00 -0.569031380E-01
   H -0.233420937E+02 -0.136454611E+01 -0.200253526E+01
   H  0.226996105E+02 -0.174534375E+01  0.204955667E+01
     4
 # iter = 50500  time[fs]=50.50000
   C -0.520300231E+01  0.183263839E-01  0.762550768E-01
   C  0.496381852E+01  0.186079509E+00 -0.582308391E-01
   H -0.237119904E+02 -0.138541776E+01 -0.203462085E+01
   H  0.230558200E+02 -0.177293664E+01  0.208239742E+01
     4
 # iter = 51000  time[fs]=51.00000
   C -0.529544031E+01  0.189894290E-01  0.779394436E-01
   C  0.505181010E+01  0.189499813E+00 -0.595613066E-01
   H -0.240820428E+02 -0.140629901E+01 -0.206672190E+01
   H  0.234121902E+02 -0.180054343E+01  0.211525469E+01
     4
 # iter = 51500  time[fs]=51.50000
   C -0.538801967E+01  0.196508935E-01  0.796264102E-01
   C  0.513994262E+01  0.192923602E+00 -0.608944595E-01
   H -0.244522462E+02 -0.142718958E+01 -0.209883796E+01
   H  0.237687164E+02 -0.182816374E+01  0.214812799E+01
     4
 # iter = 52000  time[fs]=52.00000
   C -0.548073555E+01  0.203108383E-01  0.813159011E-01
   C  0.522821126E+01  0.196350758E+00 -0.622302203E-01
   H -0.248225961E+02 -0.144808920E+01 -0.213096861E+01
   H  0.241253940E+02 -0.185579718E+01  0.218101688E+01
     4
 # iter = 52500  time[fs]=52.50000
   C -0.557358334E+01  0.209693206E-01  0.830078439E-01
   C  0.531661141E+01  0.199781172E+00 -0.635685147E-01
   H -0.251930882E+02 -0.146899760E+01 -0.216311342E+01
   H  0.244822187E+02 -0.188344337E+01  0.221392091E+01
     4
 # iter = 53000  time[fs]=53.00000
   C -0.566655867E+01  0.216263950E-01  0.847021692E-01
   C  0.540513871E+01  0.203214740E+00 -0.649092714E-01
   H -0.255637185E+02 -0.148991455E+01 -0.219527200E+01
   H  0.248391862E+02 -0.191110198E+01  0.224683967E+01
     4
 # iter = 53500  time[fs]=53.50000
   C -0.575965736E+01  0.222821130E-01  0.863988104E-01
   C  0.549378899E+01  0.206651362E+00 -0.662524219E-01
   H -0.259344830E+02 -0.151083980E+01 -0.222744397E+01
   H  0.251962925E+02 -0.193877267E+01  0.227977276E+01
     4
 # iter = 54000  time[fs]=54.00000
   C -0.585287544E+01  0.229365235E-01  0.880977034E-01
   C  0.558255829E+01  0.210090943E+00 -0.675979006E-01
   H -0.263053781E+02 -0.153177311E+01 -0.225962897E+01
   H  0.255535338E+02 -0.196645510E+01  0.231271979E+01
     4
 # iter = 54500  time[fs]=54.50000
   C -0.594620912E+01  0.235896730E-01  0.897987870E-01
   C  0.567144281E+01  0.213533393E+00 -0.689456443E-01
   H -0.266764000E+02 -0.155271428E+01 -0.229182665E+01
   H  0.259109064E+02 -0.199414897E+01  0.234568040E+01
     4
 # iter = 55000  time[fs]=55.00000
   C -0.603965477E+01  0.242416057E-01  0.915020021E-01
   C  0.576043895E+01  0.216978625E+00 -0.702955924E-01
   H -0.270475455E+02 -0.157366309E+01 -0.232403668E+01
   H  0.262684068E+02 -0.202185398E+01  0.237865422E+01
     4
 # iter = 55500  time[fs]=55.50000
   C -0.613320893E+01  0.248923635E-01  0.932072919E-01
   C  0.584954326E+01  0.220426555E+00 -0.716476865E-01
   H -0.274188111E+02 -0.159461933E+01 -0.235625872E+01
   H  0.266260315E+02 -0.204956985E+01  0.241164092E+01
     4
 # iter = 56000  time[fs]=56.00000
   C -0.622686831E+01  0.255419864E-01  0.949146020E-01
   C  0.593875244E+01  0.223877106E+00 -0.730018706E-01
   H -0.277901937E+02 -0.161558281E+01 -0.238849248E+01
   H  0.269837773E+02 -0.207729629E+01  0.244464017E+01
     4
 # iter = 56500  time[fs]=56.50000
   C -0.632062975E+01  0.261905124E-01  0.966238798E-01
   C  0.602806334E+01  0.227330200E+00 -0.743580907E-01
   H -0.281616902E+02 -0.163655335E+01 -0.242073764E+01
   H  0.273416410E+02 -0.210503305E+01  0.247765165E+01
     4
 # iter = 57000  time[fs]=57.00000
   C -0.641449022E+01  0.268379778E-01  0.983350749E-01
   C  0.611747296E+01  0.230785767E+00 -0.757162948E-01
   H -0.285332977E+02 -0.165753076E+01 -0.245299394E+01
   H  0.276996197E+02 -0.213277986E+01  0.251067505E+01
     4
 # iter = 57500  time[fs]=57.50000
   C -0.650844683E+01  0.274844171E-01  0.100048138E+00
   C  0.620697839E+01  0.234243735E+00 -0.770764328E-01
   H -0.289050134E+02 -0.167851488E+01 -0.248526108E+01
   H  0.280577104E+02 -0.216053648E+01  0.254371010E+01
     4
 # iter = 58000  time[fs]=58.00000
   C -0.660249682E+01  0.281298633E-01  0.101763024E+00
   C  0.629657688E+01  0.237704038E+00 -0.784384566E-01
   H -0.292768345E+02 -0.169950553E+01 -0.251753881E+01
   H  0.284159103E+02 -0.218830267E+01  0.257675649E+01
     4
 # iter = 58500  time[fs]=58.50000
   C -0.669663752E+01  0.287743479E-01  0.103479686E+00
   C  0.638626578E+01  0.241166613E+00 -0.798023197E-01
   H -0.296487584E+02 -0.172050255E+01 -0.254982687E+01
   H  0.287742167E+02 -0.221607821E+01  0.260981396E+01
     4
 # iter = 59000  time[fs]=59.00000
   C -0.679086639E+01  0.294179009E-01  0.105198081E+00
   C  0.647604254E+01  0.244631398E+00 -0.811679771E-01
   H -0.300207827E+02 -0.174150579E+01 -0.258212500E+01
   H  0.291326271E+02 -0.224386287E+01  0.264288226E+01
     4
 # iter = 59500  time[fs]=59.50000
   C -0.688518099E+01  0.300605511E-01  0.106918167E+00
   C  0.656590473E+01  0.248098333E+00 -0.825353858E-01
   H -0.303929048E+02 -0.176251510E+01 -0.261443298E+01
   H  0.294911389E+02 -0.227165644E+01  0.267596111E+01
     4
 # iter = 60000  time[fs]=60.00000
   C -0.697957896E+01  0.307023260E-01  0.108639903E+00
   C  0.665585002E+01  0.251567364E+00 -0.839045039E-01
   H -0.307651225E+02 -0.178353034E+01 -0.264675058E+01
   H  0.298497496E+02 -0.229945871E+01  0.270905029E+01
     4
 # iter = 60500  time[fs]=60.50000
   C -0.707405806E+01  0.313432520E-01  0.110363251E+00
   C  0.674587615E+01  0.255038434E+00 -0.852752912E-01
   H -0.311374335E+02 -0.180455136E+01 -0.267907756E+01
   H  0.302084571E+02 -0.232726948E+01  0.274214955E+01
     4
 # iter = 61000  time[fs]=61.00000
   C -0.716861613E+01  0.319833541E-01  0.112088172E+00
   C  0.683598096E+01  0.258511492E+00 -0.866477088E-01
   H -0.315098355E+02 -0.182557804E+01 -0.271141372E+01
   H  0.305672590E+02 -0.235508857E+01  0.277525866E+01
     4
 # iter = 61500  time[fs]=61.50000
   C -0.726325108E+01  0.326226566E-01  0.113814631E+00
   C  0.692616239E+01  0.261986487E+00 -0.880217190E-01
   H -0.318823265E+02 -0.184661024E+01 -0.274375885E+01
   H  0.309261532E+02 -0.238291579E+01  0.280837742E+01
     4
 # iter = 62000  time[fs]=62.00000
   C -0.735796091E+01  0.332611825E-01  0.115542591E+00
   C  0.701641842E+01  0.265463371E+00 -0.893972856E-01
   H -0.322549045E+02 -0.186764784E+01 -0.277611274E+01
   H  0.312851375E+02 -0.241075096E+01  0.284150559E+01
     4
 # iter = 62500  time[fs]=62.50000
   C -0.745274369E+01  0.338989541E-01  0.117272020E+00
   C  0.710674715E+01  0.268942097E+00 -0.907743735E-01
   H -0.326275675E+02 -0.188869072E+01 -0.280847521E+01
   H  0.316442099E+02 -0.243859390E+01  0.287464298E+01
     4
 # iter = 63000  time[fs]=63.00000
   C -0.754759757E+01  0.345359926E-01  0.119002883E+00
   C  0.719714672E+01  0.272422620E+00 -0.921529486E-01
   H -0.330003135E+02 -0.190973875E+01 -0.284084607E+01
   H  0.320033686E+02 -0.246644445E+01  0.290778938E+01
     4
 # iter = 63500  time[fs]=63.50000
   C -0.764252077E+01  0.351723185E-01  0.120735149E+00
   C  0.728761535E+01  0.275904897E+00 -0.935329781E-01
   H -0.333731408E+02 -0.193079184E+01 -0.287322514E+01
   H  0.323626115E+02 -0.249430244E+01  0.294094461E+01
     4
 # iter = 64000  time[fs]=64.00000
   C -0.773751156E+01  0.358079515E-01  0.122468788E+00
   C  0.737815133E+01  0.279388885E+00 -0.949144303E-01
   H -0.337460476E+02 -0.195184986E+01 -0.290561224E+01
   H  0.327219368E+02 -0.252216772E+01  0.297410848E+01
     4
 # iter = 64500  time[fs]=64.50000
   C -0.783256829E+01  0.364429103E-01  0.124203768E+00
   C  0.746875300E+01  0.282874545E+00 -0.962972742E-01
   H -0.341190321E+02 -0.197291272E+01 -0.293800720E+01
   H  0.330813428E+02 -0.255004013E+01  0.300728080E+01
     4
 # iter = 65000  time[fs]=65.00000
   C -0.792768935E+01  0.370772131E-01  0.125940063E+00
   C  0.755941877E+01  0.286361838E+00 -0.976814802E-01
   H -0.344920927E+02 -0.199398031E+01 -0.297040985E+01
   H  0.334408278E+02 -0.257791953E+01  0.304046140E+01
     4
 # iter = 65500  time[fs]=65.50000
   C -0.802287320E+01  0.377108773E-01  0.127677642E+00
   C  0.765014709E+01  0.289850725E+00 -0.990670193E-01
   H -0.348652278E+02 -0.201505253E+01 -0.300282005E+01
   H  0.338003901E+02 -0.260580578E+01  0.307365012E+01
     4
 # iter = 66000  time[fs]=66.00000
   C -0.811811836E+01  0.383439197E-01  0.129416480E+00
   C  0.774093649E+01  0.293341170E+00 -0.100453864E+00
   H -0.352384357E+02 -0.203612928E+01 -0.303523763E+01
   H  0.341600280E+02 -0.263369873E+01  0.310684677E+01
     4
 # iter = 66500  time[fs]=66.50000
   C -0.821342338E+01  0.389763566E-01  0.131156550E+00
   C  0.783178552E+01  0.296833139E+00 -0.101841986E+00
   H -0.356117151E+02 -0.205721048E+01 -0.306766244E+01
   H  0.345197401E+02 -0.266159825E+01  0.314005122E+01
     4
 # iter = 67000  time[fs]=67.00000
   C -0.830878687E+01  0.396082033E-01  0.132897827E+00
   C  0.792269281E+01  0.300326597E+00 -0.103231360E+00
   H -0.359850644E+02 -0.207829602E+01 -0.310009434E+01
   H  0.348795247E+02 -0.268950420E+01  0.317326329E+01
     4
 # iter = 67500  time[fs]=67.50000
   C -0.840420750E+01  0.402394750E-01  0.134640285E+00
   C  0.801365701E+01  0.303821512E+00 -0.104621960E+00
   H -0.363584823E+02 -0.209938583E+01 -0.313253318E+01
   H  0.352393805E+02 -0.271741648E+01  0.320648284E+01
     4
 # iter = 68000  time[fs]=68.00000
   C -0.849968396E+01  0.408701860E-01  0.136383901E+00
   C  0.810467684E+01  0.307317851E+00 -0.106013762E+00
   H -0.367319672E+02 -0.212047982E+01 -0.316497884E+01
   H  0.355993059E+02 -0.274533494E+01  0.323970973E+01
     4
 # iter = 68500  time[fs]=68.50000
   C -0.859521501E+01  0.415003503E-01  0.138128652E+00
   C  0.819575103E+01  0.310815584E+00 -0.107406741E+00
   H -0.371055180E+02 -0.214157791E+01 -0.319743117E+01
   H  0.359592997E+02 -0.277325947E+01  0.327294380E+01
     4
 # iter = 69000  time[fs]=69.00000
   C -0.869079942E+01  0.421299813E-01  0.139874515E+00
   C  0.828687839E+01  0.314314682E+00 -0.108800874E+00
   H -0.374791332E+02 -0.216268001E+01 -0.322989006E+01
   H  0.363193605E+02 -0.280118996E+01  0.330618494E+01
     4
 # iter = 69500  time[fs]=69.50000
   C -0.878643603E+01  0.427590920E-01  0.141621467E+00
   C  0.837805773E+01  0.317815115E+00 -0.110196138E+00
   H -0.378528117E+02 -0.218378605E+01 -0.326235536E+01
   H  0.366794869E+02 -0.282912628E+01  0.333943299E+01
     4
 # iter = 70000  time[fs]=70.00000
   C -0.888212370E+01  0.433876949E-01  0.143369489E+00
   C  0.846928794E+01  0.321316855E+00 -0.111592513E+00
   H -0.382265522E+02 -0.220489595E+01 -0.329482697E+01
   H  0.370396778E+02 -0.285706834E+01  0.337268783E+01
     4
 # iter = 70500  time[fs]=70.50000
   C -0.897786132E+01  0.440158021E-01  0.145118559E+00
   C  0.856056790E+01  0.324819875E+00 -0.112989975E+00
   H -0.386003535E+02 -0.222600964E+01 -0.332730476E+01
   H  0.373999318E+02 -0.288501603E+01  0.340594934E+01
     4
 # iter = 71000  time[fs]=71.00000
   C -0.907364784E+01  0.446434252E-01  0.146868657E+00
   C  0.865189657E+01  0.328324150E+00 -0.114388504E+00
   H -0.389742144E+02 -0.224712705E+01 -0.335978862E+01
   H  0.377602478E+02 -0.291296924E+01  0.343921738E+01
     4
 # iter = 71500  time[fs]=71.50000
   C -0.916948221E+01  0.452705756E-01  0.148619763E+00
   C  0.874327290E+01  0.331829653E+00 -0.115788081E+00
   H -0.393481339E+02 -0.226824811E+01 -0.339227844E+01
   H  0.381206246E+02 -0.294092786E+01  0.347249185E+01
     4
 # iter = 72000  time[fs]=72.00000
   C -0.926536344E+01  0.458972640E-01  0.150371859E+00
   C  0.883469591E+01  0.335336360E+00 -0.117188686E+00
   H -0.397221109E+02 -0.228937275E+01 -0.342477410E+01
   H  0.384810612E+02 -0.296889182E+01  0.350577262E+01
     4
 # iter = 72500  time[fs]=72.50000
   C -0.936129056E+01  0.465235012E-01  0.152124926E+00
   C  0.892616461E+01  0.338844247E+00 -0.118590298E+00
   H -0.400961443E+02 -0.231050091E+01 -0.345727551E+01
   H  0.388415563E+02 -0.299686099E+01  0.353905958E+01
     4
 # iter = 73000  time[fs]=73.00000
   C -0.945726263E+01  0.471492973E-01  0.153878946E+00
   C  0.901767809E+01  0.342353290E+00 -0.119992901E+00
   H -0.404702330E+02 -0.233163252E+01 -0.348978256E+01
   H  0.392021089E+02 -0.302483531E+01  0.357235263E+01
     4
 # iter = 73500  time[fs]=73.50000
   C -0.955327873E+01  0.477746620E-01  0.155633901E+00
   C  0.910923542E+01  0.345863468E+00 -0.121396476E+00
   H -0.408443760E+02 -0.235276752E+01 -0.352229515E+01
   H  0.395627181E+02 -0.305281467E+01  0.360565165E+01
     4
 # iter = 74000  time[fs]=74.00000
   C -0.964933798E+01  0.483996051E-01  0.157389776E+00
   C  0.920083572E+01  0.349374758E+00 -0.122801005E+00
   H -0.412185724E+02 -0.237390585E+01 -0.355481317E+01
   H  0.399233827E+02 -0.308079898E+01  0.363895654E+01
     4
 # iter = 74500  time[fs]=74.50000
   C -0.974543952E+01  0.490241358E-01  0.159146552E+00
   C  0.929247814E+01  0.352887139E+00 -0.124206471E+00
   H -0.415928213E+02 -0.239504745E+01 -0.358733655E+01
   H  0.402841018E+02 -0.310878816E+01  0.367226719E+01
     4
 # iter = 75000  time[fs]=75.00000
   C -0.984158251E+01  0.496482630E-01  0.160904215E+00
   C  0.938416185E+01  0.356400590E+00 -0.125612858E+00
   H -0.419671217E+02 -0.241619227E+01 -0.361986518E+01
   H  0.406448744E+02 -0.313678214E+01  0.370558352E+01
     4
 # iter = 75500  time[fs]=75.50000
   C -0.993776615E+01  0.502719953E-01  0.162662747E+00
   C  0.947588603E+01  0.359915091E+00 -0.127020149E+00
   H -0.423414726E+02 -0.243734024E+01 -0.365239897E+01
   H  0.410056996E+02 -0.316478081E+01  0.373890541E+01
     4
 # iter = 76000  time[fs]=76.00000
   C -0.100339896E+02  0.508953413E-01  0.164422135E+00
   C  0.956764991E+01  0.363430623E+00 -0.128428329E+00
   H -0.427158733E+02 -0.245849132E+01 -0.368493784E+01
   H  0.413665766E+02 -0.319278412E+01  0.377223279E+01
     4
 # iter = 76500  time[fs]=76.50000
   C -0.101302522E+02  0.515183090E-01  0.166182363E+00
   C  0.965945272E+01  0.366947167E+00 -0.129837382E+00
   H -0.430903228E+02 -0.247964544E+01 -0.371748170E+01
   H  0.417275043E+02 -0.322079197E+01  0.380556555E+01
     4
 # iter = 77000  time[fs]=77.00000
   C -0.102265532E+02  0.521409064E-01  0.167943417E+00
   C  0.975129371E+01  0.370464703E+00 -0.131247293E+00
   H -0.434648204E+02 -0.250080257E+01 -0.375003046E+01
   H  0.420884819E+02 -0.324880429E+01  0.383890360E+01
     4
 # iter = 77500  time[fs]=77.50000
   C -0.103228917E+02  0.527631412E-01  0.169705283E+00
   C  0.984317217E+01  0.373983214E+00 -0.132658047E+00
   H -0.438393651E+02 -0.252196264E+01 -0.378258405E+01
   H  0.424495087E+02 -0.327682102E+01  0.387224687E+01
     4
 # iter = 78000  time[fs]=78.00000
   C -0.104192672E+02  0.533850207E-01  0.171467946E+00
   C  0.993508741E+01  0.377502683E+00 -0.134069631E+00
   H -0.442139563E+02 -0.254312562E+01 -0.381514239E+01
   H  0.428105837E+02 -0.330484207E+01  0.390559526E+01
     4
 # iter = 78500  time[fs]=78.50000
   C -0.105156789E+02  0.540065522E-01  0.173231393E+00
   C  0.100270387E+02  0.381023093E+00 -0.135482030E+00
   H -0.445885931E+02 -0.256429145E+01 -0.384770540E+01
   H  0.431717062E+02 -0.333286738E+01  0.393894869E+01
     4
 # iter = 79000  time[fs]=79.00000
   C -0.106121262E+02  0.546277428E-01  0.174995612E+00
   C  0.101190255E+02  0.384544426E+00 -0.136895231E+00
   H -0.449632749E+02 -0.258546008E+01 -0.388027300E+01
   H  0.435328754E+02 -0.336089688E+01  0.397230708E+01
     4
 # iter = 79500  time[fs]=79.50000
   C -0.107086084E+02  0.552485992E-01  0.176760589E+00
   C  0.102110470E+02  0.388066667E+00 -0.138309221E+00
   H -0.453380008E+02 -0.260663147E+01 -0.391284512E+01
   H  0.438940906E+02 -0.338893051E+01  0.400567035E+01
     4
 # iter = 80000  time[fs]=80.00000
   C -0.108051250E+02  0.558691281E-01  0.178526313E+00
   C  0.103031027E+02  0.391589800E+00 -0.139723986E+00
   H -0.457127701E+02 -0.262780558E+01 -0.394542169E+01
   H  0.442553509E+02 -0.341696819E+01  0.403903843E+01
