     4
 # iter = 25000  time[fs]=25.00000
   C -0.968973088E+00  0.546884080E-01  0.146000850E-01
   C  0.968449503E+00 -0.527404028E-02 -0.109897296E-01
   H -0.517880086E+01  0.560017991E-03  0.203365763E+00
   H  0.523324194E+01  0.392881884E+00  0.953807334E-01
     4
 # iter = 25500  time[fs]=25.50000
   C -0.101550498E+01  0.552232326E-01  0.134549354E-01
   C  0.100919773E+01 -0.908298318E-02 -0.127745623E-01
   H -0.551805439E+01 -0.105934336E-01  0.207788097E+00
   H  0.553873482E+01  0.407428947E+00  0.933419854E-01
     4
 # iter = 26000  time[fs]=26.00000
   C -0.106667026E+01  0.549944782E-01  0.114689320E-01
   C  0.105264996E+01 -0.140754968E-01 -0.156638691E-01
   H -0.586551208E+01 -0.271825459E-01  0.206914746E+00
   H  0.584158481E+01  0.416777728E+00  0.859431153E-01
     4
 # iter = 26500  time[fs]=26.50000
   C -0.111951445E+01  0.566258139E-01  0.112692762E-01
   C  0.110160448E+01 -0.171173430E-01 -0.165269828E-01
   H -0.620477030E+01 -0.331276408E-01  0.216809298E+00
   H  0.615760328E+01  0.437002120E+00  0.892745767E-01
     4
 # iter = 27000  time[fs]=27.00000
   C -0.117360271E+01  0.602393200E-01  0.129818860E-01
   C  0.115590999E+01 -0.180445477E-01 -0.152039016E-01
   H -0.653476743E+01 -0.276304355E-01  0.238257010E+00
   H  0.648733483E+01  0.468879497E+00  0.104128377E+00
     4
 # iter = 27500  time[fs]=27.50000
   C -0.123060974E+01  0.638691185E-01  0.146448699E-01
   C  0.121295891E+01 -0.191727939E-01 -0.140144937E-01
   H -0.686724610E+01 -0.226494969E-01  0.259288676E+00
   H  0.681857990E+01  0.500417834E+00  0.118525519E+00
     4
 # iter = 28000  time[fs]=28.00000
   C -0.129166213E+01  0.661223494E-01  0.148693870E-01
   C  0.127084794E+01 -0.221384852E-01 -0.145993487E-01
   H -0.721048133E+01 -0.266455664E-01  0.271434402E+00
   H  0.714267290E+01  0.523129832E+00  0.123989857E+00
     4
 # iter = 28500  time[fs]=28.50000
   C -0.135596645E+01  0.675517343E-01  0.142121158E-01
   C  0.133000754E+01 -0.262692046E-01 -0.162901030E-01
   H -0.756088567E+01 -0.361963040E-01  0.278108370E+00
   H  0.746287657E+01  0.540427963E+00  0.123943180E+00
     4
 # iter = 29000  time[fs]=29.00000
   C -0.142193911E+01  0.695240092E-01  0.140436127E-01
   C  0.139185701E+01 -0.299272845E-01 -0.174529705E-01
   H -0.790992121E+01 -0.429096755E-01  0.287695389E+00
   H  0.778745269E+01  0.560702244E+00  0.126783463E+00
     4
 # iter = 29500  time[fs]=29.50000
   C -0.148891617E+01  0.725074936E-01  0.148358329E-01
   C  0.145676936E+01 -0.325430999E-01 -0.175220289E-01
   H -0.825456264E+01 -0.438866442E-01  0.303088238E+00
   H  0.811917922E+01  0.586844537E+00  0.135409631E+00
     4
 # iter = 30000  time[fs]=30.00000
   C -0.155739180E+01  0.758318571E-01  0.159218700E-01
   C  0.152378426E+01 -0.349002706E-01 -0.172844036E-01
   H -0.859876259E+01 -0.431888313E-01  0.320219891E+00
   H  0.845387752E+01  0.614778872E+00  0.145752097E+00
     4
 # iter = 30500  time[fs]=30.50000
   C -0.162795444E+01  0.787504566E-01  0.165582835E-01
   C  0.159186786E+01 -0.378741022E-01 -0.176186809E-01
   H -0.894695602E+01 -0.453470116E-01  0.334554816E+00
   H  0.878691136E+01  0.639960604E+00  0.153271910E+00
     4
 # iter = 31000  time[fs]=31.00000
   C -0.170047729E+01  0.812484394E-01  0.167332010E-01
   C  0.166087077E+01 -0.414719015E-01 -0.185352099E-01
   H -0.929911891E+01 -0.504230118E-01  0.346026910E+00
   H  0.911813060E+01  0.662320307E+00  0.157904663E+00
     4
 # iter = 31500  time[fs]=31.50000
   C -0.177435377E+01  0.838055023E-01  0.169290815E-01
   C  0.173124465E+01 -0.451146353E-01 -0.194577679E-01
   H -0.965221644E+01 -0.554592834E-01  0.357589862E+00
   H  0.945041814E+01  0.684812342E+00  0.162609161E+00
     4
 # iter = 32000  time[fs]=32.00000
   C -0.184917374E+01  0.867178705E-01  0.174447021E-01
   C  0.180323547E+01 -0.484420273E-01 -0.200286745E-01
   H -0.100043456E+02 -0.586219608E-01  0.371074073E+00
   H  0.978553981E+01  0.709266726E+00  0.169219410E+00
     4
 # iter = 32500  time[fs]=32.50000
   C -0.192496522E+01  0.898551155E-01  0.181519871E-01
   C  0.187659331E+01 -0.516012627E-01 -0.203975124E-01
   H -0.103562203E+02 -0.606866492E-01  0.385700837E+00
   H  0.101226554E+02  0.734901463E+00  0.176957050E+00
     4
 # iter = 33000  time[fs]=33.00000
   C -0.200190110E+01  0.929521299E-01  0.187879961E-01
   C  0.195091794E+01 -0.549001642E-01 -0.208743135E-01
   H -0.107093854E+02 -0.632538927E-01  0.399866816E+00
   H  0.104601046E+02  0.760109137E+00  0.184217967E+00
     4
 # iter = 33500  time[fs]=33.50000
   C -0.207997782E+01  0.959294304E-01  0.192752403E-01
   C  0.202603808E+01 -0.584267362E-01 -0.215491145E-01
   H -0.110642587E+02 -0.667915805E-01  0.413101580E+00
   H  0.107973666E+02  0.784416787E+00  0.190532195E+00
     4
 # iter = 34000  time[fs]=34.00000
   C -0.215901112E+01  0.988963254E-01  0.197248636E-01
   C  0.210201423E+01 -0.620453443E-01 -0.222881502E-01
   H -0.114201099E+02 -0.706154508E-01  0.426087073E+00
   H  0.111350790E+02  0.808505372E+00  0.196583414E+00
     4
 # iter = 34500  time[fs]=34.50000
   C -0.223882621E+01  0.101959860E+00  0.202456003E-01
   C  0.217891088E+01 -0.656235610E-01 -0.229607126E-01
   H -0.117762284E+02 -0.740565369E-01  0.439490140E+00
   H  0.114738683E+02  0.833040893E+00  0.203040107E+00
     4
 # iter = 35000  time[fs]=35.00000
   C -0.231936559E+01  0.105116166E+00  0.208351392E-01
   C  0.225666674E+01 -0.691611436E-01 -0.235681432E-01
   H -0.121325863E+02 -0.771249911E-01  0.453298692E+00
   H  0.118136845E+02  0.858009732E+00  0.209890936E+00
     4
 # iter = 35500  time[fs]=35.50000
   C -0.240063792E+01  0.108300842E+00  0.214305094E-01
   C  0.233515390E+01 -0.727301606E-01 -0.241839701E-01
   H -0.124895300E+02 -0.802020855E-01  0.467129678E+00
   H  0.121541096E+02  0.883026985E+00  0.216753095E+00
     4
 # iter = 36000  time[fs]=36.00000
   C -0.248262831E+01  0.111478132E+00  0.219972790E-01
   C  0.241428315E+01 -0.763690261E-01 -0.248479538E-01
   H -0.128472347E+02 -0.834950274E-01  0.480774257E+00
   H  0.124949025E+02  0.907882269E+00  0.223418132E+00
     4
 # iter = 36500  time[fs]=36.50000
   C -0.256527732E+01  0.114661317E+00  0.225499468E-01
   C  0.249402774E+01 -0.800582572E-01 -0.255418533E-01
   H -0.132055797E+02 -0.869122995E-01  0.494322437E+00
   H  0.128361241E+02  0.932664502E+00  0.229976749E+00
     4
 # iter = 37000  time[fs]=37.00000
   C -0.264851817E+01  0.117875053E+00  0.231142957E-01
   C  0.257437813E+01 -0.837651630E-01 -0.262341258E-01
   H -0.135643775E+02 -0.902937042E-01  0.507933019E+00
   H  0.131779063E+02  0.957531565E+00  0.236588475E+00
     4
 # iter = 37500  time[fs]=37.50000
   C -0.273230725E+01  0.121124434E+00  0.236964619E-01
   C  0.265530489E+01 -0.874805600E-01 -0.269166491E-01
   H -0.139235633E+02 -0.935993648E-01  0.521644588E+00
   H  0.135202627E+02  0.982521057E+00  0.243292436E+00
     4
 # iter = 38000  time[fs]=38.00000
   C -0.281662033E+01  0.124398387E+00  0.242863372E-01
   C  0.273676239E+01 -0.912147131E-01 -0.276006712E-01
   H -0.142831734E+02 -0.968889009E-01  0.535396324E+00
   H  0.138631090E+02  0.100757113E+01  0.250028199E+00
     4
 # iter = 38500  time[fs]=38.50000
   C -0.290143463E+01  0.127687310E+00  0.248752132E-01
   C  0.281870944E+01 -0.949763645E-01 -0.282958457E-01
   H -0.146432378E+02 -0.100213568E+00  0.549135857E+00
   H  0.142063715E+02  0.103262844E+01  0.256743756E+00
     4
 # iter = 39000  time[fs]=39.00000
   C -0.298672111E+01  0.130990469E+00  0.254631865E-01
   C  0.290111778E+01 -0.987639250E-01 -0.290014294E-01
   H -0.150037339E+02 -0.103570982E+00  0.562864532E+00
   H  0.145500312E+02  0.105769351E+01  0.263440848E+00
     4
 # iter = 39500  time[fs]=39.50000
   C -0.307244910E+01  0.134311082E+00  0.260542464E-01
   C  0.298396603E+01 -0.102571296E+00 -0.297121099E-01
   H -0.153646173E+02 -0.106935118E+00  0.576607405E+00
   H  0.148940946E+02  0.108279063E+01  0.270144923E+00
     4
 # iter = 40000  time[fs]=40.00000
   C -0.315859221E+01  0.137650244E+00  0.266502038E-01
   C  0.306723222E+01 -0.106395070E+00 -0.304252110E-01
   H -0.157258580E+02 -0.110293406E+00  0.590376138E+00
   H  0.152385560E+02  0.110793075E+01  0.276867999E+00
     4
 # iter = 40500  time[fs]=40.50000
   C -0.324512883E+01  0.141006194E+00  0.272499675E-01
   C  0.315089281E+01 -0.110235380E+00 -0.311415461E-01
   H -0.160874451E+02 -0.113651135E+00  0.604164597E+00
   H  0.155833928E+02  0.113310703E+01  0.283604249E+00
     4
 # iter = 41000  time[fs]=41.00000
   C -0.333203945E+01  0.144376775E+00  0.278520026E-01
   C  0.323492537E+01 -0.114092968E+00 -0.318624948E-01
   H -0.164493716E+02 -0.117016414E+00  0.617963876E+00
   H  0.159285809E+02  0.115830991E+01  0.290345053E+00
     4
 # iter = 41500  time[fs]=41.50000
   C -0.341930505E+01  0.147760965E+00  0.284558680E-01
   C  0.331931026E+01 -0.117967358E+00 -0.325881727E-01
   H -0.168116250E+02 -0.120390767E+00  0.631771704E+00
   H  0.162741037E+02  0.118353650E+01  0.297088414E+00
     4
 # iter = 42000  time[fs]=42.00000
   C -0.350690724E+01  0.151158523E+00  0.290618681E-01
   C  0.340403013E+01 -0.121857255E+00 -0.333178413E-01
   H -0.171741889E+02 -0.123771254E+00  0.645590322E+00
   H  0.166199500E+02  0.120878847E+01  0.303836832E+00
     4
 # iter = 42500  time[fs]=42.50000
   C -0.359482899E+01  0.154569149E+00  0.296702109E-01
   C  0.348906873E+01 -0.125761547E+00 -0.340509054E-01
   H -0.175370487E+02 -0.127155601E+00  0.659421343E+00
   H  0.169661088E+02  0.123406689E+01  0.310592165E+00
     4
 # iter = 43000  time[fs]=43.00000
   C -0.368305481E+01  0.157992225E+00  0.302807536E-01
   C  0.357441056E+01 -0.129679593E+00 -0.347872121E-01
   H -0.179001925E+02 -0.130543755E+00  0.673264199E+00
   H  0.173125676E+02  0.125937068E+01  0.317354070E+00
     4
 # iter = 43500  time[fs]=43.50000
   C -0.377157036E+01  0.161427041E+00  0.308932348E-01
   C  0.366004100E+01 -0.133610948E+00 -0.355267729E-01
   H -0.182636100E+02 -0.133936452E+00  0.687117565E+00
   H  0.176593139E+02  0.128469802E+01  0.324121437E+00
     4
 # iter = 44000  time[fs]=44.00000
   C -0.386036222E+01  0.164873010E+00  0.315074875E-01
   C  0.374594650E+01 -0.137555105E+00 -0.362695085E-01
   H -0.186272912E+02 -0.137333913E+00  0.700980666E+00
   H  0.180063364E+02  0.131004768E+01  0.330893689E+00
     4
 # iter = 44500  time[fs]=44.50000
   C -0.394941770E+01  0.168329671E+00  0.321234431E-01
   C  0.383211450E+01 -0.141511485E+00 -0.370152422E-01
   H -0.189912258E+02 -0.140735813E+00  0.714853306E+00
   H  0.183536249E+02  0.133541904E+01  0.337670818E+00
     4
 # iter = 45000  time[fs]=45.00000
   C -0.403872498E+01  0.171796598E+00  0.327410488E-01
   C  0.391853325E+01 -0.145479529E+00 -0.377637958E-01
   H -0.193554042E+02 -0.144141779E+00  0.728735358E+00
   H  0.187011699E+02  0.136081154E+01  0.344452878E+00
     4
 # iter = 45500  time[fs]=45.50000
   C -0.412827296E+01  0.175273367E+00  0.333602276E-01
   C  0.400519172E+01 -0.149458749E+00 -0.385150367E-01
   H -0.197198175E+02 -0.147551635E+00  0.742626531E+00
   H  0.190489621E+02  0.138622450E+01  0.351239744E+00
     4
 # iter = 46000  time[fs]=46.00000
   C -0.421805126E+01  0.178759558E+00  0.339808910E-01
   C  0.409207953E+01 -0.153448704E+00 -0.392688603E-01
   H -0.200844572E+02 -0.150965314E+00  0.756526445E+00
   H  0.193969928E+02  0.141165717E+01  0.358031196E+00
     4
 # iter = 46500  time[fs]=46.50000
   C -0.430805015E+01  0.182254782E+00  0.346029591E-01
   C  0.417918696E+01 -0.157448973E+00 -0.400251653E-01
   H -0.204493156E+02 -0.154382738E+00  0.770434755E+00
   H  0.197452535E+02  0.143710886E+01  0.364827038E+00
     4
 # iter = 47000  time[fs]=47.00000
   C -0.439826044E+01  0.185758677E+00  0.352263649E-01
   C  0.426650486E+01 -0.161459155E+00 -0.407838478E-01
   H -0.208143849E+02 -0.157803785E+00  0.784351181E+00
   H  0.200937364E+02  0.146257893E+01  0.371627135E+00
     4
 # iter = 47500  time[fs]=47.50000
   C -0.448867351E+01  0.189270905E+00  0.358510477E-01
   C  0.435402462E+01 -0.165478863E+00 -0.415448078E-01
   H -0.211796581E+02 -0.161228325E+00  0.798275471E+00
   H  0.204424340E+02  0.148806682E+01  0.378431367E+00
     4
 # iter = 48000  time[fs]=48.00000
   C -0.457928122E+01  0.192791147E+00  0.364769495E-01
   C  0.444173814E+01 -0.169507739E+00 -0.423079526E-01
   H -0.215451282E+02 -0.164656246E+00  0.812207373E+00
   H  0.207913392E+02  0.151357198E+01  0.385239611E+00
     4
 # iter = 48500  time[fs]=48.50000
   C -0.467007589E+01  0.196319096E+00  0.371040143E-01
   C  0.452963776E+01 -0.173545441E+00 -0.430731968E-01
   H -0.219107889E+02 -0.168087447E+00  0.826146642E+00
   H  0.211404452E+02  0.153909385E+01  0.392051744E+00
     4
 # iter = 49000  time[fs]=49.00000
   C -0.476105029E+01  0.199854466E+00  0.377321896E-01
   C  0.461771627E+01 -0.177591648E+00 -0.438404599E-01
   H -0.222766338E+02 -0.171521835E+00  0.840093040E+00
   H  0.214897457E+02  0.156463192E+01  0.398867643E+00
     4
 # iter = 49500  time[fs]=49.50000
   C -0.485219757E+01  0.203396984E+00  0.383614265E-01
   C  0.470596684E+01 -0.181646055E+00 -0.446096654E-01
   H -0.226426572E+02 -0.174959316E+00  0.854046345E+00
   H  0.218392343E+02  0.159018571E+01  0.405687197E+00
     4
 # iter = 50000  time[fs]=50.00000
   C -0.494351126E+01  0.206946391E+00  0.389916794E-01
   C  0.479438303E+01 -0.185708373E+00 -0.453807407E-01
   H -0.230088534E+02 -0.178399801E+00  0.868006347E+00
   H  0.221889054E+02  0.161575474E+01  0.412510300E+00
     4
 # iter = 50500  time[fs]=50.50000
   C -0.503498523E+01  0.210502444E+00  0.396229051E-01
   C  0.488295872E+01 -0.189778326E+00 -0.461536173E-01
   H -0.233752171E+02 -0.181843203E+00  0.881972844E+00
   H  0.225387533E+02  0.164133858E+01  0.419336850E+00
     4
 # iter = 51000  time[fs]=51.00000
   C -0.512661368E+01  0.214064910E+00  0.402550631E-01
   C  0.497168813E+01 -0.193855653E+00 -0.469282303E-01
   H -0.237417432E+02 -0.185289440E+00  0.895945643E+00
   H  0.228887726E+02  0.166693679E+01  0.426166748E+00
     4
 # iter = 51500  time[fs]=51.50000
   C -0.521839110E+01  0.217633567E+00  0.408881151E-01
   C  0.506056577E+01 -0.197940106E+00 -0.477045183E-01
   H -0.241084268E+02 -0.188738435E+00  0.909924560E+00
   H  0.232389582E+02  0.169254896E+01  0.432999901E+00
     4
 # iter = 52000  time[fs]=52.00000
   C -0.531031225E+01  0.221208207E+00  0.415220248E-01
   C  0.514958643E+01 -0.202031449E+00 -0.484824228E-01
   H -0.244752632E+02 -0.192190112E+00  0.923909417E+00
   H  0.235893054E+02  0.171817470E+01  0.439836219E+00
     4
 # iter = 52500  time[fs]=52.50000
   C -0.540237219E+01  0.224788630E+00  0.421567583E-01
   C  0.523874517E+01 -0.206129457E+00 -0.492618887E-01
   H -0.248422480E+02 -0.195644398E+00  0.937900046E+00
   H  0.239398094E+02  0.174381364E+01  0.446675616E+00
     4
 # iter = 53000  time[fs]=53.00000
   C -0.549456618E+01  0.228374645E+00  0.427922833E-01
   C  0.532803729E+01 -0.210233915E+00 -0.500428631E-01
   H -0.252093770E+02 -0.199101226E+00  0.951896285E+00
   H  0.242904657E+02  0.176946542E+01  0.453518008E+00
     4
 # iter = 53500  time[fs]=53.50000
   C -0.558688975E+01  0.231966072E+00  0.434285693E-01
   C  0.541745830E+01 -0.214344620E+00 -0.508252962E-01
   H -0.255766459E+02 -0.202560528E+00  0.965897978E+00
   H  0.246412700E+02  0.179512969E+01  0.460363317E+00
     4
 # iter = 54000  time[fs]=54.00000
   C -0.567933860E+01  0.235562739E+00  0.440655874E-01
   C  0.550700396E+01 -0.218461377E+00 -0.516091402E-01
   H -0.259440511E+02 -0.206022241E+00  0.979904977E+00
   H  0.249922183E+02  0.182080612E+01  0.467211466E+00
     4
 # iter = 54500  time[fs]=54.50000
   C -0.577190869E+01  0.239164479E+00  0.447033104E-01
   C  0.559667021E+01 -0.222583998E+00 -0.523943498E-01
   H -0.263115886E+02 -0.209486302E+00  0.993917139E+00
   H  0.253433067E+02  0.184649438E+01  0.474062381E+00
     4
 # iter = 55000  time[fs]=55.00000
   C -0.586459611E+01  0.242771137E+00  0.453417122E-01
   C  0.568645317E+01 -0.226712308E+00 -0.531808818E-01
   H -0.266792548E+02 -0.212952654E+00  0.100793433E+01
   H  0.256945313E+02  0.187219418E+01  0.480915992E+00
     4
 # iter = 55500  time[fs]=55.50000
   C -0.595739718E+01  0.246382561E+00  0.459807683E-01
   C  0.577634917E+01 -0.230846134E+00 -0.539686949E-01
   H -0.270470464E+02 -0.216421238E+00  0.102195641E+01
   H  0.260458885E+02  0.189790522E+01  0.487772231E+00
     4
 # iter = 56000  time[fs]=56.00000
   C -0.605030835E+01  0.249998609E+00  0.466204553E-01
   C  0.586635468E+01 -0.234985316E+00 -0.547577496E-01
   H -0.274149600E+02 -0.219892001E+00  0.103598326E+01
   H  0.263973748E+02  0.192362722E+01  0.494631033E+00
     4
 # iter = 56500  time[fs]=56.50000
   C -0.614332624E+01  0.253619143E+00  0.472607510E-01
   C  0.595646633E+01 -0.239129696E+00 -0.555480085E-01
   H -0.277829924E+02 -0.223364889E+00  0.105001475E+01
   H  0.267489869E+02  0.194935990E+01  0.501492335E+00
     4
 # iter = 57000  time[fs]=57.00000
   C -0.623644763E+01  0.257244031E+00  0.479016342E-01
   C  0.604668092E+01 -0.243279127E+00 -0.563394356E-01
   H -0.281511406E+02 -0.226839851E+00  0.106405077E+01
   H  0.271007215E+02  0.197510300E+01  0.508356075E+00
     4
 # iter = 57500  time[fs]=57.50000
   C -0.632966944E+01  0.260873148E+00  0.485430849E-01
   C  0.613699536E+01 -0.247433464E+00 -0.571319965E-01
   H -0.285194015E+02 -0.230316839E+00  0.107809121E+01
   H  0.274525756E+02  0.200085627E+01  0.515222196E+00
     4
 # iter = 58000  time[fs]=58.00000
   C -0.642298870E+01  0.264506373E+00  0.491850840E-01
   C  0.622740671E+01 -0.251592572E+00 -0.579256582E-01
   H -0.288877724E+02 -0.233795805E+00  0.109213596E+01
   H  0.278045462E+02  0.202661946E+01  0.522090641E+00
     4
 # iter = 58500  time[fs]=58.50000
   C -0.651640258E+01  0.268143590E+00  0.498276130E-01
   C  0.631791216E+01 -0.255756318E+00 -0.587203894E-01
   H -0.292562505E+02 -0.237276704E+00  0.110618491E+01
   H  0.281566303E+02  0.205239234E+01  0.528961356E+00
     4
 # iter = 59000  time[fs]=59.00000
   C -0.660990838E+01  0.271784689E+00  0.504706548E-01
   C  0.640850900E+01 -0.259924577E+00 -0.595161597E-01
   H -0.296248332E+02 -0.240759491E+00  0.112023795E+01
   H  0.285088253E+02  0.207817468E+01  0.535834287E+00
     4
 # iter = 59500  time[fs]=59.50000
   C -0.670350350E+01  0.275429562E+00  0.511141926E-01
   C  0.649919465E+01 -0.264097227E+00 -0.603129402E-01
   H -0.299935180E+02 -0.244244124E+00  0.113429501E+01
   H  0.288611284E+02  0.210396626E+01  0.542709385E+00
     4
 # iter = 60000  time[fs]=60.00000
   C -0.679718544E+01  0.279078109E+00  0.517582106E-01
   C  0.658996663E+01 -0.268274152E+00 -0.611107032E-01
   H -0.303623024E+02 -0.247730561E+00  0.114835597E+01
   H  0.292135372E+02  0.212976687E+01  0.549586601E+00
     4
 # iter = 60500  time[fs]=60.50000
   C -0.689095181E+01  0.282730230E+00  0.524026936E-01
   C  0.668082255E+01 -0.272455240E+00 -0.619094221E-01
   H -0.307311840E+02 -0.251218763E+00  0.116242075E+01
   H  0.295660489E+02  0.215557631E+01  0.556465886E+00
     4
 # iter = 61000  time[fs]=61.00000
   C -0.698480031E+01  0.286385830E+00  0.530476272E-01
   C  0.677176013E+01 -0.276640383E+00 -0.627090712E-01
   H -0.311001605E+02 -0.254708691E+00  0.117648926E+01
   H  0.299186614E+02  0.218139438E+01  0.563347196E+00
     4
 # iter = 61500  time[fs]=61.50000
   C -0.707872874E+01  0.290044821E+00  0.536929976E-01
   C  0.686277717E+01 -0.280829478E+00 -0.635096260E-01
   H -0.314692299E+02 -0.258200309E+00  0.119056142E+01
   H  0.302713723E+02  0.220722088E+01  0.570230485E+00
     4
 # iter = 62000  time[fs]=62.00000
   C -0.717273498E+01  0.293707113E+00  0.543387914E-01
   C  0.695387155E+01 -0.285022424E+00 -0.643110628E-01
   H -0.318383898E+02 -0.261693579E+00  0.120463715E+01
   H  0.306241793E+02  0.223305564E+01  0.577115711E+00
     4
 # iter = 62500  time[fs]=62.50000
   C -0.726681699E+01  0.297372623E+00  0.549849960E-01
   C  0.704504126E+01 -0.289219127E+00 -0.651133588E-01
   H -0.322076384E+02 -0.265188467E+00  0.121871636E+01
   H  0.309770802E+02  0.225889846E+01  0.584002833E+00
     4
 # iter = 63000  time[fs]=63.00000
   C -0.736097280E+01  0.301041270E+00  0.556315993E-01
   C  0.713628433E+01 -0.293419493E+00 -0.659164923E-01
   H -0.325769736E+02 -0.268684940E+00  0.123279899E+01
   H  0.313300731E+02  0.228474920E+01  0.590891810E+00
     4
 # iter = 63500  time[fs]=63.50000
   C -0.745520053E+01  0.304712976E+00  0.562785895E-01
   C  0.722759889E+01 -0.297623433E+00 -0.667204421E-01
   H -0.329463935E+02 -0.272182964E+00  0.124688495E+01
   H  0.316831558E+02  0.231060766E+01  0.597782604E+00
     4
 # iter = 64000  time[fs]=64.00000
   C -0.754949835E+01  0.308387666E+00  0.569259555E-01
   C  0.731898312E+01 -0.301830861E+00 -0.675251881E-01
   H -0.333158962E+02 -0.275682508E+00  0.126097417E+01
   H  0.320363264E+02  0.233647369E+01  0.604675176E+00
     4
 # iter = 64500  time[fs]=64.50000
   C -0.764386453E+01  0.312065267E+00  0.575736866E-01
   C  0.741043529E+01 -0.306041694E+00 -0.683307106E-01
   H -0.336854799E+02 -0.279183541E+00  0.127506659E+01
   H  0.323895830E+02  0.236234714E+01  0.611569491E+00
     4
 # iter = 65000  time[fs]=65.00000
   C -0.773829736E+01  0.315745709E+00  0.582217725E-01
   C  0.750195371E+01 -0.310255852E+00 -0.691369907E-01
   H -0.340551430E+02 -0.282686033E+00  0.128916214E+01
   H  0.327429238E+02  0.238822785E+01  0.618465512E+00
     4
 # iter = 65500  time[fs]=65.50000
   C -0.783279523E+01  0.319428925E+00  0.588702033E-01
   C  0.759353677E+01 -0.314473257E+00 -0.699440105E-01
   H -0.344248836E+02 -0.286189955E+00  0.130326075E+01
   H  0.330963471E+02  0.241411568E+01  0.625363206E+00
     4
 # iter = 66000  time[fs]=66.00000
   C -0.792735655E+01  0.323114850E+00  0.595189695E-01
   C  0.768518289E+01 -0.318693836E+00 -0.707517522E-01
   H -0.347947003E+02 -0.289695279E+00  0.131736236E+01
   H  0.334498509E+02  0.244001047E+01  0.632262539E+00
     4
 # iter = 66500  time[fs]=66.50000
   C -0.802197983E+01  0.326803421E+00  0.601680620E-01
   C  0.777689058E+01 -0.322917515E+00 -0.715601991E-01
   H -0.351645914E+02 -0.293201978E+00  0.133146691E+01
   H  0.338034338E+02  0.246591210E+01  0.639163479E+00
     4
 # iter = 67000  time[fs]=67.00000
   C -0.811666359E+01  0.330494577E+00  0.608174720E-01
   C  0.786865838E+01 -0.327144225E+00 -0.723693347E-01
   H -0.355345554E+02 -0.296710025E+00  0.134557434E+01
   H  0.341570941E+02  0.249182043E+01  0.646065994E+00
     4
 # iter = 67500  time[fs]=67.50000
   C -0.821140642E+01  0.334188259E+00  0.614671910E-01
   C  0.796048488E+01 -0.331373898E+00 -0.731791433E-01
   H -0.359045907E+02 -0.300219395E+00  0.135968459E+01
   H  0.345108303E+02  0.251773532E+01  0.652970054E+00
     4
 # iter = 68000  time[fs]=68.00000
   C -0.830620696E+01  0.337884411E+00  0.621172109E-01
   C  0.805236873E+01 -0.335606469E+00 -0.739896097E-01
   H -0.362746960E+02 -0.303730063E+00  0.137379761E+01
   H  0.348646407E+02  0.254365665E+01  0.659875629E+00
     4
 # iter = 68500  time[fs]=68.50000
   C -0.840106389E+01  0.341582978E+00  0.627675239E-01
   C  0.814430861E+01 -0.339841875E+00 -0.748007191E-01
   H -0.366448699E+02 -0.307242004E+00  0.138791334E+01
   H  0.352185240E+02  0.256958429E+01  0.666782691E+00
     4
 # iter = 69000  time[fs]=69.00000
   C -0.849597594E+01  0.345283906E+00  0.634181225E-01
   C  0.823630326E+01 -0.344080054E+00 -0.756124573E-01
   H -0.370151110E+02 -0.310755194E+00  0.140203173E+01
   H  0.355724787E+02  0.259551814E+01  0.673691212E+00
     4
 # iter = 69500  time[fs]=69.50000
   C -0.859094187E+01  0.348987144E+00  0.640689993E-01
   C  0.832835144E+01 -0.348320949E+00 -0.764248104E-01
   H -0.373854180E+02 -0.314269612E+00  0.141615273E+01
   H  0.359265034E+02  0.262145806E+01  0.680601164E+00
     4
 # iter = 70000  time[fs]=70.00000
   C -0.868596049E+01  0.352692642E+00  0.647201474E-01
   C  0.842045199E+01 -0.352564500E+00 -0.772377652E-01
   H -0.377557896E+02 -0.317785234E+00  0.143027629E+01
   H  0.362805968E+02  0.264740395E+01  0.687512521E+00
     4
 # iter = 70500  time[fs]=70.50000
   C -0.878103065E+01  0.356400352E+00  0.653715600E-01
   C  0.851260373E+01 -0.356810653E+00 -0.780513086E-01
   H -0.381262246E+02 -0.321302038E+00  0.144440237E+01
   H  0.366347575E+02  0.267335569E+01  0.694425258E+00
     4
 # iter = 71000  time[fs]=71.00000
   C -0.887615123E+01  0.360110228E+00  0.660232306E-01
   C  0.860480558E+01 -0.361059353E+00 -0.788654283E-01
   H -0.384967218E+02 -0.324820004E+00  0.145853090E+01
   H  0.369889843E+02  0.269931319E+01  0.701339348E+00
     4
 # iter = 71500  time[fs]=71.50000
   C -0.897132115E+01  0.363822223E+00  0.666751529E-01
   C  0.869705644E+01 -0.365310548E+00 -0.796801121E-01
   H -0.388672800E+02 -0.328339111E+00  0.147266186E+01
   H  0.373432760E+02  0.272527633E+01  0.708254769E+00
     4
 # iter = 72000  time[fs]=72.00000
   C -0.906653936E+01  0.367536295E+00  0.673273208E-01
   C  0.878935528E+01 -0.369564189E+00 -0.804953483E-01
   H -0.392378980E+02 -0.331859339E+00  0.148679519E+01
   H  0.376976312E+02  0.275124501E+01  0.715171496E+00
     4
 # iter = 72500  time[fs]=72.50000
   C -0.916180485E+01  0.371252401E+00  0.679797284E-01
   C  0.888170108E+01 -0.373820225E+00 -0.813111254E-01
   H -0.396085748E+02 -0.335380668E+00  0.150093085E+01
   H  0.380520490E+02  0.277721914E+01  0.722089506E+00
     4
 # iter = 73000  time[fs]=73.00000
   C -0.925711662E+01  0.374970498E+00  0.686323701E-01
   C  0.897409287E+01 -0.378078608E+00 -0.821274325E-01
   H -0.399793092E+02 -0.338903080E+00  0.151506880E+01
   H  0.384065280E+02  0.280319861E+01  0.729008778E+00
     4
 # iter = 73500  time[fs]=73.50000
   C -0.935247373E+01  0.378690548E+00  0.692852404E-01
   C  0.906652970E+01 -0.382339294E+00 -0.829442588E-01
   H -0.403501003E+02 -0.342426556E+00  0.152920900E+01
   H  0.387610673E+02  0.282918334E+01  0.735929288E+00
     4
 # iter = 74000  time[fs]=74.00000
   C -0.944787526E+01  0.382412511E+00  0.699383341E-01
   C  0.915901065E+01 -0.386602236E+00 -0.837615939E-01
   H -0.407209470E+02 -0.345951077E+00  0.154335140E+01
   H  0.391156658E+02  0.285517324E+01  0.742851016E+00
     4
 # iter = 74500  time[fs]=74.50000
   C -0.954332029E+01  0.386136350E+00  0.705916458E-01
   C  0.925153482E+01 -0.390867390E+00 -0.845794279E-01
   H -0.410918483E+02 -0.349476627E+00  0.155749598E+01
   H  0.394703223E+02  0.288116821E+01  0.749773940E+00
     4
 # iter = 75000  time[fs]=75.00000
   C -0.963880797E+01  0.389862028E+00  0.712451708E-01
   C  0.934410134E+01 -0.395134715E+00 -0.853977508E-01
   H -0.414628033E+02 -0.353003188E+00  0.157164269E+01
   H  0.398250359E+02  0.290716817E+01  0.756698042E+00
     4
 # iter = 75500  time[fs]=75.50000
   C -0.973433744E+01  0.393589509E+00  0.718989042E-01
   C  0.943670938E+01 -0.399404170E+00 -0.862165532E-01
   H -0.418338110E+02 -0.356530744E+00  0.158579150E+01
   H  0.401798055E+02  0.293317304E+01  0.763623301E+00
     4
 # iter = 76000  time[fs]=76.00000
   C -0.982990789E+01  0.397318759E+00  0.725528414E-01
   C  0.952935812E+01 -0.403675713E+00 -0.870358259E-01
   H -0.422048705E+02 -0.360059278E+00  0.159994237E+01
   H  0.405346303E+02  0.295918273E+01  0.770549697E+00
     4
 # iter = 76500  time[fs]=76.50000
   C -0.992551851E+01  0.401049744E+00  0.732069778E-01
   C  0.962204677E+01 -0.407949307E+00 -0.878555598E-01
   H -0.425759809E+02 -0.363588773E+00  0.161409526E+01
   H  0.408895092E+02  0.298519716E+01  0.777477212E+00
     4
 # iter = 77000  time[fs]=77.00000
   C -0.100211685E+02  0.404782432E+00  0.738613092E-01
   C  0.971477455E+01 -0.412224913E+00 -0.886757464E-01
   H -0.429471413E+02 -0.367119216E+00  0.162825014E+01
   H  0.412444413E+02  0.301121625E+01  0.784405828E+00
     4
 # iter = 77500  time[fs]=77.50000
   C -0.101168572E+02  0.408516790E+00  0.745158312E-01
   C  0.980754072E+01 -0.416502494E+00 -0.894963770E-01
   H -0.433183510E+02 -0.370650590E+00  0.164240698E+01
   H  0.415994258E+02  0.303723993E+01  0.791335527E+00
     4
 # iter = 78000  time[fs]=78.00000
   C -0.102125838E+02  0.412252788E+00  0.751705399E-01
   C  0.990034454E+01 -0.420782015E+00 -0.903174435E-01
   H -0.436896089E+02 -0.374182881E+00  0.165656575E+01
   H  0.419544617E+02  0.306326813E+01  0.798266291E+00
     4
 # iter = 78500  time[fs]=78.50000
   C -0.103083476E+02  0.415990396E+00  0.758254311E-01
   C  0.999318531E+01 -0.425063441E+00 -0.911389379E-01
   H -0.440609145E+02 -0.377716074E+00  0.167072641E+01
   H  0.423095482E+02  0.308930077E+01  0.805198104E+00
     4
 # iter = 79000  time[fs]=79.00000
   C -0.104041479E+02  0.419729584E+00  0.764805012E-01
   C  0.100860623E+02 -0.429346737E+00 -0.919608524E-01
   H -0.444322668E+02 -0.381250156E+00  0.168488894E+01
   H  0.426646845E+02  0.311533778E+01  0.812130949E+00
     4
 # iter = 79500  time[fs]=79.50000
   C -0.104999840E+02  0.423470325E+00  0.771357463E-01
   C  0.101789750E+02 -0.433631871E+00 -0.927831793E-01
   H -0.448036651E+02 -0.384785112E+00  0.169905330E+01
   H  0.430198698E+02  0.314137909E+01  0.819064809E+00
     4
 # iter = 80000  time[fs]=80.00000
   C -0.105958553E+02  0.427212589E+00  0.777911628E-01
   C  0.102719225E+02 -0.437918810E+00 -0.936059113E-01
   H -0.451751086E+02 -0.388320929E+00  0.171321946E+01
   H  0.433751033E+02  0.316742463E+01  0.825999669E+00
