     4
 # iter = 25000  time[fs]=25.00000
   C -0.955089635E+00  0.150323298E-01  0.675545910E-02
   C  0.994213625E+00 -0.548645791E-02  0.182036419E-01
   H -0.526631988E+01 -0.278095348E+00 -0.159861660E+00
   H  0.533214189E+01 -0.321849538E+00 -0.445702945E+00
     4
 # iter = 25500  time[fs]=25.50000
   C -0.999856976E+00  0.153802302E-01  0.653580091E-02
   C  0.103538546E+01 -0.508484255E-02  0.198956225E-01
   H -0.560407131E+01 -0.302102154E+00 -0.177064906E+00
   H  0.563831926E+01 -0.347211163E+00 -0.479198485E+00
     4
 # iter = 26000  time[fs]=26.00000
   C -0.104823603E+01  0.147056171E-01  0.524736229E-02
   C  0.107823728E+01 -0.556903923E-02  0.207488913E-01
   H -0.594990803E+01 -0.331657145E+00 -0.199751002E+00
   H  0.594174543E+01 -0.378141944E+00 -0.518338514E+00
     4
 # iter = 26500  time[fs]=26.50000
   C -0.109685478E+01  0.161657123E-01  0.605090505E-02
   C  0.112515407E+01 -0.433904565E-02  0.233599344E-01
   H -0.628743750E+01 -0.350659398E+00 -0.211826900E+00
   H  0.625824442E+01 -0.398528899E+00 -0.547002463E+00
     4
 # iter = 27000  time[fs]=27.00000
   C -0.114536220E+01  0.199130887E-01  0.910226100E-02
   C  0.117606873E+01 -0.126491366E-02  0.278554114E-01
   H -0.661561262E+01 -0.358299345E+00 -0.212489357E+00
   H  0.658837290E+01 -0.407560968E+00 -0.564372591E+00
     4
 # iter = 27500  time[fs]=27.50000
   C -0.119593198E+01  0.235921742E-01  0.120488451E-01
   C  0.122886997E+01  0.172143382E-02  0.323003463E-01
   H -0.694619378E+01 -0.366532331E+00 -0.213698852E+00
   H  0.691994281E+01 -0.417200968E+00 -0.582405790E+00
     4
 # iter = 28000  time[fs]=28.00000
   C -0.125006518E+01  0.255357663E-01  0.132262150E-01
   C  0.128202707E+01  0.325325756E-02  0.353251802E-01
   H -0.728746977E+01 -0.383815526E+00 -0.223916943E+00
   H  0.724429791E+01 -0.435911079E+00 -0.609559135E+00
     4
 # iter = 28500  time[fs]=28.50000
   C -0.130694040E+01  0.264139097E-01  0.133069750E-01
   C  0.133594334E+01  0.388408712E-02  0.374808482E-01
   H -0.763585947E+01 -0.406718348E+00 -0.239716948E+00
   H  0.756470776E+01 -0.460257207E+00 -0.642394215E+00
     4
 # iter = 29000  time[fs]=29.00000
   C -0.136477249E+01  0.278743090E-01  0.139411860E-01
   C  0.139183863E+01  0.497051127E-02  0.401215592E-01
   H -0.798282752E+01 -0.426839018E+00 -0.252700524E+00
   H  0.788943938E+01 -0.481830554E+00 -0.672498514E+00
     4
 # iter = 29500  time[fs]=29.50000
   C -0.142286923E+01  0.304848275E-01  0.156988606E-01
   C  0.145005837E+01  0.698149077E-02  0.437140961E-01
   H -0.832535266E+01 -0.441272091E+00 -0.259965190E+00
   H  0.822127530E+01 -0.497722830E+00 -0.696960433E+00
     4
 # iter = 30000  time[fs]=30.00000
   C -0.148191888E+01  0.334448344E-01  0.177813212E-01
   C  0.150983543E+01  0.926119576E-02  0.476006397E-01
   H -0.866739400E+01 -0.454076699E+00 -0.265572621E+00
   H  0.855604105E+01 -0.511995538E+00 -0.719838500E+00
     4
 # iter = 30500  time[fs]=30.50000
   C -0.154271248E+01  0.358616644E-01  0.192976830E-01
   C  0.157033752E+01  0.110779035E-01  0.510476511E-01
   H -0.901339252E+01 -0.469781891E+00 -0.274054097E+00
   H  0.888910410E+01 -0.529180473E+00 -0.745661851E+00
     4
 # iter = 31000  time[fs]=31.00000
   C -0.160517180E+01  0.377216195E-01  0.202358760E-01
   C  0.163146384E+01  0.124218950E-01  0.540437534E-01
   H -0.936332762E+01 -0.488446140E+00 -0.285470089E+00
   H  0.922031745E+01 -0.549335527E+00 -0.774486022E+00
     4
 # iter = 31500  time[fs]=31.50000
   C -0.166863342E+01  0.396049034E-01  0.211775927E-01
   C  0.169360990E+01  0.137712657E-01  0.570655286E-01
   H -0.971416602E+01 -0.507107512E+00 -0.296860458E+00
   H  0.955256670E+01 -0.569495972E+00 -0.803344191E+00
     4
 # iter = 32000  time[fs]=32.00000
   C -0.173266254E+01  0.418709171E-01  0.224835927E-01
   C  0.175699745E+01  0.154225429E-01  0.604081218E-01
   H -0.100640064E+02 -0.523928591E+00 -0.306389395E+00
   H  0.988761999E+01 -0.587822515E+00 -0.830395180E+00
     4
 # iter = 32500  time[fs]=32.50000
   C -0.179734444E+01  0.443660733E-01  0.240015279E-01
   C  0.182143367E+01  0.172506255E-01  0.639451696E-01
   H -0.104135651E+02 -0.539682915E+00 -0.314831871E+00
   H  0.102246392E+02 -0.605088847E+00 -0.856410965E+00
     4
 # iter = 33000  time[fs]=33.00000
   C -0.186293279E+01  0.467746814E-01  0.254168397E-01
   C  0.188659874E+01  0.189970967E-01  0.674171004E-01
   H -0.107643900E+02 -0.555969590E+00 -0.323788278E+00
   H  0.105619658E+02 -0.622894881E+00 -0.882989901E+00
     4
 # iter = 33500  time[fs]=33.50000
   C -0.192946410E+01  0.490038664E-01  0.266376889E-01
   C  0.195236135E+01  0.205865014E-01  0.707474022E-01
   H -0.111169004E+02 -0.573254765E+00 -0.333725929E+00
   H  0.108990807E+02 -0.641706732E+00 -0.910596686E+00
     4
 # iter = 34000  time[fs]=34.00000
   C -0.199675326E+01  0.511873929E-01  0.277987901E-01
   C  0.201878132E+01  0.221295060E-01  0.740457728E-01
   H -0.114703675E+02 -0.590852094E+00 -0.343959539E+00
   H  0.112366229E+02 -0.660837165E+00 -0.938542800E+00
     4
 # iter = 34500  time[fs]=34.50000
   C -0.206462263E+01  0.534560948E-01  0.290318484E-01
   C  0.208592044E+01  0.237342927E-01  0.774195055E-01
   H -0.118240818E+02 -0.608090694E+00 -0.353819192E+00
   H  0.115752203E+02 -0.679614455E+00 -0.966155340E+00
     4
 # iter = 35000  time[fs]=35.00000
   C -0.213303212E+01  0.558073352E-01  0.303350268E-01
   C  0.215373483E+01  0.253993144E-01  0.808662367E-01
   H -0.121780164E+02 -0.624979253E+00 -0.363314459E+00
   H  0.119148243E+02 -0.698046998E+00 -0.993441621E+00
     4
 # iter = 35500  time[fs]=35.50000
   C -0.220201818E+01  0.581655605E-01  0.316335072E-01
   C  0.222212427E+01  0.270630530E-01  0.843236972E-01
   H -0.125325193E+02 -0.641897878E+00 -0.372826251E+00
   H  0.122550177E+02 -0.716514912E+00 -0.102078077E+01
     4
 # iter = 36000  time[fs]=36.00000
   C -0.227158626E+01  0.604894957E-01  0.328866919E-01
   C  0.229101987E+01  0.286920983E-01  0.877577849E-01
   H -0.128877666E+02 -0.659052645E+00 -0.382561383E+00
   H  0.125955607E+02 -0.735224173E+00 -0.104837784E+01
     4
 # iter = 36500  time[fs]=36.50000
   C -0.234168598E+01  0.627966508E-01  0.341127153E-01
   C  0.236040393E+01  0.303012901E-01  0.911827012E-01
   H -0.132436385E+02 -0.676350871E+00 -0.392427853E+00
   H  0.129365149E+02 -0.754081779E+00 -0.107613899E+01
     4
 # iter = 37000  time[fs]=37.00000
   C -0.241225606E+01  0.651180818E-01  0.353432105E-01
   C  0.243027247E+01  0.319165556E-01  0.946237836E-01
   H -0.135999484E+02 -0.693631250E+00 -0.402264984E+00
   H  0.132780131E+02 -0.772926077E+00 -0.110390178E+01
     4
 # iter = 37500  time[fs]=37.50000
   C -0.248326126E+01  0.674612229E-01  0.365861447E-01
   C  0.250060442E+01  0.335443773E-01  0.980869692E-01
   H -0.139566321E+02 -0.710852935E+00 -0.412032508E+00
   H  0.136200698E+02 -0.791715974E+00 -0.113162440E+01
     4
 # iter = 38000  time[fs]=38.00000
   C -0.255468801E+01  0.698139767E-01  0.378299145E-01
   C  0.257136482E+01  0.351751574E-01  0.101562155E+00
   H -0.143137267E+02 -0.728074691E+00 -0.421789727E+00
   H  0.139626014E+02 -0.810510086E+00 -0.115936479E+01
     4
 # iter = 38500  time[fs]=38.50000
   C -0.262652305E+01  0.721659199E-01  0.390645546E-01
   C  0.264252195E+01  0.368006437E-01  0.105040620E+00
   H -0.146712628E+02 -0.745346981E+00 -0.431587604E+00
   H  0.143055347E+02 -0.829358732E+00 -0.118717263E+01
     4
 # iter = 39000  time[fs]=39.00000
   C -0.269874432E+01  0.745172032E-01  0.402906406E-01
   C  0.271405456E+01  0.384212447E-01  0.108522338E+00
   H -0.150292186E+02 -0.762666664E+00 -0.441423458E+00
   H  0.146488516E+02 -0.848258593E+00 -0.121504403E+01
     4
 # iter = 39500  time[fs]=39.50000
   C -0.277132669E+01  0.768726492E-01  0.415133906E-01
   C  0.278594679E+01  0.400411836E-01  0.112011127E+00
   H -0.153875500E+02 -0.780007003E+00 -0.451270984E+00
   H  0.149925590E+02 -0.867182750E+00 -0.124295152E+01
     4
 # iter = 40000  time[fs]=40.00000
   C -0.284424913E+01  0.792344571E-01  0.427353716E-01
   C  0.285818205E+01  0.416625068E-01  0.115508656E+00
   H -0.157462277E+02 -0.797354767E+00 -0.461117355E+00
   H  0.153366517E+02 -0.886117813E+00 -0.127088120E+01
     4
 # iter = 40500  time[fs]=40.50000
   C -0.291749545E+01  0.816013341E-01  0.439556338E-01
   C  0.293074221E+01  0.432843727E-01  0.119013733E+00
   H -0.161052413E+02 -0.814714637E+00 -0.470967627E+00
   H  0.156811078E+02 -0.905068322E+00 -0.129883714E+01
     4
 # iter = 41000  time[fs]=41.00000
   C -0.299105121E+01  0.839714501E-01  0.451726673E-01
   C  0.300360988E+01  0.449054810E-01  0.122524729E+00
   H -0.164645841E+02 -0.832094160E+00 -0.480829697E+00
   H  0.160259035E+02 -0.924041696E+00 -0.132682630E+01
     4
 # iter = 41500  time[fs]=41.50000
   C -0.306490175E+01  0.863442863E-01  0.463862524E-01
   C  0.307676984E+01  0.465255930E-01  0.126041098E+00
   H -0.168242440E+02 -0.849494329E+00 -0.490704889E+00
   H  0.163710228E+02 -0.943038802E+00 -0.135484913E+01
     4
 # iter = 42000  time[fs]=42.00000
   C -0.313903259E+01  0.887202168E-01  0.475970431E-01
   C  0.315020858E+01  0.481451895E-01  0.129563034E+00
   H -0.171842051E+02 -0.866911703E+00 -0.500590070E+00
   H  0.167164548E+02 -0.962056078E+00 -0.138290167E+01
     4
 # iter = 42500  time[fs]=42.50000
   C -0.321343024E+01  0.910994976E-01  0.488055573E-01
   C  0.322391344E+01  0.497646414E-01  0.133090640E+00
   H -0.175444531E+02 -0.884343543E+00 -0.510482791E+00
   H  0.170621889E+02 -0.981090669E+00 -0.141098070E+01
     4
 # iter = 43000  time[fs]=43.00000
   C -0.328808254E+01  0.934819609E-01  0.500118730E-01
   C  0.329787221E+01  0.513839597E-01  0.136623674E+00
   H -0.179049766E+02 -0.901789356E+00 -0.520382834E+00
   H  0.174082130E+02 -0.100014198E+01 -0.143908526E+01
     4
 # iter = 43500  time[fs]=43.50000
   C -0.336297823E+01  0.958672946E-01  0.512159089E-01
   C  0.337207336E+01  0.530030266E-01  0.140161780E+00
   H -0.182657655E+02 -0.919249467E+00 -0.530290779E+00
   H  0.177545150E+02 -0.101921023E+01 -0.146721526E+01
     4
 # iter = 44000  time[fs]=44.00000
   C -0.343810669E+01  0.982552983E-01  0.524176815E-01
   C  0.344650615E+01  0.546218061E-01  0.143704702E+00
   H -0.186268100E+02 -0.936723712E+00 -0.540206706E+00
   H  0.181010839E+02 -0.103829516E+01 -0.149537011E+01
     4
 # iter = 44500  time[fs]=44.50000
   C -0.351345783E+01  0.100645889E+00  0.536173114E-01
   C  0.352116059E+01  0.562403499E-01  0.147252280E+00
   H -0.189881003E+02 -0.954211398E+00 -0.550130150E+00
   H  0.184479098E+02 -0.105739599E+01 -0.152354874E+01
     4
 # iter = 45000  time[fs]=45.00000
   C -0.358902217E+01  0.103039001E+00  0.548149255E-01
   C  0.359602731E+01  0.578587161E-01  0.150804375E+00
   H -0.193496269E+02 -0.971711810E+00 -0.560060612E+00
   H  0.187949835E+02 -0.107651191E+01 -0.155175007E+01
     4
 # iter = 45500  time[fs]=45.50000
   C -0.366479082E+01  0.105434539E+00  0.560106092E-01
   C  0.367109745E+01  0.594769308E-01  0.154360828E+00
   H -0.197113813E+02 -0.989224444E+00 -0.569997796E+00
   H  0.191422960E+02 -0.109564235E+01 -0.157997324E+01
     4
 # iter = 46000  time[fs]=46.00000
   C -0.374075543E+01  0.107832393E+00  0.572044233E-01
   C  0.374636267E+01  0.610950013E-01  0.157921471E+00
   H -0.200733552E+02 -0.100674893E+01 -0.579941521E+00
   H  0.194898388E+02 -0.111478685E+01 -0.160821756E+01
     4
 # iter = 46500  time[fs]=46.50000
   C -0.381690814E+01  0.110232463E+00  0.583964289E-01
   C  0.382181513E+01  0.627129368E-01  0.161486145E+00
   H -0.204355410E+02 -0.102428489E+01 -0.589891602E+00
   H  0.198376037E+02 -0.113394497E+01 -0.163648233E+01
     4
 # iter = 47000  time[fs]=47.00000
   C -0.389324152E+01  0.112634662E+00  0.595866929E-01
   C  0.389744741E+01  0.643307527E-01  0.165054710E+00
   H -0.207979313E+02 -0.104183194E+01 -0.599847816E+00
   H  0.201855833E+02 -0.115311624E+01 -0.166476688E+01
     4
 # iter = 47500  time[fs]=47.50000
   C -0.396974856E+01  0.115038914E+00  0.607752814E-01
   C  0.397325253E+01  0.659484654E-01  0.168627034E+00
   H -0.211605192E+02 -0.105938969E+01 -0.609809939E+00
   H  0.205337701E+02 -0.117230021E+01 -0.169307052E+01
     4
 # iter = 48000  time[fs]=48.00000
   C -0.404642261E+01  0.117445142E+00  0.619622553E-01
   C  0.404922387E+01  0.675660884E-01  0.172202990E+00
   H -0.215232980E+02 -0.107695776E+01 -0.619777766E+00
   H  0.208821574E+02 -0.119149645E+01 -0.172139263E+01
     4
 # iter = 48500  time[fs]=48.50000
   C -0.412325741E+01  0.119853272E+00  0.631476710E-01
   C  0.412535520E+01  0.691836325E-01  0.175782455E+00
   H -0.218862613E+02 -0.109453583E+01 -0.629751113E+00
   H  0.212307385E+02 -0.121070456E+01 -0.174973260E+01
     4
 # iter = 49000  time[fs]=49.00000
   C -0.420024703E+01  0.122263236E+00  0.643315816E-01
   C  0.420164059E+01  0.708011078E-01  0.179365312E+00
   H -0.222494033E+02 -0.111212358E+01 -0.639729805E+00
   H  0.215795072E+02 -0.122992417E+01 -0.177808989E+01
     4
 # iter = 49500  time[fs]=49.50000
   C -0.427738584E+01  0.124674968E+00  0.655140387E-01
   C  0.427807444E+01  0.724185238E-01  0.182951451E+00
   H -0.226127182E+02 -0.112972070E+01 -0.649713671E+00
   H  0.219284576E+02 -0.124915492E+01 -0.180646395E+01
     4
 # iter = 50000  time[fs]=50.00000
   C -0.435466850E+01  0.127088406E+00  0.666950912E-01
   C  0.435465143E+01  0.740358895E-01  0.186540767E+00
   H -0.229762005E+02 -0.114732691E+01 -0.659702550E+00
   H  0.222775840E+02 -0.126839646E+01 -0.183485427E+01
     4
 # iter = 50500  time[fs]=50.50000
   C -0.443208996E+01  0.129503492E+00  0.678747860E-01
   C  0.443136652E+01  0.756532129E-01  0.190133159E+00
   H -0.233398451E+02 -0.116494191E+01 -0.669696284E+00
   H  0.226268810E+02 -0.128764846E+01 -0.186326035E+01
     4
 # iter = 51000  time[fs]=51.00000
   C -0.450964539E+01  0.131920170E+00  0.690531676E-01
   C  0.450821492E+01  0.772705016E-01  0.193728531E+00
   H -0.237036470E+02 -0.118256546E+01 -0.679694728E+00
   H  0.229763434E+02 -0.130691062E+01 -0.189168172E+01
     4
 # iter = 51500  time[fs]=51.50000
   C -0.458733023E+01  0.134338387E+00  0.702302783E-01
   C  0.458519207E+01  0.788877622E-01  0.197326792E+00
   H -0.240676015E+02 -0.120019728E+01 -0.689697740E+00
   H  0.233259663E+02 -0.132618262E+01 -0.192011794E+01
     4
 # iter = 52000  time[fs]=52.00000
   C -0.466514014E+01  0.136758092E+00  0.714061587E-01
   C  0.466229363E+01  0.805050012E-01  0.200927855E+00
   H -0.244317040E+02 -0.121783715E+01 -0.699705185E+00
   H  0.236757449E+02 -0.134546419E+01 -0.194856858E+01
     4
 # iter = 52500  time[fs]=52.50000
   C -0.474307096E+01  0.139179238E+00  0.725808476E-01
   C  0.473951549E+01  0.821222242E-01  0.204531634E+00
   H -0.247959503E+02 -0.123548482E+01 -0.709716935E+00
   H  0.240256747E+02 -0.136475504E+01 -0.197703323E+01
     4
 # iter = 53000  time[fs]=53.00000
   C -0.482111875E+01  0.141601779E+00  0.737543819E-01
   C  0.481685371E+01  0.837394365E-01  0.208138051E+00
   H -0.251603362E+02 -0.125314008E+01 -0.719732865E+00
   H  0.243757515E+02 -0.138405491E+01 -0.200551148E+01
     4
 # iter = 53500  time[fs]=53.50000
   C -0.489927976E+01  0.144025671E+00  0.749267970E-01
   C  0.489430455E+01  0.853566430E-01  0.211747028E+00
   H -0.255248577E+02 -0.127080270E+01 -0.729752858E+00
   H  0.247259710E+02 -0.140336356E+01 -0.203400297E+01
     4
 # iter = 54000  time[fs]=54.00000
   C -0.497755040E+01  0.146450872E+00  0.760981268E-01
   C  0.497186444E+01  0.869738481E-01  0.215358493E+00
   H -0.258895110E+02 -0.128847250E+01 -0.739776801E+00
   H  0.250763293E+02 -0.142268074E+01 -0.206250733E+01
     4
 # iter = 54500  time[fs]=54.50000
   C -0.505592723E+01  0.148877343E+00  0.772684037E-01
   C  0.504952996E+01  0.885910561E-01  0.218972374E+00
   H -0.262542925E+02 -0.130614927E+01 -0.749804584E+00
   H  0.254268226E+02 -0.144200622E+01 -0.209102422E+01
     4
 # iter = 55000  time[fs]=55.00000
   C -0.513440700E+01  0.151305046E+00  0.784376587E-01
   C  0.512729786E+01  0.902082705E-01  0.222588604E+00
   H -0.266191987E+02 -0.132383282E+01 -0.759836103E+00
   H  0.257774473E+02 -0.146133977E+01 -0.211955329E+01
     4
 # iter = 55500  time[fs]=55.50000
   C -0.521298657E+01  0.153733944E+00  0.796059217E-01
   C  0.520516502E+01  0.918254951E-01  0.226207119E+00
   H -0.269842262E+02 -0.134152298E+01 -0.769871259E+00
   H  0.261281997E+02 -0.148068118E+01 -0.214809424E+01
     4
 # iter = 56000  time[fs]=56.00000
   C -0.529166295E+01  0.156164003E+00  0.807732211E-01
   C  0.528312847E+01  0.934427328E-01  0.229827856E+00
   H -0.273493718E+02 -0.135921957E+01 -0.779909956E+00
   H  0.264790766E+02 -0.150003025E+01 -0.217664675E+01
     4
 # iter = 56500  time[fs]=56.50000
   C -0.537043328E+01  0.158595190E+00  0.819395842E-01
   C  0.536118535E+01  0.950599867E-01  0.233450756E+00
   H -0.277146325E+02 -0.137692242E+01 -0.789952101E+00
   H  0.268300747E+02 -0.151938678E+01 -0.220521053E+01
     4
 # iter = 57000  time[fs]=57.00000
   C -0.544929483E+01  0.161027472E+00  0.831050375E-01
   C  0.543933294E+01  0.966772594E-01  0.237075760E+00
   H -0.280800052E+02 -0.139463137E+01 -0.799997605E+00
   H  0.271811909E+02 -0.153875058E+01 -0.223378530E+01
     4
 # iter = 57500  time[fs]=57.50000
   C -0.552824496E+01  0.163460819E+00  0.842696060E-01
   C  0.551756862E+01  0.982945534E-01  0.240702815E+00
   H -0.284454871E+02 -0.141234627E+01 -0.810046383E+00
   H  0.275324222E+02 -0.155812147E+01 -0.226237076E+01
     4
 # iter = 58000  time[fs]=58.00000
   C -0.560728116E+01  0.165895201E+00  0.854333139E-01
   C  0.559588990E+01  0.999118710E-01  0.244331866E+00
   H -0.288110754E+02 -0.143006698E+01 -0.820098352E+00
   H  0.278837657E+02 -0.157749926E+01 -0.229096668E+01
     4
 # iter = 58500  time[fs]=58.50000
   C -0.568640102E+01  0.168330591E+00  0.865961847E-01
   C  0.567429436E+01  0.101529214E+00  0.247962863E+00
   H -0.291767675E+02 -0.144779334E+01 -0.830153435E+00
   H  0.282352186E+02 -0.159688380E+01 -0.231957278E+01
     4
 # iter = 59000  time[fs]=59.00000
   C -0.576560222E+01  0.170766962E+00  0.877582406E-01
   C  0.575277970E+01  0.103146585E+00  0.251595757E+00
   H -0.295425608E+02 -0.146552522E+01 -0.840211553E+00
   H  0.285867783E+02 -0.161627491E+01 -0.234818883E+01
     4
 # iter = 59500  time[fs]=59.50000
   C -0.584488254E+01  0.173204288E+00  0.889195032E-01
   C  0.583134371E+01  0.104763985E+00  0.255230499E+00
   H -0.299084529E+02 -0.148326249E+01 -0.850272635E+00
   H  0.289384421E+02 -0.163567245E+01 -0.237681458E+01
     4
 # iter = 60000  time[fs]=60.00000
   C -0.592423984E+01  0.175642543E+00  0.900799932E-01
   C  0.590998426E+01  0.106381416E+00  0.258867046E+00
   H -0.302744414E+02 -0.150100502E+01 -0.860336608E+00
   H  0.292902076E+02 -0.165507625E+01 -0.240544982E+01
     4
 # iter = 60500  time[fs]=60.50000
   C -0.600367207E+01  0.178081704E+00  0.912397305E-01
   C  0.598869930E+01  0.107998880E+00  0.262505352E+00
   H -0.306405239E+02 -0.151875269E+01 -0.870403405E+00
   H  0.296420724E+02 -0.167448617E+01 -0.243409431E+01
     4
 # iter = 61000  time[fs]=61.00000
   C -0.608317726E+01  0.180521747E+00  0.923987344E-01
   C  0.606748689E+01  0.109616377E+00  0.266145375E+00
   H -0.310066984E+02 -0.153650537E+01 -0.880472960E+00
   H  0.299940341E+02 -0.169390207E+01 -0.246274785E+01
     4
 # iter = 61500  time[fs]=61.50000
   C -0.616275351E+01  0.182962651E+00  0.935570233E-01
   C  0.614634512E+01  0.111233909E+00  0.269787074E+00
   H -0.313729626E+02 -0.155426295E+01 -0.890545208E+00
   H  0.303460906E+02 -0.171332382E+01 -0.249141023E+01
     4
 # iter = 62000  time[fs]=62.00000
   C -0.624239899E+01  0.185404394E+00  0.947146151E-01
   C  0.622527217E+01  0.112851477E+00  0.273430410E+00
   H -0.317393145E+02 -0.157202533E+01 -0.900620090E+00
   H  0.306982396E+02 -0.173275128E+01 -0.252008125E+01
     4
 # iter = 62500  time[fs]=62.50000
   C -0.632211194E+01  0.187846956E+00  0.958715270E-01
   C  0.630426631E+01  0.114469082E+00  0.277075344E+00
   H -0.321057521E+02 -0.158979239E+01 -0.910697544E+00
   H  0.310504791E+02 -0.175218431E+01 -0.254876072E+01
     4
 # iter = 63000  time[fs]=63.00000
   C -0.640189068E+01  0.190290316E+00  0.970277756E-01
   C  0.638332583E+01  0.116086724E+00  0.280721840E+00
   H -0.324722734E+02 -0.160756402E+01 -0.920777514E+00
   H  0.314028070E+02 -0.177162281E+01 -0.257744846E+01
     4
 # iter = 63500  time[fs]=63.50000
   C -0.648173356E+01  0.192734456E+00  0.981833770E-01
   C  0.646244912E+01  0.117704406E+00  0.284369862E+00
   H -0.328388768E+02 -0.162534014E+01 -0.930859944E+00
   H  0.317552214E+02 -0.179106665E+01 -0.260614428E+01
     4
 # iter = 64000  time[fs]=64.00000
   C -0.656163901E+01  0.195179357E+00  0.993383464E-01
   C  0.654163461E+01  0.119322127E+00  0.288019376E+00
   H -0.332055602E+02 -0.164312063E+01 -0.940944780E+00
   H  0.321077205E+02 -0.181051572E+01 -0.263484802E+01
     4
 # iter = 64500  time[fs]=64.50000
   C -0.664160552E+01  0.197625001E+00  0.100492699E+00
   C  0.662088079E+01  0.120939888E+00  0.291670348E+00
   H -0.335723220E+02 -0.166090542E+01 -0.951031971E+00
   H  0.324603023E+02 -0.182996989E+01 -0.266355949E+01
     4
 # iter = 65000  time[fs]=65.00000
   C -0.672163162E+01  0.200071371E+00  0.101646449E+00
   C  0.670018620E+01  0.122557690E+00  0.295322746E+00
   H -0.339391605E+02 -0.167869440E+01 -0.961121465E+00
   H  0.328129651E+02 -0.184942907E+01 -0.269227855E+01
     4
 # iter = 65500  time[fs]=65.50000
   C -0.680171590E+01  0.202518451E+00  0.102799611E+00
   C  0.677954943E+01  0.124175533E+00  0.298976539E+00
   H -0.343060741E+02 -0.169648748E+01 -0.971213215E+00
   H  0.331657072E+02 -0.186889316E+01 -0.272100503E+01
     4
 # iter = 66000  time[fs]=66.00000
   C -0.688185698E+01  0.204966224E+00  0.103952197E+00
   C  0.685896913E+01  0.125793418E+00  0.302631697E+00
   H -0.346730612E+02 -0.171428460E+01 -0.981307173E+00
   H  0.335185269E+02 -0.188836203E+01 -0.274973878E+01
     4
 # iter = 66500  time[fs]=66.50000
   C -0.696205357E+01  0.207414675E+00  0.105104222E+00
   C  0.693844399E+01  0.127411345E+00  0.306288191E+00
   H -0.350401203E+02 -0.173208565E+01 -0.991403294E+00
   H  0.338714227E+02 -0.190783561E+01 -0.277847964E+01
     4
 # iter = 67000  time[fs]=67.00000
   C -0.704230437E+01  0.209863788E+00  0.106255697E+00
   C  0.701797274E+01  0.129029314E+00  0.309945992E+00
   H -0.354072498E+02 -0.174989055E+01 -0.100150153E+01
   H  0.342243929E+02 -0.192731380E+01 -0.280722749E+01
     4
 # iter = 67500  time[fs]=67.50000
   C -0.712260816E+01  0.212313550E+00  0.107406634E+00
   C  0.709755415E+01  0.130647326E+00  0.313605073E+00
   H -0.357744483E+02 -0.176769925E+01 -0.101160185E+01
   H  0.345774361E+02 -0.194679649E+01 -0.283598217E+01
     4
 # iter = 68000  time[fs]=68.00000
   C -0.720296375E+01  0.214763946E+00  0.108557047E+00
   C  0.717718703E+01  0.132265381E+00  0.317265407E+00
   H -0.361417145E+02 -0.178551164E+01 -0.102170419E+01
   H  0.349305508E+02 -0.196628361E+01 -0.286474356E+01
     4
 # iter = 68500  time[fs]=68.50000
   C -0.728336998E+01  0.217214963E+00  0.109706945E+00
   C  0.725687025E+01  0.133883480E+00  0.320926969E+00
   H -0.365090470E+02 -0.180332767E+01 -0.103180853E+01
   H  0.352837355E+02 -0.198577506E+01 -0.289351151E+01
     4
 # iter = 69000  time[fs]=69.00000
   C -0.736382575E+01  0.219666587E+00  0.110856340E+00
   C  0.733660269E+01  0.135501621E+00  0.324589734E+00
   H -0.368764445E+02 -0.182114726E+01 -0.104191482E+01
   H  0.356369889E+02 -0.200527076E+01 -0.292228591E+01
     4
 # iter = 69500  time[fs]=69.50000
   C -0.744432997E+01  0.222118806E+00  0.112005244E+00
   C  0.741638328E+01  0.137119807E+00  0.328253677E+00
   H -0.372439057E+02 -0.183897035E+01 -0.105202303E+01
   H  0.359903097E+02 -0.202477062E+01 -0.295106663E+01
     4
 # iter = 70000  time[fs]=70.00000
   C -0.752488159E+01  0.224571608E+00  0.113153665E+00
   C  0.749621098E+01  0.138738036E+00  0.331918774E+00
   H -0.376114294E+02 -0.185679686E+01 -0.106213312E+01
   H  0.363436965E+02 -0.204427458E+01 -0.297985354E+01
     4
 # iter = 70500  time[fs]=70.50000
   C -0.760547962E+01  0.227024980E+00  0.114301615E+00
   C  0.757608479E+01  0.140356309E+00  0.335585004E+00
   H -0.379790143E+02 -0.187462673E+01 -0.107224505E+01
   H  0.366971480E+02 -0.206378254E+01 -0.300864654E+01
     4
 # iter = 71000  time[fs]=71.00000
   C -0.768612305E+01  0.229478910E+00  0.115449102E+00
   C  0.765600372E+01  0.141974626E+00  0.339252344E+00
   H -0.383466593E+02 -0.189245989E+01 -0.108235879E+01
   H  0.370506631E+02 -0.208329444E+01 -0.303744551E+01
     4
 # iter = 71500  time[fs]=71.50000
   C -0.776681096E+01  0.231933388E+00  0.116596138E+00
   C  0.773596684E+01  0.143592986E+00  0.342920772E+00
   H -0.387143633E+02 -0.191029629E+01 -0.109247430E+01
   H  0.374042406E+02 -0.210281021E+01 -0.306625033E+01
     4
 # iter = 72000  time[fs]=72.00000
   C -0.784754240E+01  0.234388403E+00  0.117742730E+00
   C  0.781597322E+01  0.145211391E+00  0.346590268E+00
   H -0.390821251E+02 -0.192813587E+01 -0.110259155E+01
   H  0.377578792E+02 -0.212232976E+01 -0.309506090E+01
     4
 # iter = 72500  time[fs]=72.50000
   C -0.792831650E+01  0.236843944E+00  0.118888887E+00
   C  0.789602198E+01  0.146829839E+00  0.350260811E+00
   H -0.394499437E+02 -0.194597856E+01 -0.111271051E+01
   H  0.381115779E+02 -0.214185303E+01 -0.312387712E+01
     4
 # iter = 73000  time[fs]=73.00000
   C -0.800913238E+01  0.239300000E+00  0.120034619E+00
   C  0.797611226E+01  0.148448332E+00  0.353932381E+00
   H -0.398178181E+02 -0.196382432E+01 -0.112283115E+01
   H  0.384653355E+02 -0.216137995E+01 -0.315269888E+01
     4
 # iter = 73500  time[fs]=73.50000
   C -0.808998920E+01  0.241756562E+00  0.121179934E+00
   C  0.805624321E+01  0.150066868E+00  0.357604959E+00
   H -0.401857472E+02 -0.198167308E+01 -0.113295343E+01
   H  0.388191510E+02 -0.218091047E+01 -0.318152609E+01
     4
 # iter = 74000  time[fs]=74.00000
   C -0.817088615E+01  0.244213620E+00  0.122324840E+00
   C  0.813641404E+01  0.151685447E+00  0.361278527E+00
   H -0.405537301E+02 -0.199952479E+01 -0.114307733E+01
   H  0.391730234E+02 -0.220044450E+01 -0.321035864E+01
     4
 # iter = 74500  time[fs]=74.50000
   C -0.825182243E+01  0.246671164E+00  0.123469345E+00
   C  0.821662394E+01  0.153304070E+00  0.364953066E+00
   H -0.409217657E+02 -0.201737940E+01 -0.115320282E+01
   H  0.395269516E+02 -0.221998200E+01 -0.323919645E+01
     4
 # iter = 75000  time[fs]=75.00000
   C -0.833279728E+01  0.249129186E+00  0.124613456E+00
   C  0.829687216E+01  0.154922737E+00  0.368628559E+00
   H -0.412898532E+02 -0.203523686E+01 -0.116332987E+01
   H  0.398809347E+02 -0.223952290E+01 -0.326803942E+01
     4
 # iter = 75500  time[fs]=75.50000
   C -0.841380994E+01  0.251587676E+00  0.125757181E+00
   C  0.837715795E+01  0.156541447E+00  0.372304988E+00
   H -0.416579916E+02 -0.205309712E+01 -0.117345845E+01
   H  0.402349716E+02 -0.225906714E+01 -0.329688746E+01
     4
 # iter = 76000  time[fs]=76.00000
   C -0.849485969E+01  0.254046626E+00  0.126900528E+00
   C  0.845748058E+01  0.158160200E+00  0.375982337E+00
   H -0.420261801E+02 -0.207096013E+01 -0.118358854E+01
   H  0.405890615E+02 -0.227861466E+01 -0.332574049E+01
     4
 # iter = 76500  time[fs]=76.50000
   C -0.857594583E+01  0.256506027E+00  0.128043504E+00
   C  0.853783936E+01  0.159778997E+00  0.379660589E+00
   H -0.423944177E+02 -0.208882584E+01 -0.119372011E+01
   H  0.409432035E+02 -0.229816542E+01 -0.335459842E+01
     4
 # iter = 77000  time[fs]=77.00000
   C -0.865706766E+01  0.258965871E+00  0.129186114E+00
   C  0.861823360E+01  0.161397836E+00  0.383339729E+00
   H -0.427627037E+02 -0.210669421E+01 -0.120385314E+01
   H  0.412973966E+02 -0.231771934E+01 -0.338346118E+01
     4
 # iter = 77500  time[fs]=77.50000
   C -0.873822453E+01  0.261426151E+00  0.130328367E+00
   C  0.869866265E+01  0.163016718E+00  0.387019741E+00
   H -0.431310372E+02 -0.212456520E+01 -0.121398760E+01
   H  0.416516399E+02 -0.233727639E+01 -0.341232867E+01
     4
 # iter = 78000  time[fs]=78.00000
   C -0.881941577E+01  0.263886857E+00  0.131470269E+00
   C  0.877912584E+01  0.164635642E+00  0.390700610E+00
   H -0.434994175E+02 -0.214243875E+01 -0.122412346E+01
   H  0.420059328E+02 -0.235683651E+01 -0.344120082E+01
     4
 # iter = 78500  time[fs]=78.50000
   C -0.890064076E+01  0.266347984E+00  0.132611825E+00
   C  0.885962256E+01  0.166254609E+00  0.394382321E+00
   H -0.438678436E+02 -0.216031483E+01 -0.123426071E+01
   H  0.423602742E+02 -0.237639965E+01 -0.347007756E+01
     4
 # iter = 79000  time[fs]=79.00000
   C -0.898189889E+01  0.268809523E+00  0.133753043E+00
   C  0.894015220E+01  0.167873618E+00  0.398064860E+00
   H -0.442363150E+02 -0.217819340E+01 -0.124439932E+01
   H  0.427146635E+02 -0.239596575E+01 -0.349895880E+01
     4
 # iter = 79500  time[fs]=79.50000
   C -0.906318955E+01  0.271271467E+00  0.134893929E+00
   C  0.902071415E+01  0.169492669E+00  0.401748213E+00
   H -0.446048308E+02 -0.219607442E+01 -0.125453927E+01
   H  0.430690998E+02 -0.241553477E+01 -0.352784449E+01
     4
 # iter = 80000  time[fs]=80.00000
   C -0.914451216E+01  0.273733809E+00  0.136034487E+00
   C  0.910130784E+01  0.171111762E+00  0.405432367E+00
   H -0.449733903E+02 -0.221395784E+01 -0.126468053E+01
   H  0.434235824E+02 -0.243510667E+01 -0.355673454E+01
