     4
 # iter = 25000  time[fs]=25.00000
   C -0.996537480E+00 -0.254184630E-01  0.360286645E-01
   C  0.972102790E+00 -0.152591522E-01 -0.376742109E-01
   H -0.526348114E+01 -0.350676849E+00  0.259300949E+00
   H  0.529957830E+01  0.441953287E+00  0.325816858E+00
     4
 # iter = 25500  time[fs]=25.50000
   C -0.104413062E+01 -0.269937542E-01  0.342642794E-01
   C  0.101237697E+01 -0.199086626E-01 -0.410825570E-01
   H -0.560653162E+01 -0.382913914E+00  0.263074143E+00
   H  0.560707794E+01  0.458183644E+00  0.338039590E+00
     4
 # iter = 26000  time[fs]=26.00000
   C -0.109629200E+01 -0.294768168E-01  0.317264161E-01
   C  0.105526883E+01 -0.256095301E-01 -0.456961040E-01
   H -0.595769116E+01 -0.420744133E+00  0.261563356E+00
   H  0.591182886E+01  0.469252110E+00  0.345025867E+00
     4
 # iter = 26500  time[fs]=26.50000
   C -0.115002668E+01 -0.301790355E-01  0.310847841E-01
   C  0.110360154E+01 -0.292282399E-01 -0.483600692E-01
   H -0.630056463E+01 -0.448065992E+00  0.270833199E+00
   H  0.622965586E+01  0.491228762E+00  0.362854319E+00
     4
 # iter = 27000  time[fs]=27.00000
   C -0.120490757E+01 -0.289634134E-01  0.324598887E-01
   C  0.115723465E+01 -0.306134183E-01 -0.489047263E-01
   H -0.663410026E+01 -0.464066300E+00  0.291667129E+00
   H  0.656111440E+01  0.524887274E+00  0.392306026E+00
     4
 # iter = 27500  time[fs]=27.50000
   C -0.126265690E+01 -0.278228961E-01  0.338445366E-01
   C  0.121355944E+01 -0.321030616E-01 -0.496523463E-01
   H -0.697005175E+01 -0.480694275E+00  0.312091742E+00
   H  0.689401377E+01  0.558232063E+00  0.421391858E+00
     4
 # iter = 28000  time[fs]=28.00000
   C -0.132443656E+01 -0.281675243E-01  0.338165535E-01
   C  0.127067342E+01 -0.353514472E-01 -0.522438028E-01
   H -0.731670312E+01 -0.506402208E+00  0.323634031E+00
   H  0.721969593E+01  0.582772850E+00  0.441627015E+00
     4
 # iter = 28500  time[fs]=28.50000
   C -0.138944932E+01 -0.294250268E-01  0.329379694E-01
   C  0.132901711E+01 -0.396923714E-01 -0.560014988E-01
   H -0.767047221E+01 -0.537757784E+00  0.329707902E+00
   H  0.754143027E+01  0.601919862E+00  0.456426297E+00
     4
 # iter = 29000  time[fs]=29.00000
   C -0.145609086E+01 -0.301943166E-01  0.326012226E-01
   C  0.139002320E+01 -0.434889077E-01 -0.592788294E-01
   H -0.802282448E+01 -0.566358948E+00  0.338699171E+00
   H  0.786748442E+01  0.624061337E+00  0.474181833E+00
     4
 # iter = 29500  time[fs]=29.50000
   C -0.152369321E+01 -0.299911808E-01  0.332831842E-01
   C  0.145407238E+01 -0.461759864E-01 -0.615024992E-01
   H -0.837073845E+01 -0.589298944E+00  0.353500578E+00
   H  0.820064132E+01  0.652087489E+00  0.497787247E+00
     4
 # iter = 30000  time[fs]=30.00000
   C -0.159276793E+01 -0.294930858E-01  0.343001404E-01
   C  0.152020518E+01 -0.485470018E-01 -0.634589033E-01
   H -0.871817153E+01 -0.610634176E+00  0.370043670E+00
   H  0.853672654E+01  0.681920764E+00  0.523168006E+00
     4
 # iter = 30500  time[fs]=30.50000
   C -0.166392170E+01 -0.294560189E-01  0.348907969E-01
   C  0.158738751E+01 -0.514866871E-01 -0.660268091E-01
   H -0.906956308E+01 -0.634891042E+00  0.383791478E+00
   H  0.887110753E+01  0.709015093E+00  0.545780712E+00
     4
 # iter = 31000  time[fs]=31.00000
   C -0.173703103E+01 -0.298905306E-01  0.350401002E-01
   C  0.165547301E+01 -0.550072116E-01 -0.692132888E-01
   H -0.942489207E+01 -0.662126571E+00  0.394677504E+00
   H  0.920363742E+01  0.733299882E+00  0.565557107E+00
     4
 # iter = 31500  time[fs]=31.50000
   C -0.181148252E+01 -0.303035228E-01  0.352373199E-01
   C  0.172491853E+01 -0.585311932E-01 -0.724365924E-01
   H -0.978112570E+01 -0.689378231E+00  0.405655759E+00
   H  0.953720209E+01  0.757728525E+00  0.585452635E+00
     4
 # iter = 32000  time[fs]=32.00000
   C -0.188686237E+01 -0.303894277E-01  0.357847529E-01
   C  0.179597378E+01 -0.617004907E-01 -0.753348251E-01
   H -0.101363629E+02 -0.714807866E+00  0.418556776E+00
   H  0.987357001E+01  0.784130165E+00  0.607298269E+00
     4
 # iter = 32500  time[fs]=32.50000
   C -0.196320288E+01 -0.302780712E-01  0.365497665E-01
   C  0.186839000E+01 -0.646662732E-01 -0.780559193E-01
   H -0.104913198E+02 -0.739187769E+00  0.432601461E+00
   H  0.102119032E+02  0.811721983E+00  0.630312834E+00
     4
 # iter = 33000  time[fs]=33.00000
   C -0.204068362E+01 -0.302369443E-01  0.372624555E-01
   C  0.194176706E+01 -0.677406941E-01 -0.809092285E-01
   H -0.108475435E+02 -0.764115702E+00  0.446185943E+00
   H  0.105505435E+02  0.838895812E+00  0.652889640E+00
     4
 # iter = 33500  time[fs]=33.50000
   C -0.211930377E+01 -0.303446020E-01  0.378421847E-01
   C  0.201593454E+01 -0.710147743E-01 -0.839833429E-01
   H -0.112054535E+02 -0.790056818E+00  0.458839534E+00
   H  0.108889719E+02  0.865178027E+00  0.674556395E+00
     4
 # iter = 34000  time[fs]=34.00000
   C -0.219887798E+01 -0.304873939E-01  0.384008076E-01
   C  0.209095458E+01 -0.743546074E-01 -0.871422389E-01
   H -0.115643210E+02 -0.816324118E+00  0.471244189E+00
   H  0.112278277E+02  0.891249015E+00  0.695994684E+00
     4
 # iter = 34500  time[fs]=34.50000
   C -0.227923020E+01 -0.305542152E-01  0.390478712E-01
   C  0.216689314E+01 -0.776292598E-01 -0.902531324E-01
   H -0.119234364E+02 -0.842246130E+00  0.484066784E+00
   H  0.115677388E+02  0.917774258E+00  0.717871073E+00
     4
 # iter = 35000  time[fs]=35.00000
   C -0.236030369E+01 -0.305472444E-01  0.397798410E-01
   C  0.224368962E+01 -0.808403601E-01 -0.933160291E-01
   H -0.122827733E+02 -0.867830852E+00  0.497295130E+00
   H  0.119086568E+02  0.944739658E+00  0.740172454E+00
     4
 # iter = 35500  time[fs]=35.50000
   C -0.244210896E+01 -0.305305608E-01  0.405314541E-01
   C  0.232121640E+01 -0.840619828E-01 -0.964035757E-01
   H -0.126426791E+02 -0.893457665E+00  0.510546012E+00
   H  0.122501647E+02  0.971759872E+00  0.762514386E+00
     4
 # iter = 36000  time[fs]=36.00000
   C -0.252463229E+01 -0.305391924E-01  0.412666468E-01
   C  0.239938460E+01 -0.873342301E-01 -0.995546143E-01
   H -0.130033302E+02 -0.919332008E+00  0.523610473E+00
   H  0.125920228E+02  0.998624115E+00  0.784686907E+00
     4
 # iter = 36500  time[fs]=36.50000
   C -0.260781437E+01 -0.305583169E-01  0.419993323E-01
   C  0.247816795E+01 -0.906389004E-01 -0.102749827E+00
   H -0.133646066E+02 -0.945360675E+00  0.536578481E+00
   H  0.129342928E+02  0.102542094E+01  0.806779332E+00
     4
 # iter = 37000  time[fs]=37.00000
   C -0.269158828E+01 -0.305616367E-01  0.427550087E-01
   C  0.255755739E+01 -0.939443951E-01 -0.105956625E+00
   H -0.137263219E+02 -0.971381890E+00  0.549608820E+00
   H  0.132771077E+02  0.105230791E+01  0.828949905E+00
     4
 # iter = 37500  time[fs]=37.50000
   C -0.277591055E+01 -0.305429071E-01  0.435392145E-01
   C  0.263752382E+01 -0.972426138E-01 -0.109166024E+00
   H -0.140884118E+02 -0.997354344E+00  0.562740040E+00
   H  0.136204819E+02  0.107932232E+01  0.851236561E+00
     4
 # iter = 38000  time[fs]=38.00000
   C -0.286075740E+01 -0.305124630E-01  0.443409901E-01
   C  0.271802179E+01 -0.100544890E+00 -0.112388569E+00
   H -0.144509136E+02 -0.102333635E+01  0.575911271E+00
   H  0.139643320E+02  0.110640202E+01  0.873577756E+00
     4
 # iter = 38500  time[fs]=38.50000
   C -0.294610641E+01 -0.304792260E-01  0.451508597E-01
   C  0.279901025E+01 -0.103860938E+00 -0.115633267E+00
   H -0.148138577E+02 -0.104937794E+01  0.589070100E+00
   H  0.143085849E+02  0.113349344E+01  0.895920447E+00
     4
 # iter = 39000  time[fs]=39.00000
   C -0.303192868E+01 -0.304431518E-01  0.459683747E-01
   C  0.288046110E+01 -0.107190012E+00 -0.118898739E+00
   H -0.151772224E+02 -0.107547560E+01  0.602217847E+00
   H  0.146532225E+02  0.116059684E+01  0.918265409E+00
     4
 # iter = 39500  time[fs]=39.50000
   C -0.311819362E+01 -0.304002355E-01  0.467971006E-01
   C  0.296235311E+01 -0.110526766E+00 -0.122179067E+00
   H -0.155409637E+02 -0.110160222E+01  0.615379548E+00
   H  0.149982517E+02  0.118773630E+01  0.940637191E+00
     4
 # iter = 40000  time[fs]=40.00000
   C -0.320487488E+01 -0.303486994E-01  0.476384226E-01
   C  0.304466442E+01 -0.113868493E+00 -0.125471027E+00
   H -0.159050521E+02 -0.112774426E+01  0.628566851E+00
   H  0.153436675E+02  0.121492257E+01  0.963046968E+00
     4
 # iter = 40500  time[fs]=40.50000
   C -0.329195095E+01 -0.302897291E-01  0.484908034E-01
   C  0.312737156E+01 -0.117215981E+00 -0.128774941E+00
   H -0.162694773E+02 -0.115390606E+01  0.641773604E+00
   H  0.156894480E+02  0.124214862E+01  0.985488121E+00
     4
 # iter = 41000  time[fs]=41.00000
   C -0.337940244E+01 -0.302249655E-01  0.493522867E-01
   C  0.321045216E+01 -0.120570585E+00 -0.132091740E+00
   H -0.166342327E+02 -0.118009488E+01  0.654990885E+00
   H  0.160355694E+02  0.126940470E+01  0.100795129E+01
     4
 # iter = 41500  time[fs]=41.50000
   C -0.346721035E+01 -0.301549367E-01  0.502220606E-01
   C  0.329388662E+01 -0.123932381E+00 -0.135421114E+00
   H -0.169993062E+02 -0.120631143E+01  0.668216414E+00
   H  0.163820156E+02  0.129668778E+01  0.103043378E+01
     4
 # iter = 42000  time[fs]=42.00000
   C -0.355535634E+01 -0.300794117E-01  0.511001006E-01
   C  0.337765763E+01 -0.127300586E+00 -0.138761932E+00
   H -0.173646818E+02 -0.123255199E+01  0.681452422E+00
   H  0.167287759E+02  0.132399936E+01  0.105293743E+01
     4
 # iter = 42500  time[fs]=42.50000
   C -0.364382340E+01 -0.299982582E-01  0.519863081E-01
   C  0.346174896E+01 -0.130674559E+00 -0.142113230E+00
   H -0.177303453E+02 -0.125881359E+01  0.694700514E+00
   H  0.170758397E+02  0.135134038E+01  0.107546349E+01
     4
 # iter = 43000  time[fs]=43.00000
   C -0.373259604E+01 -0.299117015E-01  0.528802492E-01
   C  0.354614513E+01 -0.134054100E+00 -0.145474515E+00
   H -0.180962851E+02 -0.128509548E+01  0.707960117E+00
   H  0.174231950E+02  0.137870961E+01  0.109801103E+01
     4
 # iter = 43500  time[fs]=43.50000
   C -0.382165997E+01 -0.298200871E-01  0.537813892E-01
   C  0.363083151E+01 -0.137439173E+00 -0.148845484E+00
   H -0.184624914E+02 -0.131139778E+01  0.721229904E+00
   H  0.177708295E+02  0.140610513E+01  0.112057838E+01
     4
 # iter = 44000  time[fs]=44.00000
   C -0.391100172E+01 -0.297236636E-01  0.546893080E-01
   C  0.371579456E+01 -0.140829651E+00 -0.152225762E+00
   H -0.188289542E+02 -0.133772009E+01  0.734509094E+00
   H  0.181187323E+02  0.143352557E+01  0.114316445E+01
     4
 # iter = 44500  time[fs]=44.50000
   C -0.400060866E+01 -0.296225779E-01  0.556037026E-01
   C  0.380102172E+01 -0.144225307E+00 -0.155614895E+00
   H -0.191956637E+02 -0.136406154E+01  0.747797488E+00
   H  0.184668935E+02  0.146097020E+01  0.116576875E+01
     4
 # iter = 45000  time[fs]=45.00000
   C -0.409046890E+01 -0.295169591E-01  0.565243019E-01
   C  0.388650123E+01 -0.147625914E+00 -0.159012448E+00
   H -0.195626106E+02 -0.139042121E+01  0.761094961E+00
   H  0.188153040E+02  0.148843838E+01  0.118839084E+01
     4
 # iter = 45500  time[fs]=45.50000
   C -0.418057137E+01 -0.294069599E-01  0.574508237E-01
   C  0.397222204E+01 -0.151031289E+00 -0.162418046E+00
   H -0.199297861E+02 -0.141679842E+01  0.774401218E+00
   H  0.191639547E+02  0.151592932E+01  0.121103018E+01
     4
 # iter = 46000  time[fs]=46.00000
   C -0.427090568E+01 -0.292927427E-01  0.583829873E-01
   C  0.405817377E+01 -0.154441281E+00 -0.165831356E+00
   H -0.202971821E+02 -0.144319262E+01  0.787715881E+00
   H  0.195128371E+02  0.154344217E+01  0.123368612E+01
     4
 # iter = 46500  time[fs]=46.50000
   C -0.436146205E+01 -0.291744592E-01  0.593205327E-01
   C  0.414434665E+01 -0.157855740E+00 -0.169252065E+00
   H -0.206647910E+02 -0.146960328E+01  0.801038605E+00
   H  0.198619431E+02  0.157097616E+01  0.125635806E+01
     4
 # iter = 47000  time[fs]=47.00000
   C -0.445223131E+01 -0.290522466E-01  0.602632240E-01
   C  0.423073153E+01 -0.161274514E+00 -0.172679867E+00
   H -0.210326053E+02 -0.149602984E+01  0.814369112E+00
   H  0.202112651E+02  0.159853058E+01  0.127904549E+01
     4
 # iter = 47500  time[fs]=47.50000
   C -0.454320479E+01 -0.289262333E-01  0.612108418E-01
   C  0.431731979E+01 -0.164697457E+00 -0.176114476E+00
   H -0.214006181E+02 -0.152247177E+01  0.827707151E+00
   H  0.205607958E+02  0.162610478E+01  0.130174793E+01
     4
 # iter = 48000  time[fs]=48.00000
   C -0.463437434E+01 -0.287965432E-01  0.621631786E-01
   C  0.440410328E+01 -0.168124432E+00 -0.179555619E+00
   H -0.217688227E+02 -0.154892856E+01  0.841052472E+00
   H  0.209105284E+02  0.165369813E+01  0.132446491E+01
     4
 # iter = 48500  time[fs]=48.50000
   C -0.472573227E+01 -0.286632965E-01  0.631200379E-01
   C  0.449107433E+01 -0.171555308E+00 -0.183003043E+00
   H -0.221372129E+02 -0.157539974E+01  0.854404831E+00
   H  0.212604562E+02  0.168131003E+01  0.134719598E+01
     4
 # iter = 49000  time[fs]=49.00000
   C -0.481727130E+01 -0.285266076E-01  0.640812345E-01
   C  0.457822571E+01 -0.174989961E+00 -0.186456511E+00
   H -0.225057826E+02 -0.160188486E+01  0.867763994E+00
   H  0.216105731E+02  0.170893988E+01  0.136994070E+01
     4
 # iter = 49500  time[fs]=49.50000
   C -0.490898459E+01 -0.283865856E-01  0.650465946E-01
   C  0.466555056E+01 -0.178428272E+00 -0.189915794E+00
   H -0.228745261E+02 -0.162838349E+01  0.881129743E+00
   H  0.219608730E+02  0.173658714E+01  0.139269867E+01
     4
 # iter = 50000  time[fs]=50.00000
   C -0.500086562E+01 -0.282433344E-01  0.660159540E-01
   C  0.475304240E+01 -0.181870128E+00 -0.193380680E+00
   H -0.232434379E+02 -0.165489523E+01  0.894501868E+00
   H  0.223113503E+02  0.176425128E+01  0.141546949E+01
     4
 # iter = 50500  time[fs]=50.50000
   C -0.509290824E+01 -0.280969536E-01  0.669891582E-01
   C  0.484069511E+01 -0.185315420E+00 -0.196850965E+00
   H -0.236125129E+02 -0.168141967E+01  0.907880172E+00
   H  0.226619995E+02  0.179193181E+01  0.143825279E+01
     4
 # iter = 51000  time[fs]=51.00000
   C -0.518510663E+01 -0.279475382E-01  0.679660606E-01
   C  0.492850287E+01 -0.188764043E+00 -0.200326458E+00
   H -0.239817462E+02 -0.170795645E+01  0.921264466E+00
   H  0.230128155E+02  0.181962823E+01  0.146104821E+01
     4
 # iter = 51500  time[fs]=51.50000
   C -0.527745525E+01 -0.277951796E-01  0.689465228E-01
   C  0.501646017E+01 -0.192215899E+00 -0.203806975E+00
   H -0.243511328E+02 -0.173450520E+01  0.934654567E+00
   H  0.233637933E+02  0.184734010E+01  0.148385541E+01
     4
 # iter = 52000  time[fs]=52.00000
   C -0.536994886E+01 -0.276399650E-01  0.699304137E-01
   C  0.510456176E+01 -0.195670891E+00 -0.207292345E+00
   H -0.247206685E+02 -0.176106558E+01  0.948050302E+00
   H  0.237149283E+02  0.187506696E+01  0.150667405E+01
     4
 # iter = 52500  time[fs]=52.50000
   C -0.546258246E+01 -0.274819780E-01  0.709176091E-01
   C  0.519280269E+01 -0.199128928E+00 -0.210782403E+00
   H -0.250903487E+02 -0.178763727E+01  0.961451506E+00
   H  0.240662157E+02  0.190280841E+01  0.152950383E+01
     4
 # iter = 53000  time[fs]=53.00000
   C -0.555535131E+01 -0.273212987E-01  0.719079912E-01
   C  0.528117823E+01 -0.202589924E+00 -0.214276992E+00
   H -0.254601693E+02 -0.181421994E+01  0.974858022E+00
   H  0.244176514E+02  0.193056403E+01  0.155234443E+01
     4
 # iter = 53500  time[fs]=53.50000
   C -0.564825090E+01 -0.271580040E-01  0.729014480E-01
   C  0.536968387E+01 -0.206053793E+00 -0.217775965E+00
   H -0.258301265E+02 -0.184081330E+01  0.988269696E+00
   H  0.247692312E+02  0.195833344E+01  0.157519558E+01
     4
 # iter = 54000  time[fs]=54.00000
   C -0.574127693E+01 -0.269921676E-01  0.738978735E-01
   C  0.545831533E+01 -0.209520456E+00 -0.221279178E+00
   H -0.262002163E+02 -0.186741706E+01  0.100168638E+01
   H  0.251209510E+02  0.198611627E+01  0.159805698E+01
     4
 # iter = 54500  time[fs]=54.50000
   C -0.583442531E+01 -0.268238603E-01  0.748971666E-01
   C  0.554706854E+01 -0.212989834E+00 -0.224786499E+00
   H -0.265704351E+02 -0.189403094E+01  0.101510795E+01
   H  0.254728071E+02  0.201391216E+01  0.162092838E+01
     4
 # iter = 55000  time[fs]=55.00000
   C -0.592769213E+01 -0.266531500E-01  0.758992312E-01
   C  0.563593960E+01 -0.216461854E+00 -0.228297797E+00
   H -0.269407794E+02 -0.192065467E+01  0.102853425E+01
   H  0.258247958E+02  0.204172077E+01  0.164380951E+01
     4
 # iter = 55500  time[fs]=55.50000
   C -0.602107367E+01 -0.264801021E-01  0.769039759E-01
   C  0.572492480E+01 -0.219936445E+00 -0.231812950E+00
   H -0.273112459E+02 -0.194728800E+01  0.104196517E+01
   H  0.261769135E+02  0.206954176E+01  0.166670012E+01
     4
 # iter = 56000  time[fs]=56.00000
   C -0.611456636E+01 -0.263047792E-01  0.779113135E-01
   C  0.581402060E+01 -0.223413537E+00 -0.235331841E+00
   H -0.276818313E+02 -0.197393068E+01  0.105540058E+01
   H  0.265291569E+02  0.209737482E+01  0.168959999E+01
     4
 # iter = 56500  time[fs]=56.50000
   C -0.620816682E+01 -0.261272417E-01  0.789211609E-01
   C  0.590322361E+01 -0.226893065E+00 -0.238854358E+00
   H -0.280525325E+02 -0.200058247E+01  0.106884036E+01
   H  0.268815228E+02  0.212521966E+01  0.171250887E+01
     4
 # iter = 57000  time[fs]=57.00000
   C -0.630187179E+01 -0.259475476E-01  0.799334388E-01
   C  0.599253059E+01 -0.230374966E+00 -0.242380394E+00
   H -0.284233466E+02 -0.202724314E+01  0.108228441E+01
   H  0.272340079E+02  0.215307596E+01  0.173542656E+01
     4
 # iter = 57500  time[fs]=57.50000
   C -0.639567816E+01 -0.257657528E-01  0.809480716E-01
   C  0.608193844E+01 -0.233859178E+00 -0.245909845E+00
   H -0.287942706E+02 -0.205391248E+01  0.109573260E+01
   H  0.275866093E+02  0.218094346E+01  0.175835282E+01
     4
 # iter = 58000  time[fs]=58.00000
   C -0.648958296E+01 -0.255819111E-01  0.819649868E-01
   C  0.617144421E+01 -0.237345642E+00 -0.249442614E+00
   H -0.291653018E+02 -0.208059028E+01  0.110918483E+01
   H  0.279393241E+02  0.220882187E+01  0.178128747E+01
     4
 # iter = 58500  time[fs]=58.50000
   C -0.658358334E+01 -0.253960742E-01  0.829841155E-01
   C  0.626104506E+01 -0.240834302E+00 -0.252978608E+00
   H -0.295364375E+02 -0.210727632E+01  0.112264101E+01
   H  0.282921495E+02  0.223671095E+01  0.180423030E+01
     4
 # iter = 59000  time[fs]=59.00000
   C -0.667767656E+01 -0.252082920E-01  0.840053915E-01
   C  0.635073826E+01 -0.244325103E+00 -0.256517735E+00
   H -0.299076753E+02 -0.213397041E+01  0.113610104E+01
   H  0.286450828E+02  0.226461042E+01  0.182718111E+01
     4
 # iter = 59500  time[fs]=59.50000
   C -0.677186002E+01 -0.250186127E-01  0.850287515E-01
   C  0.644052120E+01 -0.247817993E+00 -0.260059909E+00
   H -0.302790125E+02 -0.216067237E+01  0.114956482E+01
   H  0.289981214E+02  0.229252006E+01  0.185013974E+01
     4
 # iter = 60000  time[fs]=60.00000
   C -0.686613120E+01 -0.248270825E-01  0.860541349E-01
   C  0.653039140E+01 -0.251312920E+00 -0.263605047E+00
   H -0.306504469E+02 -0.218738200E+01  0.116303226E+01
   H  0.293512628E+02  0.232043961E+01  0.187310599E+01
     4
 # iter = 60500  time[fs]=60.50000
   C -0.696048768E+01 -0.246337464E-01  0.870814837E-01
   C  0.662034643E+01 -0.254809837E+00 -0.267153070E+00
   H -0.310219760E+02 -0.221409914E+01  0.117650328E+01
   H  0.297045045E+02  0.234836887E+01  0.189607969E+01
     4
 # iter = 61000  time[fs]=61.00000
   C -0.705492716E+01 -0.244386474E-01  0.881107422E-01
   C  0.671038402E+01 -0.258308695E+00 -0.270703901E+00
   H -0.313935978E+02 -0.224082361E+01  0.118997779E+01
   H  0.300578443E+02  0.237630760E+01  0.191906069E+01
     4
 # iter = 61500  time[fs]=61.50000
   C -0.714944742E+01 -0.242418272E-01  0.891418570E-01
   C  0.680050192E+01 -0.261809449E+00 -0.274257467E+00
   H -0.317653101E+02 -0.226755525E+01  0.120345571E+01
   H  0.304112800E+02  0.240425560E+01  0.194204881E+01
     4
 # iter = 62000  time[fs]=62.00000
   C -0.724404630E+01 -0.240433261E-01  0.901747769E-01
   C  0.689069803E+01 -0.265312054E+00 -0.277813696E+00
   H -0.321371107E+02 -0.229429389E+01  0.121693696E+01
   H  0.307648092E+02  0.243221265E+01  0.196504391E+01
     4
 # iter = 62500  time[fs]=62.50000
   C -0.733872177E+01 -0.238431831E-01  0.912094528E-01
   C  0.698097028E+01 -0.268816470E+00 -0.281372521E+00
   H -0.325089978E+02 -0.232103939E+01  0.123042147E+01
   H  0.311184300E+02  0.246017857E+01  0.198804583E+01
     4
 # iter = 63000  time[fs]=63.00000
   C -0.743347183E+01 -0.236414356E-01  0.922458372E-01
   C  0.707131672E+01 -0.272322653E+00 -0.284933877E+00
   H -0.328809693E+02 -0.234779159E+01  0.124390915E+01
   H  0.314721402E+02  0.248815315E+01  0.201105442E+01
     4
 # iter = 63500  time[fs]=63.50000
   C -0.752829459E+01 -0.234381200E-01  0.932838849E-01
   C  0.716173545E+01 -0.275830564E+00 -0.288497699E+00
   H -0.332530234E+02 -0.237455035E+01  0.125739996E+01
   H  0.318259380E+02  0.251613621E+01  0.203406955E+01
     4
 # iter = 64000  time[fs]=64.00000
   C -0.762318822E+01 -0.232332715E-01  0.943235521E-01
   C  0.725222463E+01 -0.279340166E+00 -0.292063928E+00
   H -0.336251583E+02 -0.240131553E+01  0.127089380E+01
   H  0.321798214E+02  0.254412758E+01  0.205709108E+01
     4
 # iter = 64500  time[fs]=64.50000
   C -0.771815094E+01 -0.230269240E-01  0.953647968E-01
   C  0.734278252E+01 -0.282851420E+00 -0.295632505E+00
   H -0.339973723E+02 -0.242808699E+01  0.128439062E+01
   H  0.325337886E+02  0.257212708E+01  0.208011887E+01
     4
 # iter = 65000  time[fs]=65.00000
   C -0.781318105E+01 -0.228191106E-01  0.964075786E-01
   C  0.743340741E+01 -0.286364290E+00 -0.299203372E+00
   H -0.343696636E+02 -0.245486461E+01  0.129789036E+01
   H  0.328878378E+02  0.260013453E+01  0.210315280E+01
     4
 # iter = 65500  time[fs]=65.50000
   C -0.790827692E+01 -0.226098630E-01  0.974518585E-01
   C  0.752409768E+01 -0.289878742E+00 -0.302776477E+00
   H -0.347420306E+02 -0.248164826E+01  0.131139294E+01
   H  0.332419672E+02  0.262814978E+01  0.212619274E+01
     4
 # iter = 66000  time[fs]=66.00000
   C -0.800343696E+01 -0.223992120E-01  0.984975991E-01
   C  0.761485175E+01 -0.293394742E+00 -0.306351766E+00
   H -0.351144718E+02 -0.250843780E+01  0.132489832E+01
   H  0.335961753E+02  0.265617267E+01  0.214923858E+01
     4
 # iter = 66500  time[fs]=66.50000
   C -0.809865964E+01 -0.221871876E-01  0.995447641E-01
   C  0.770566809E+01 -0.296912256E+00 -0.309929189E+00
   H -0.354869856E+02 -0.253523314E+01  0.133840643E+01
   H  0.339504603E+02  0.268420304E+01  0.217229019E+01
     4
 # iter = 67000  time[fs]=67.00000
   C -0.819394348E+01 -0.219738187E-01  0.100593319E+00
   C  0.779654523E+01 -0.300431255E+00 -0.313508696E+00
   H -0.358595704E+02 -0.256203414E+01  0.135191722E+01
   H  0.343048208E+02  0.271224075E+01  0.219534746E+01
     4
 # iter = 67500  time[fs]=67.50000
   C -0.828928707E+01 -0.217591334E-01  0.101643229E+00
   C  0.788748177E+01 -0.303951705E+00 -0.317090240E+00
   H -0.362322250E+02 -0.258884069E+01  0.136543063E+01
   H  0.346592551E+02  0.274028564E+01  0.221841029E+01
     4
 # iter = 68000  time[fs]=68.00000
   C -0.838468902E+01 -0.215431588E-01  0.102694463E+00
   C  0.797847633E+01 -0.307473578E+00 -0.320673775E+00
   H -0.366049477E+02 -0.261565269E+01  0.137894661E+01
   H  0.350137619E+02  0.276833758E+01  0.224147856E+01
     4
 # iter = 68500  time[fs]=68.50000
   C -0.848014800E+01 -0.213259214E-01  0.103746989E+00
   C  0.806952757E+01 -0.310996846E+00 -0.324259257E+00
   H -0.369777374E+02 -0.264247004E+01  0.139246511E+01
   H  0.353683396E+02  0.279639643E+01  0.226455217E+01
     4
 # iter = 69000  time[fs]=69.00000
   C -0.857566274E+01 -0.211074468E-01  0.104800778E+00
   C  0.816063424E+01 -0.314521478E+00 -0.327846644E+00
   H -0.373505926E+02 -0.266929262E+01  0.140598608E+01
   H  0.357229869E+02  0.282446207E+01  0.228763101E+01
     4
 # iter = 69500  time[fs]=69.50000
   C -0.867123197E+01 -0.208877598E-01  0.105855799E+00
   C  0.825179508E+01 -0.318047449E+00 -0.331435893E+00
   H -0.377235122E+02 -0.269612034E+01  0.141950946E+01
   H  0.360777024E+02  0.285253435E+01  0.231071500E+01
     4
 # iter = 70000  time[fs]=70.00000
   C -0.876685451E+01 -0.206668845E-01  0.106912024E+00
   C  0.834300890E+01 -0.321574732E+00 -0.335026965E+00
   H -0.380964948E+02 -0.272295310E+01  0.143303522E+01
   H  0.364324848E+02  0.288061316E+01  0.233380403E+01
     4
 # iter = 70500  time[fs]=70.50000
   C -0.886252919E+01 -0.204448444E-01  0.107969427E+00
   C  0.843427454E+01 -0.325103302E+00 -0.338619821E+00
   H -0.384695392E+02 -0.274979081E+01  0.144656330E+01
   H  0.367873329E+02  0.290869837E+01  0.235689802E+01
     4
 # iter = 71000  time[fs]=71.00000
   C -0.895825487E+01 -0.202216621E-01  0.109027980E+00
   C  0.852559088E+01 -0.328633132E+00 -0.342214423E+00
   H -0.388426443E+02 -0.277663337E+01  0.146009367E+01
   H  0.371422454E+02  0.293678986E+01  0.237999687E+01
     4
 # iter = 71500  time[fs]=71.50000
   C -0.905403047E+01 -0.199973598E-01  0.110087659E+00
   C  0.861695682E+01 -0.332164200E+00 -0.345810734E+00
   H -0.392158089E+02 -0.280348070E+01  0.147362627E+01
   H  0.374972210E+02  0.296488753E+01  0.240310049E+01
     4
 # iter = 72000  time[fs]=72.00000
   C -0.914985493E+01 -0.197719588E-01  0.111148439E+00
   C  0.870837133E+01 -0.335696481E+00 -0.349408720E+00
   H -0.395890319E+02 -0.283033271E+01  0.148716108E+01
   H  0.378522587E+02  0.299299126E+01  0.242620880E+01
     4
 # iter = 72500  time[fs]=72.50000
   C -0.924572721E+01 -0.195454802E-01  0.112210295E+00
   C  0.879983337E+01 -0.339229953E+00 -0.353008346E+00
   H -0.399623123E+02 -0.285718931E+01  0.150069804E+01
   H  0.382073573E+02  0.302110093E+01  0.244932171E+01
     4
 # iter = 73000  time[fs]=73.00000
   C -0.934164634E+01 -0.193179442E-01  0.113273204E+00
   C  0.889134196E+01 -0.342764593E+00 -0.356609579E+00
   H -0.403356489E+02 -0.288405042E+01  0.151423711E+01
   H  0.385625156E+02  0.304921645E+01  0.247243915E+01
     4
 # iter = 73500  time[fs]=73.50000
   C -0.943761135E+01 -0.190893704E-01  0.114337145E+00
   C  0.898289614E+01 -0.346300380E+00 -0.360212387E+00
   H -0.407090408E+02 -0.291091597E+01  0.152777827E+01
   H  0.389177327E+02  0.307733770E+01  0.249556103E+01
     4
 # iter = 74000  time[fs]=74.00000
   C -0.953362129E+01 -0.188597781E-01  0.115402094E+00
   C  0.907449498E+01 -0.349837292E+00 -0.363816738E+00
   H -0.410824870E+02 -0.293778587E+01  0.154132146E+01
   H  0.392730073E+02  0.310546460E+01  0.251868728E+01
     4
 # iter = 74500  time[fs]=74.50000
   C -0.962967527E+01 -0.186291859E-01  0.116468032E+00
   C  0.916613757E+01 -0.353375309E+00 -0.367422602E+00
   H -0.414559865E+02 -0.296466006E+01  0.155486667E+01
   H  0.396283386E+02  0.313359704E+01  0.254181783E+01
     4
 # iter = 75000  time[fs]=75.00000
   C -0.972577239E+01 -0.183976120E-01  0.117534938E+00
   C  0.925782305E+01 -0.356914412E+00 -0.371029950E+00
   H -0.418295384E+02 -0.299153844E+01  0.156841384E+01
   H  0.399837255E+02  0.316173493E+01  0.256495259E+01
     4
 # iter = 75500  time[fs]=75.50000
   C -0.982191182E+01 -0.181650740E-01  0.118602792E+00
   C  0.934955055E+01 -0.360454580E+00 -0.374638753E+00
   H -0.422031417E+02 -0.301842097E+01  0.158196294E+01
   H  0.403391671E+02  0.318987816E+01  0.258809151E+01
     4
 # iter = 76000  time[fs]=76.00000
   C -0.991809272E+01 -0.179315893E-01  0.119671575E+00
   C  0.944131926E+01 -0.363995795E+00 -0.378248982E+00
   H -0.425767956E+02 -0.304530755E+01  0.159551395E+01
   H  0.406946624E+02  0.321802667E+01  0.261123450E+01
     4
 # iter = 76500  time[fs]=76.50000
   C -0.100143143E+02 -0.176971744E-01  0.120741267E+00
   C  0.953312838E+01 -0.367538039E+00 -0.381860612E+00
   H -0.429504991E+02 -0.307219813E+01  0.160906682E+01
   H  0.410502105E+02  0.324618034E+01  0.263438151E+01
     4
 # iter = 77000  time[fs]=77.00000
   C -0.101105757E+02 -0.174618458E-01  0.121811852E+00
   C  0.962497712E+01 -0.371081293E+00 -0.385473616E+00
   H -0.433242515E+02 -0.309909264E+01  0.162262153E+01
   H  0.414058105E+02  0.327433911E+01  0.265753246E+01
     4
 # iter = 77500  time[fs]=77.50000
   C -0.102068763E+02 -0.172256194E-01  0.122883311E+00
   C  0.971686472E+01 -0.374625539E+00 -0.389087968E+00
   H -0.436980519E+02 -0.312599101E+01  0.163617805E+01
   H  0.417614615E+02  0.330250288E+01  0.268068730E+01
     4
 # iter = 78000  time[fs]=78.00000
   C -0.103032152E+02 -0.169885107E-01  0.123955627E+00
   C  0.980879046E+01 -0.378170762E+00 -0.392703643E+00
   H -0.440718995E+02 -0.315289318E+01  0.164973633E+01
   H  0.421171627E+02  0.333067157E+01  0.270384595E+01
     4
 # iter = 78500  time[fs]=78.50000
   C -0.103995918E+02 -0.167505347E-01  0.125028784E+00
   C  0.990075361E+01 -0.381716944E+00 -0.396320618E+00
   H -0.444457935E+02 -0.317979908E+01  0.166329637E+01
   H  0.424729132E+02  0.335884510E+01  0.272700836E+01
     4
 # iter = 79000  time[fs]=79.00000
   C -0.104960053E+02 -0.165117061E-01  0.126102765E+00
   C  0.999275348E+01 -0.385264069E+00 -0.399938868E+00
   H -0.448197332E+02 -0.320670867E+01  0.167685812E+01
   H  0.428287122E+02  0.338702340E+01  0.275017447E+01
     4
 # iter = 79500  time[fs]=79.50000
   C -0.105924552E+02 -0.162720395E-01  0.127177555E+00
   C  0.100847894E+02 -0.388812122E+00 -0.403558371E+00
   H -0.451937178E+02 -0.323362188E+01  0.169042156E+01
   H  0.431845590E+02  0.341520639E+01  0.277334422E+01
     4
 # iter = 80000  time[fs]=80.00000
   C -0.106889406E+02 -0.160315486E-01  0.128253139E+00
   C  0.101768607E+02 -0.392361087E+00 -0.407179104E+00
   H -0.455677465E+02 -0.326053864E+01  0.170398666E+01
   H  0.435404527E+02  0.344339400E+01  0.279651755E+01
