     4
 # iter = 25000  time[fs]=25.00000
   C -0.978826448E+00 -0.586186854E-01 -0.563573283E-02
   C  0.100453050E+01  0.201101750E-01  0.433223435E-02
   H -0.524579114E+01 -0.532318968E+00  0.465703571E+00
   H  0.532316425E+01  0.745318342E+00 -0.412941225E+00
     4
 # iter = 25500  time[fs]=25.50000
   C -0.102557816E+01 -0.605475370E-01 -0.844128334E-02
   C  0.104682548E+01  0.161933179E-01  0.437428969E-02
   H -0.558664269E+01 -0.572548457E+00  0.487511203E+00
   H  0.563053137E+01  0.780686820E+00 -0.448510512E+00
     4
 # iter = 26000  time[fs]=26.00000
   C -0.107581550E+01 -0.636605068E-01 -0.123724289E-01
   C  0.109064994E+01  0.114907500E-01  0.357891953E-02
   H -0.593554880E+01 -0.618461781E+00  0.504170720E+00
   H  0.593508873E+01  0.811039024E+00 -0.489713494E+00
     4
 # iter = 26500  time[fs]=26.50000
   C -0.112606441E+01 -0.646694039E-01 -0.141529409E-01
   C  0.113836609E+01  0.855465420E-02  0.451032051E-02
   H -0.627611877E+01 -0.653942820E+00  0.531735368E+00
   H  0.625266632E+01  0.852430288E+00 -0.520432582E+00
     4
 # iter = 27000  time[fs]=27.00000
   C -0.117598043E+01 -0.634014826E-01 -0.136201386E-01
   C  0.118991705E+01  0.750185328E-02  0.729502389E-02
   H -0.660730605E+01 -0.678169003E+00  0.570976671E+00
   H  0.658382495E+01  0.905621357E+00 -0.539851705E+00
     4
 # iter = 27500  time[fs]=27.50000
   C -0.122783411E+01 -0.622847079E-01 -0.132104023E-01
   C  0.124322887E+01  0.641632294E-02  0.100247859E-01
   H -0.694087043E+01 -0.703084397E+00  0.609908744E+00
   H  0.691637941E+01  0.958605281E+00 -0.559928377E+00
     4
 # iter = 28000  time[fs]=28.00000
   C -0.128319790E+01 -0.630357059E-01 -0.146472658E-01
   C  0.129680007E+01  0.394120181E-02  0.113491026E-01
   H -0.728510069E+01 -0.737136557E+00  0.640048104E+00
   H  0.724167611E+01  0.100288191E+01 -0.589120218E+00
     4
 # iter = 28500  time[fs]=28.50000
   C -0.134123662E+01 -0.649511737E-01 -0.172330124E-01
   C  0.135103700E+01  0.615728944E-03  0.118124770E-01
   H -0.763641689E+01 -0.776886877E+00  0.664801454E+00
   H  0.756298747E+01  0.104185290E+01 -0.623989796E+00
     4
 # iter = 29000  time[fs]=29.00000
   C -0.140011523E+01 -0.663162452E-01 -0.192572900E-01
   C  0.140715106E+01 -0.222735751E-02  0.127519522E-01
   H -0.798628542E+01 -0.813926738E+00  0.692549253E+00
   H  0.788858328E+01  0.108389903E+01 -0.656125683E+00
     4
 # iter = 29500  time[fs]=29.50000
   C -0.145912977E+01 -0.665359623E-01 -0.201288185E-01
   C  0.146549019E+01 -0.413029825E-02  0.146287221E-01
   H -0.833168637E+01 -0.845344588E+00  0.726178688E+00
   H  0.822124860E+01  0.113190391E+01 -0.682616959E+00
     4
 # iter = 30000  time[fs]=30.00000
   C -0.151900536E+01 -0.664341561E-01 -0.206744337E-01
   C  0.152530389E+01 -0.574447995E-02  0.167941024E-01
   H -0.867657967E+01 -0.875194004E+00  0.761615159E+00
   H  0.855681121E+01  0.118178416E+01 -0.707522366E+00
     4
 # iter = 30500  time[fs]=30.50000
   C -0.158057253E+01 -0.669308149E-01 -0.218165549E-01
   C  0.158577681E+01 -0.779553014E-02  0.185246020E-01
   H -0.902540703E+01 -0.907999111E+00  0.794316064E+00
   H  0.889064057E+01  0.122898851E+01 -0.735371151E+00
     4
 # iter = 31000  time[fs]=31.00000
   C -0.164376006E+01 -0.680359488E-01 -0.235671355E-01
   C  0.164681477E+01 -0.102960736E-01  0.198092983E-01
   H -0.937814883E+01 -0.943814150E+00  0.824210613E+00
   H  0.922259147E+01  0.127344172E+01 -0.766219136E+00
     4
 # iter = 31500  time[fs]=31.50000
   C -0.170788945E+01 -0.691448293E-01 -0.253229905E-01
   C  0.170881283E+01 -0.127769128E-01  0.211187375E-01
   H -0.973177296E+01 -0.979673514E+00  0.854249524E+00
   H  0.955555112E+01  0.131809296E+01 -0.797099893E+00
     4
 # iter = 32000  time[fs]=32.00000
   C -0.177251825E+01 -0.698819825E-01 -0.267098735E-01
   C  0.177199409E+01 -0.149476358E-01  0.227443779E-01
   H -0.100843792E+02 -0.101373647E+01  0.886260203E+00
   H  0.989128921E+01  0.136476764E+01 -0.826172542E+00
     4
 # iter = 32500  time[fs]=32.50000
   C -0.183774199E+01 -0.704038337E-01 -0.278851851E-01
   C  0.183617213E+01 -0.169335627E-01  0.245616928E-01
   H -0.104366847E+02 -0.104677350E+01  0.919460272E+00
   H  0.102289690E+02  0.141267955E+01 -0.854209187E+00
     4
 # iter = 33000  time[fs]=33.00000
   C -0.190383003E+01 -0.710351089E-01 -0.291744180E-01
   C  0.190103480E+01 -0.189912941E-01  0.263146732E-01
   H -0.107902380E+02 -0.108038092E+01  0.952242713E+00
   H  0.105669335E+02  0.146021748E+01 -0.882808243E+00
     4
 # iter = 33500  time[fs]=33.50000
   C -0.197082605E+01 -0.718699832E-01 -0.306723403E-01
   C  0.196645564E+01 -0.211966543E-01  0.279279282E-01
   H -0.111454594E+02 -0.111502239E+01  0.984134162E+00
   H  0.109046646E+02  0.150690503E+01 -0.912434502E+00
     4
 # iter = 34000  time[fs]=34.00000
   C -0.203854358E+01 -0.727680765E-01 -0.322390217E-01
   C  0.203249643E+01 -0.234416097E-01  0.295097988E-01
   H -0.115016208E+02 -0.115000937E+01  0.101581434E+01
   H  0.112428026E+02  0.155342005E+01 -0.942399580E+00
     4
 # iter = 34500  time[fs]=34.50000
   C -0.210680337E+01 -0.735922651E-01 -0.337376727E-01
   C  0.209922067E+01 -0.256204125E-01  0.311662363E-01
   H -0.118580134E+02 -0.118466894E+01  0.104794811E+01
   H  0.115819763E+02  0.160042569E+01 -0.972030698E+00
     4
 # iter = 35000  time[fs]=35.00000
   C -0.217556821E+01 -0.743438985E-01 -0.351698845E-01
   C  0.216658729E+01 -0.277354540E-01  0.328949680E-01
   H -0.122146112E+02 -0.121900796E+01  0.108052127E+01
   H  0.119221380E+02  0.164790574E+01 -0.100133524E+01
     4
 # iter = 35500  time[fs]=35.50000
   C -0.224487982E+01 -0.751000345E-01 -0.366128818E-01
   C  0.223449939E+01 -0.298481836E-01  0.346345943E-01
   H -0.125717624E+02 -0.125340481E+01  0.111314874E+01
   H  0.122628716E+02  0.169547293E+01 -0.103069238E+01
     4
 # iter = 36000  time[fs]=36.00000
   C -0.231474742E+01 -0.759023573E-01 -0.381084531E-01
   C  0.230289083E+01 -0.319922117E-01  0.363515008E-01
   H -0.129296442E+02 -0.128806401E+01  0.114561983E+01
   H  0.126039380E+02  0.174291470E+01 -0.106030722E+01
     4
 # iter = 36500  time[fs]=36.50000
   C -0.238512207E+01 -0.767317677E-01 -0.396375537E-01
   C  0.237174577E+01 -0.341534486E-01  0.380597309E-01
   H -0.132881371E+02 -0.132289144E+01  0.117802298E+01
   H  0.129453996E+02  0.179031795E+01 -0.109008596E+01
     4
 # iter = 37000  time[fs]=37.00000
   C -0.245594324E+01 -0.775552380E-01 -0.411671693E-01
   C  0.244106175E+01 -0.363067880E-01  0.397843108E-01
   H -0.136470550E+02 -0.135772450E+01  0.121051558E+01
   H  0.132873900E+02  0.183783872E+01 -0.111986621E+01
     4
 # iter = 37500  time[fs]=37.50000
   C -0.252717711E+01 -0.783643066E-01 -0.426888194E-01
   C  0.251081935E+01 -0.384462474E-01  0.415311163E-01
   H -0.140063343E+02 -0.139252112E+01  0.124313486E+01
   H  0.136299242E+02  0.188551291E+01 -0.114960620E+01
     4
 # iter = 38000  time[fs]=38.00000
   C -0.259881211E+01 -0.791708281E-01 -0.442143140E-01
   C  0.258098524E+01 -0.405816563E-01  0.432901904E-01
   H -0.143660128E+02 -0.142733894E+01  0.127581869E+01
   H  0.139729194E+02  0.193327708E+01 -0.117936389E+01
     4
 # iter = 38500  time[fs]=38.50000
   C -0.267083676E+01 -0.799849936E-01 -0.457537783E-01
   C  0.265152926E+01 -0.427214687E-01  0.450529361E-01
   H -0.147261212E+02 -0.146222738E+01  0.130851352E+01
   H  0.143163029E+02  0.198107644E+01 -0.120918900E+01
     4
 # iter = 39000  time[fs]=39.00000
   C -0.274323026E+01 -0.808061005E-01 -0.473064278E-01
   C  0.272243139E+01 -0.448655509E-01  0.468193325E-01
   H -0.150866383E+02 -0.149718233E+01  0.134121959E+01
   H  0.146600571E+02  0.202891013E+01 -0.123907764E+01
     4
 # iter = 39500  time[fs]=39.50000
   C -0.281596850E+01 -0.816286606E-01 -0.488666795E-01
   C  0.279367692E+01 -0.470099689E-01  0.485931505E-01
   H -0.154475205E+02 -0.153217617E+01  0.137396095E+01
   H  0.150041896E+02  0.207680120E+01 -0.126900237E+01
     4
 # iter = 40000  time[fs]=40.00000
   C -0.288903144E+01 -0.824499517E-01 -0.504317069E-01
   C  0.286525030E+01 -0.491529057E-01  0.503760381E-01
   H -0.158087387E+02 -0.156719481E+01  0.140674831E+01
   H  0.153486957E+02  0.212475941E+01 -0.129894931E+01
     4
 # iter = 40500  time[fs]=40.50000
   C -0.296240391E+01 -0.832709123E-01 -0.520023363E-01
   C  0.293713439E+01 -0.512953674E-01  0.521668169E-01
   H -0.161702829E+02 -0.160224217E+01  0.143957465E+01
   H  0.156935537E+02  0.217277683E+01 -0.132892254E+01
     4
 # iter = 41000  time[fs]=41.00000
   C -0.303607243E+01 -0.840930751E-01 -0.535799833E-01
   C  0.300931271E+01 -0.534387891E-01  0.539638775E-01
   H -0.165321470E+02 -0.163732506E+01  0.147243023E+01
   H  0.160387406E+02  0.222084286E+01 -0.135892904E+01
     4
 # iter = 41500  time[fs]=41.50000
   C -0.311002320E+01 -0.849166481E-01 -0.551647350E-01
   C  0.308177087E+01 -0.555835379E-01  0.557666777E-01
   H -0.168943189E+02 -0.167244378E+01  0.150531200E+01
   H  0.163842404E+02  0.226895366E+01 -0.138896925E+01
     4
 # iter = 42000  time[fs]=42.00000
   C -0.318424247E+01 -0.857409435E-01 -0.567557806E-01
   C  0.315449613E+01 -0.577292533E-01  0.575754040E-01
   H -0.172567833E+02 -0.170759427E+01  0.153822147E+01
   H  0.167300430E+02  0.231711000E+01 -0.141903925E+01
     4
 # iter = 42500  time[fs]=42.50000
   C -0.325871747E+01 -0.865654233E-01 -0.583524574E-01
   C  0.322747651E+01 -0.598756672E-01  0.593901516E-01
   H -0.176195261E+02 -0.174277317E+01  0.157115957E+01
   H  0.170761379E+02  0.236531210E+01 -0.144913580E+01
     4
 # iter = 43000  time[fs]=43.00000
   C -0.333343667E+01 -0.873900119E-01 -0.599545652E-01
   C  0.330070046E+01 -0.620228535E-01  0.612106763E-01
   H -0.179825361E+02 -0.177797943E+01  0.160412508E+01
   H  0.174225135E+02  0.241355809E+01 -0.147925796E+01
     4
 # iter = 43500  time[fs]=43.50000
   C -0.340838942E+01 -0.882148047E-01 -0.615620749E-01
   C  0.337415705E+01 -0.641710011E-01  0.630366214E-01
   H -0.183458035E+02 -0.181321284E+01  0.163711607E+01
   H  0.177691579E+02  0.246184541E+01 -0.150940564E+01
     4
 # iter = 44000  time[fs]=44.00000
   C -0.348356567E+01 -0.890398006E-01 -0.631748620E-01
   C  0.344783608E+01 -0.663202076E-01  0.648677246E-01
   H -0.187093189E+02 -0.184847274E+01  0.167013119E+01
   H  0.181160605E+02  0.251017211E+01 -0.153957826E+01
     4
 # iter = 44500  time[fs]=44.50000
   C -0.355895584E+01 -0.898648944E-01 -0.647926993E-01
   C  0.352172808E+01 -0.684704751E-01  0.667038230E-01
   H -0.190730725E+02 -0.188375797E+01  0.170316970E+01
   H  0.184632117E+02  0.255853692E+01 -0.156977475E+01
     4
 # iter = 45000  time[fs]=45.00000
   C -0.363455092E+01 -0.906899777E-01 -0.664153584E-01
   C  0.359582415E+01 -0.706217912E-01  0.685447717E-01
   H -0.194370554E+02 -0.191906737E+01  0.173623097E+01
   H  0.188106025E+02  0.260693865E+01 -0.159999404E+01
     4
 # iter = 45500  time[fs]=45.50000
   C -0.371034247E+01 -0.915149878E-01 -0.680426584E-01
   C  0.367011587E+01 -0.727741681E-01  0.703904051E-01
   H -0.198012589E+02 -0.195440000E+01  0.176931423E+01
   H  0.191582243E+02  0.265537604E+01 -0.163023526E+01
     4
 # iter = 46000  time[fs]=46.00000
   C -0.378632256E+01 -0.923398896E-01 -0.696744485E-01
   C  0.374459533E+01 -0.749276303E-01  0.722405495E-01
   H -0.201656752E+02 -0.198975511E+01  0.180241862E+01
   H  0.195060688E+02  0.270384777E+01 -0.166049773E+01
     4
 # iter = 46500  time[fs]=46.50000
   C -0.386248371E+01 -0.931646493E-01 -0.713105817E-01
   C  0.381925505E+01 -0.770821948E-01  0.740950424E-01
   H -0.205302969E+02 -0.202513194E+01  0.183554339E+01
   H  0.198541280E+02  0.275235261E+01 -0.169078077E+01
     4
 # iter = 47000  time[fs]=47.00000
   C -0.393881884E+01 -0.939892285E-01 -0.729509088E-01
   C  0.389408797E+01 -0.792378680E-01  0.759537366E-01
   H -0.208951167E+02 -0.206052973E+01  0.186868782E+01
   H  0.202023947E+02  0.280088945E+01 -0.172108368E+01
     4
 # iter = 47500  time[fs]=47.50000
   C -0.401532128E+01 -0.948135906E-01 -0.745952854E-01
   C  0.396908745E+01 -0.813946508E-01  0.778164940E-01
   H -0.212601279E+02 -0.209594777E+01  0.190185129E+01
   H  0.205508618E+02  0.284945724E+01 -0.175140578E+01
     4
 # iter = 48000  time[fs]=48.00000
   C -0.409198471E+01 -0.956377050E-01 -0.762435757E-01
   C  0.404424717E+01 -0.835525435E-01  0.796831814E-01
   H -0.216253240E+02 -0.213138537E+01  0.193503316E+01
   H  0.208995226E+02  0.289805497E+01 -0.178174646E+01
     4
 # iter = 48500  time[fs]=48.50000
   C -0.416880315E+01 -0.964615465E-01 -0.778956521E-01
   C  0.411956119E+01 -0.857115452E-01  0.815536706E-01
   H -0.219906988E+02 -0.216684188E+01  0.196823284E+01
   H  0.212483708E+02  0.294668166E+01 -0.181210512E+01
     4
 # iter = 49000  time[fs]=49.00000
   C -0.424577093E+01 -0.972850932E-01 -0.795513930E-01
   C  0.419502387E+01 -0.878716536E-01  0.834278392E-01
   H -0.223562466E+02 -0.220231670E+01  0.200144976E+01
   H  0.215974003E+02  0.299533639E+01 -0.184248119E+01
     4
 # iter = 49500  time[fs]=49.50000
   C -0.432288269E+01 -0.981083256E-01 -0.812106820E-01
   C  0.427062983E+01 -0.900328640E-01  0.853055707E-01
   H -0.227219619E+02 -0.223780924E+01  0.203468337E+01
   H  0.219466053E+02  0.304401830E+01 -0.187287414E+01
     4
 # iter = 50000  time[fs]=50.00000
   C -0.440013333E+01 -0.989312261E-01 -0.828734076E-01
   C  0.434637402E+01 -0.921951700E-01  0.871867540E-01
   H -0.230878392E+02 -0.227331895E+01  0.206793315E+01
   H  0.222959804E+02  0.309272653E+01 -0.190328345E+01
     4
 # iter = 50500  time[fs]=50.50000
   C -0.447751802E+01 -0.997537797E-01 -0.845394633E-01
   C  0.442225161E+01 -0.943585641E-01  0.890712832E-01
   H -0.234538736E+02 -0.230884529E+01  0.210119862E+01
   H  0.226455203E+02  0.314146030E+01 -0.193370863E+01
     4
 # iter = 51000  time[fs]=51.00000
   C -0.455503216E+01 -0.100575974E+00 -0.862087475E-01
   C  0.449825802E+01 -0.965230379E-01  0.909590565E-01
   H -0.238200602E+02 -0.234438777E+01  0.213447931E+01
   H  0.229952200E+02  0.319021884E+01 -0.196414922E+01
     4
 # iter = 51500  time[fs]=51.50000
   C -0.463267136E+01 -0.101397797E+00 -0.878811630E-01
   C  0.457438889E+01 -0.986885821E-01  0.928499769E-01
   H -0.241863945E+02 -0.237994589E+01  0.216777475E+01
   H  0.233450747E+02  0.323900142E+01 -0.199460475E+01
     4
 # iter = 52000  time[fs]=52.00000
   C -0.471043149E+01 -0.102219239E+00 -0.895566168E-01
   C  0.465064007E+01 -0.100855186E+00  0.947439514E-01
   H -0.245528720E+02 -0.241551920E+01  0.220108453E+01
   H  0.236950799E+02  0.328780735E+01 -0.202507481E+01
     4
 # iter = 52500  time[fs]=52.50000
   C -0.478830856E+01 -0.103040294E+00 -0.912350197E-01
   C  0.472700761E+01 -0.103022840E+00  0.966408909E-01
   H -0.249194887E+02 -0.245110725E+01  0.223440823E+01
   H  0.240452311E+02  0.333663595E+01 -0.205555898E+01
     4
 # iter = 53000  time[fs]=53.00000
   C -0.486629880E+01 -0.103860953E+00 -0.929162866E-01
   C  0.480348776E+01 -0.105191531E+00  0.985407101E-01
   H -0.252862403E+02 -0.248670963E+01  0.226774545E+01
   H  0.243955243E+02  0.338548659E+01 -0.208605686E+01
     4
 # iter = 53500  time[fs]=53.50000
   C -0.494439861E+01 -0.104681212E+00 -0.946003355E-01
   C  0.488007692E+01 -0.107361249E+00  0.100443327E+00
   H -0.256531232E+02 -0.252232592E+01  0.230109582E+01
   H  0.247459553E+02  0.343435865E+01 -0.211656807E+01
     4
 # iter = 54000  time[fs]=54.00000
   C -0.502260455E+01 -0.105501066E+00 -0.962870881E-01
   C  0.495677167E+01 -0.109531981E+00  0.102348664E+00
   H -0.260201335E+02 -0.255795574E+01  0.233445897E+01
   H  0.250965203E+02  0.348325155E+01 -0.214709227E+01
     4
 # iter = 54500  time[fs]=54.50000
   C -0.510091333E+01 -0.106320512E+00 -0.979764691E-01
   C  0.503356872E+01 -0.111703714E+00  0.104256644E+00
   H -0.263872679E+02 -0.259359871E+01  0.236783456E+01
   H  0.254472157E+02  0.353216471E+01 -0.217762908E+01
     4
 # iter = 55000  time[fs]=55.00000
   C -0.517932182E+01 -0.107139546E+00 -0.996684062E-01
   C  0.511046497E+01 -0.113876436E+00  0.106167197E+00
   H -0.267545228E+02 -0.262925448E+01  0.240122226E+01
   H  0.257980378E+02  0.358109761E+01 -0.220817819E+01
     4
 # iter = 55500  time[fs]=55.50000
   C -0.525782702E+01 -0.107958167E+00 -0.101362830E+00
   C  0.518745742E+01 -0.116050134E+00  0.108080252E+00
   H -0.271218950E+02 -0.266492271E+01  0.243462173E+01
   H  0.261489834E+02  0.363004972E+01 -0.223873927E+01
     4
 # iter = 56000  time[fs]=56.00000
   C -0.533642606E+01 -0.108776373E+00 -0.103059674E+00
   C  0.526454321E+01 -0.118224795E+00  0.109995742E+00
   H -0.274893814E+02 -0.270060307E+01  0.246803268E+01
   H  0.265000492E+02  0.367902054E+01 -0.226931201E+01
     4
 # iter = 56500  time[fs]=56.50000
   C -0.541511618E+01 -0.109594165E+00 -0.104758874E+00
   C  0.534171960E+01 -0.120400407E+00  0.111913604E+00
   H -0.278569791E+02 -0.273629524E+01  0.250145481E+01
   H  0.268512319E+02  0.372800959E+01 -0.229989611E+01
     4
 # iter = 57000  time[fs]=57.00000
   C -0.549389475E+01 -0.110411541E+00 -0.106460369E+00
   C  0.541898397E+01 -0.122576954E+00  0.113833776E+00
   H -0.282246850E+02 -0.277199891E+01  0.253488783E+01
   H  0.272025286E+02  0.377701640E+01 -0.233049129E+01
     4
 # iter = 57500  time[fs]=57.50000
   C -0.557275926E+01 -0.111228502E+00 -0.108164098E+00
   C  0.549633381E+01 -0.124754426E+00  0.115756198E+00
   H -0.285924965E+02 -0.280771380E+01  0.256833148E+01
   H  0.275539365E+02  0.382604054E+01 -0.236109728E+01
     4
 # iter = 58000  time[fs]=58.00000
   C -0.565170728E+01 -0.112045050E+00 -0.109870006E+00
   C  0.557376671E+01 -0.126932809E+00  0.117680814E+00
   H -0.289604108E+02 -0.284343962E+01  0.260178547E+01
   H  0.279054526E+02  0.387508157E+01 -0.239171380E+01
     4
 # iter = 58500  time[fs]=58.50000
   C -0.573073649E+01 -0.112861185E+00 -0.111578037E+00
   C  0.565128035E+01 -0.129112089E+00  0.119607567E+00
   H -0.293284255E+02 -0.287917610E+01  0.263524957E+01
   H  0.282570744E+02  0.392413908E+01 -0.242234060E+01
     4
 # iter = 59000  time[fs]=59.00000
   C -0.580984467E+01 -0.113676908E+00 -0.113288138E+00
   C  0.572887253E+01 -0.131292253E+00  0.121536405E+00
   H -0.296965379E+02 -0.291492298E+01  0.266872353E+01
   H  0.286087991E+02  0.397321267E+01 -0.245297743E+01
     4
 # iter = 59500  time[fs]=59.50000
   C -0.588902967E+01 -0.114492223E+00 -0.115000257E+00
   C  0.580654110E+01 -0.133473290E+00  0.123467277E+00
   H -0.300647458E+02 -0.295068001E+01  0.270220711E+01
   H  0.289606244E+02  0.402230197E+01 -0.248362407E+01
     4
 # iter = 60000  time[fs]=60.00000
   C -0.596828943E+01 -0.115307130E+00 -0.116714347E+00
   C  0.588428403E+01 -0.135655185E+00  0.125400133E+00
   H -0.304330468E+02 -0.298644695E+01  0.273570008E+01
   H  0.293125479E+02  0.407140659E+01 -0.251428027E+01
     4
 # iter = 60500  time[fs]=60.50000
   C -0.604762199E+01 -0.116121632E+00 -0.118430359E+00
   C  0.596209934E+01 -0.137837927E+00  0.127334926E+00
   H -0.308014388E+02 -0.302222356E+01  0.276920222E+01
   H  0.296645671E+02  0.412052618E+01 -0.254494582E+01
     4
 # iter = 61000  time[fs]=61.00000
   C -0.612702544E+01 -0.116935733E+00 -0.120148247E+00
   C  0.603998514E+01 -0.140021503E+00  0.129271610E+00
   H -0.311699195E+02 -0.305800961E+01  0.280271332E+01
   H  0.300166799E+02  0.416966039E+01 -0.257562050E+01
     4
 # iter = 61500  time[fs]=61.50000
   C -0.620649794E+01 -0.117749434E+00 -0.121867968E+00
   C  0.611793961E+01 -0.142205900E+00  0.131210140E+00
   H -0.315384869E+02 -0.309380490E+01  0.283623319E+01
   H  0.303688841E+02  0.421880890E+01 -0.260630411E+01
     4
 # iter = 62000  time[fs]=62.00000
   C -0.628603775E+01 -0.118562738E+00 -0.123589478E+00
   C  0.619596100E+01 -0.144391106E+00  0.133150474E+00
   H -0.319071390E+02 -0.312960920E+01  0.286976160E+01
   H  0.307211775E+02  0.426797139E+01 -0.263699644E+01
     4
 # iter = 62500  time[fs]=62.50000
   C -0.636564316E+01 -0.119375649E+00 -0.125312736E+00
   C  0.627404762E+01 -0.146577109E+00  0.135092570E+00
   H -0.322758739E+02 -0.316542231E+01  0.290329839E+01
   H  0.310735583E+02  0.431714753E+01 -0.266769731E+01
     4
 # iter = 63000  time[fs]=63.00000
   C -0.644531254E+01 -0.120188170E+00 -0.127037703E+00
   C  0.635219784E+01 -0.148763898E+00  0.137036389E+00
   H -0.326446897E+02 -0.320124404E+01  0.293684336E+01
   H  0.314260244E+02  0.436633703E+01 -0.269840652E+01
     4
 # iter = 63500  time[fs]=63.50000
   C -0.652504432E+01 -0.121000305E+00 -0.128764340E+00
   C  0.643041009E+01 -0.150951460E+00  0.138981890E+00
   H -0.330135847E+02 -0.323707420E+01  0.297039633E+01
   H  0.317785739E+02  0.441553959E+01 -0.272912390E+01
     4
 # iter = 64000  time[fs]=64.00000
   C -0.660483697E+01 -0.121812056E+00 -0.130492609E+00
   C  0.650868287E+01 -0.153139784E+00  0.140929038E+00
   H -0.333825570E+02 -0.327291260E+01  0.300395713E+01
   H  0.321312051E+02  0.446475494E+01 -0.275984927E+01
     4
 # iter = 64500  time[fs]=64.50000
   C -0.668468903E+01 -0.122623427E+00 -0.132222475E+00
   C  0.658701471E+01 -0.155328858E+00  0.142877795E+00
   H -0.337516050E+02 -0.330875907E+01  0.303752559E+01
   H  0.324839161E+02  0.451398281E+01 -0.279058246E+01
     4
 # iter = 65000  time[fs]=65.00000
   C -0.676459908E+01 -0.123434422E+00 -0.133953902E+00
   C  0.666540420E+01 -0.157518672E+00  0.144828127E+00
   H -0.341207271E+02 -0.334461343E+01  0.307110155E+01
   H  0.328367053E+02  0.456322292E+01 -0.282132332E+01
     4
 # iter = 65500  time[fs]=65.50000
   C -0.684456577E+01 -0.124245045E+00 -0.135686857E+00
   C  0.674385000E+01 -0.159709213E+00  0.146780000E+00
   H -0.344899217E+02 -0.338047551E+01  0.310468485E+01
   H  0.331895709E+02  0.461247503E+01 -0.285207166E+01
     4
 # iter = 66000  time[fs]=66.00000
   C -0.692458777E+01 -0.125055298E+00 -0.137421306E+00
   C  0.682235077E+01 -0.161900473E+00  0.148733380E+00
   H -0.348591872E+02 -0.341634516E+01  0.313827535E+01
   H  0.335425114E+02  0.466173888E+01 -0.288282736E+01
     4
 # iter = 66500  time[fs]=66.50000
   C -0.700466381E+01 -0.125865186E+00 -0.139157220E+00
   C  0.690090527E+01 -0.164092438E+00  0.150688237E+00
   H -0.352285222E+02 -0.345222222E+01  0.317187288E+01
   H  0.338955253E+02  0.471101423E+01 -0.291359025E+01
     4
 # iter = 67000  time[fs]=67.00000
   C -0.708479266E+01 -0.126674713E+00 -0.140894565E+00
   C  0.697951226E+01 -0.166285100E+00  0.152644539E+00
   H -0.355979252E+02 -0.348810653E+01  0.320547732E+01
   H  0.342486109E+02  0.476030086E+01 -0.294436019E+01
     4
 # iter = 67500  time[fs]=67.50000
   C -0.716497312E+01 -0.127483882E+00 -0.142633314E+00
   C  0.705817056E+01 -0.168478447E+00  0.154602255E+00
   H -0.359673949E+02 -0.352399795E+01  0.323908852E+01
   H  0.346017669E+02  0.480959853E+01 -0.297513704E+01
     4
 # iter = 68000  time[fs]=68.00000
   C -0.724520405E+01 -0.128292698E+00 -0.144373436E+00
   C  0.713687901E+01 -0.170672470E+00  0.156561358E+00
   H -0.363369299E+02 -0.355989634E+01  0.327270634E+01
   H  0.349549919E+02  0.485890703E+01 -0.300592066E+01
     4
 # iter = 68500  time[fs]=68.50000
   C -0.732548433E+01 -0.129101163E+00 -0.146114904E+00
   C  0.721563652E+01 -0.172867159E+00  0.158521820E+00
   H -0.367065289E+02 -0.359580155E+01  0.330633066E+01
   H  0.353082844E+02  0.490822614E+01 -0.303671092E+01
     4
 # iter = 69000  time[fs]=69.00000
   C -0.740581288E+01 -0.129909281E+00 -0.147857691E+00
   C  0.729444201E+01 -0.175062504E+00  0.160483611E+00
   H -0.370761905E+02 -0.363171346E+01  0.333996135E+01
   H  0.356616432E+02  0.495755565E+01 -0.306750770E+01
     4
 # iter = 69500  time[fs]=69.50000
   C -0.748618866E+01 -0.130717058E+00 -0.149601770E+00
   C  0.737329445E+01 -0.177258494E+00  0.162446707E+00
   H -0.374459137E+02 -0.366763192E+01  0.337359828E+01
   H  0.360150668E+02  0.500689537E+01 -0.309831087E+01
     4
 # iter = 70000  time[fs]=70.00000
   C -0.756661066E+01 -0.131524495E+00 -0.151347116E+00
   C  0.745219281E+01 -0.179455122E+00  0.164411082E+00
   H -0.378156972E+02 -0.370355683E+01  0.340724134E+01
   H  0.363685542E+02  0.505624510E+01 -0.312912030E+01
     4
 # iter = 70500  time[fs]=70.50000
   C -0.764707789E+01 -0.132331597E+00 -0.153093704E+00
   C  0.753113614E+01 -0.181652377E+00  0.166376709E+00
   H -0.381855397E+02 -0.373948804E+01  0.344089041E+01
   H  0.367221040E+02  0.510560466E+01 -0.315993588E+01
     4
 # iter = 71000  time[fs]=71.00000
   C -0.772758941E+01 -0.133138368E+00 -0.154841509E+00
   C  0.761012348E+01 -0.183850250E+00  0.168343566E+00
   H -0.385554403E+02 -0.377542545E+01  0.347454537E+01
   H  0.370757151E+02  0.515497385E+01 -0.319075749E+01
     4
 # iter = 71500  time[fs]=71.50000
   C -0.780814431E+01 -0.133944812E+00 -0.156590509E+00
   C  0.768915392E+01 -0.186048733E+00  0.170311629E+00
   H -0.389253978E+02 -0.381136893E+01  0.350820612E+01
   H  0.374293863E+02  0.520435249E+01 -0.322158503E+01
     4
 # iter = 72000  time[fs]=72.00000
   C -0.788874167E+01 -0.134750931E+00 -0.158340680E+00
   C  0.776822658E+01 -0.188247816E+00  0.172280874E+00
   H -0.392954111E+02 -0.384731838E+01  0.354187255E+01
   H  0.377831165E+02  0.525374042E+01 -0.325241838E+01
     4
 # iter = 72500  time[fs]=72.50000
   C -0.796938065E+01 -0.135556730E+00 -0.160092000E+00
   C  0.784734058E+01 -0.190447491E+00  0.174251279E+00
   H -0.396654792E+02 -0.388327368E+01  0.357554456E+01
   H  0.381369046E+02  0.530313747E+01 -0.328325744E+01
     4
 # iter = 73000  time[fs]=73.00000
   C -0.805006040E+01 -0.136362213E+00 -0.161844448E+00
   C  0.792649511E+01 -0.192647750E+00  0.176222824E+00
   H -0.400356011E+02 -0.391923473E+01  0.360922204E+01
   H  0.384907495E+02  0.535254346E+01 -0.331410210E+01
     4
 # iter = 73500  time[fs]=73.50000
   C -0.813078010E+01 -0.137167383E+00 -0.163598003E+00
   C  0.800568933E+01 -0.194848583E+00  0.178195485E+00
   H -0.404057758E+02 -0.395520142E+01  0.364290490E+01
   H  0.388446502E+02  0.540195824E+01 -0.334495227E+01
     4
 # iter = 74000  time[fs]=74.00000
   C -0.821153896E+01 -0.137972243E+00 -0.165352644E+00
   C  0.808492247E+01 -0.197049984E+00  0.180169244E+00
   H -0.407760023E+02 -0.399117365E+01  0.367659304E+01
   H  0.391986058E+02  0.545138166E+01 -0.337580785E+01
     4
 # iter = 74500  time[fs]=74.50000
   C -0.829233622E+01 -0.138776797E+00 -0.167108352E+00
   C  0.816419377E+01 -0.199251944E+00  0.182144080E+00
   H -0.411462797E+02 -0.402715132E+01  0.371028637E+01
   H  0.395526151E+02  0.550081355E+01 -0.340666875E+01
     4
 # iter = 75000  time[fs]=75.00000
   C -0.837317113E+01 -0.139581050E+00 -0.168865108E+00
   C  0.824350248E+01 -0.201454455E+00  0.184119974E+00
   H -0.415166072E+02 -0.406313434E+01  0.374398479E+01
   H  0.399066774E+02  0.555025378E+01 -0.343753486E+01
     4
 # iter = 75500  time[fs]=75.50000
   C -0.845404296E+01 -0.140385003E+00 -0.170622891E+00
   C  0.832284787E+01 -0.203657509E+00  0.186096906E+00
   H -0.418869838E+02 -0.409912262E+01  0.377768822E+01
   H  0.402607915E+02  0.559970220E+01 -0.346840611E+01
     4
 # iter = 76000  time[fs]=76.00000
   C -0.853495101E+01 -0.141188661E+00 -0.172381685E+00
   C  0.840222925E+01 -0.205861100E+00  0.188074859E+00
   H -0.422574087E+02 -0.413511605E+01  0.381139658E+01
   H  0.406149568E+02  0.564915867E+01 -0.349928241E+01
     4
 # iter = 76500  time[fs]=76.50000
   C -0.861589460E+01 -0.141992027E+00 -0.174141471E+00
   C  0.848164594E+01 -0.208065218E+00  0.190053815E+00
   H -0.426278810E+02 -0.417111456E+01  0.384510977E+01
   H  0.409691722E+02  0.569862305E+01 -0.353016366E+01
     4
 # iter = 77000  time[fs]=77.00000
   C -0.869687305E+01 -0.142795105E+00 -0.175902233E+00
   C  0.856109727E+01 -0.210269858E+00  0.192033755E+00
   H -0.429984000E+02 -0.420711806E+01  0.387882772E+01
   H  0.413234369E+02  0.574809520E+01 -0.356104979E+01
     4
 # iter = 77500  time[fs]=77.50000
   C -0.877788572E+01 -0.143597897E+00 -0.177663952E+00
   C  0.864058261E+01 -0.212475012E+00  0.194014663E+00
   H -0.433689647E+02 -0.424312646E+01  0.391255035E+01
   H  0.416777500E+02  0.579757501E+01 -0.359194071E+01
     4
 # iter = 78000  time[fs]=78.00000
   C -0.885893197E+01 -0.144400407E+00 -0.179426614E+00
   C  0.872010131E+01 -0.214680672E+00  0.195996523E+00
   H -0.437395746E+02 -0.427913968E+01  0.394627758E+01
   H  0.420321108E+02  0.584706233E+01 -0.362283635E+01
     4
 # iter = 78500  time[fs]=78.50000
   C -0.894001121E+01 -0.145202639E+00 -0.181190200E+00
   C  0.879965277E+01 -0.216886833E+00  0.197979318E+00
   H -0.441102288E+02 -0.431515765E+01  0.398000933E+01
   H  0.423865185E+02  0.589655706E+01 -0.365373663E+01
     4
 # iter = 79000  time[fs]=79.00000
   C -0.902112282E+01 -0.146004595E+00 -0.182954697E+00
   C  0.887923641E+01 -0.219093487E+00  0.199963032E+00
   H -0.444809265E+02 -0.435118027E+01  0.401374553E+01
   H  0.427409723E+02  0.594605906E+01 -0.368464147E+01
     4
 # iter = 79500  time[fs]=79.50000
   C -0.910226622E+01 -0.146806279E+00 -0.184720089E+00
   C  0.895885163E+01 -0.221300628E+00  0.201947651E+00
   H -0.448516671E+02 -0.438720748E+01  0.404748610E+01
   H  0.430954714E+02  0.599556821E+01 -0.371555081E+01
     4
 # iter = 80000  time[fs]=80.00000
   C -0.918344086E+01 -0.147607694E+00 -0.186486360E+00
   C  0.903849789E+01 -0.223508249E+00  0.203933158E+00
   H -0.452224498E+02 -0.442323921E+01  0.408123099E+01
   H  0.434500151E+02  0.604508442E+01 -0.374646456E+01
