     4
 # iter = 25000  time[fs]=25.00000
   C -0.100111692E+01 -0.185102694E-01  0.259028932E-01
   C  0.990020255E+00 -0.641859268E-01 -0.324486254E-01
   H -0.531681453E+01  0.189058445E+00  0.494847071E+00
   H  0.535517195E+01  0.551935491E+00 -0.433995451E+00
     4
 # iter = 25500  time[fs]=25.50000
   C -0.104946667E+01 -0.210056269E-01  0.243265035E-01
   C  0.103137915E+01 -0.705576674E-01 -0.330042972E-01
   H -0.565944713E+01  0.191979926E+00  0.517655194E+00
   H  0.566329843E+01  0.577889722E+00 -0.467523715E+00
     4
 # iter = 26000  time[fs]=26.00000
   C -0.110246100E+01 -0.243028133E-01  0.219649634E-01
   C  0.107542635E+01 -0.781210786E-01 -0.347386429E-01
   H -0.601011986E+01  0.189593422E+00  0.535318237E+00
   H  0.596859830E+01  0.598731924E+00 -0.506683015E+00
     4
 # iter = 26500  time[fs]=26.50000
   C -0.115715134E+01 -0.257807052E-01  0.214295965E-01
   C  0.112505051E+01 -0.836533889E-01 -0.344219098E-01
   H -0.635244517E+01  0.197973357E+00  0.563892309E+00
   H  0.628690504E+01  0.630528638E+00 -0.535354673E+00
     4
 # iter = 27000  time[fs]=27.00000
   C -0.121310297E+01 -0.253139965E-01  0.228380629E-01
   C  0.118010459E+01 -0.869880603E-01 -0.318825069E-01
   H -0.668538027E+01  0.217906252E+00  0.604148901E+00
   H  0.661878251E+01  0.674049933E+00 -0.552722472E+00
     4
 # iter = 27500  time[fs]=27.50000
   C -0.127198566E+01 -0.248605557E-01  0.242266573E-01
   C  0.123791330E+01 -0.905099375E-01 -0.295018325E-01
   H -0.702068947E+01  0.237416245E+00  0.644099710E+00
   H  0.695204805E+01  0.717296591E+00 -0.570744505E+00
     4
 # iter = 28000  time[fs]=28.00000
   C -0.133492259E+01 -0.258069919E-01  0.242044581E-01
   C  0.129652546E+01 -0.959047295E-01 -0.289633349E-01
   H -0.736666504E+01  0.248028841E+00  0.675259522E+00
   H  0.727805031E+01  0.751775172E+00 -0.597878872E+00
     4
 # iter = 28500  time[fs]=28.50000
   C -0.140112183E+01 -0.275994559E-01  0.233222389E-01
   C  0.135639086E+01 -0.102482218E+00 -0.295754044E-01
   H -0.771972859E+01  0.253160760E+00  0.701035562E+00
   H  0.760006380E+01  0.780893430E+00 -0.630688119E+00
     4
 # iter = 29000  time[fs]=29.00000
   C -0.146900322E+01 -0.288723747E-01  0.229434554E-01
   C  0.141897616E+01 -0.108558788E+00 -0.296537298E-01
   H -0.807134704E+01  0.261202308E+00  0.729809744E+00
   H  0.792636025E+01  0.813037554E+00 -0.660760598E+00
     4
 # iter = 29500  time[fs]=29.50000
   C -0.153790402E+01 -0.291566059E-01  0.235358556E-01
   C  0.148467065E+01 -0.113549685E+00 -0.286134431E-01
   H -0.841850150E+01  0.275048402E+00  0.764469694E+00
   H  0.825972620E+01  0.851095792E+00 -0.685185411E+00
     4
 # iter = 30000  time[fs]=30.00000
   C -0.160831658E+01 -0.291190488E-01  0.244316946E-01
   C  0.155249090E+01 -0.118262503E+00 -0.272624697E-01
   H -0.876515369E+01  0.290629926E+00  0.800939962E+00
   H  0.859599054E+01  0.890988623E+00 -0.708021615E+00
     4
 # iter = 30500  time[fs]=30.50000
   C -0.168082735E+01 -0.295029225E-01  0.248873302E-01
   C  0.162137723E+01 -0.123599045E+00 -0.265032488E-01
   H -0.911574692E+01  0.303408933E+00  0.834677011E+00
   H  0.893052364E+01  0.928168170E+00 -0.733798797E+00
     4
 # iter = 31000  time[fs]=31.00000
   C -0.175530926E+01 -0.303216484E-01  0.248892387E-01
   C  0.169117961E+01 -0.129567820E+00 -0.263451147E-01
   H -0.947026226E+01  0.313319549E+00  0.865609954E+00
   H  0.926318117E+01  0.962562291E+00 -0.762572934E+00
     4
 # iter = 31500  time[fs]=31.50000
   C -0.183115666E+01 -0.310954785E-01  0.249173014E-01
   C  0.176236605E+01 -0.135573882E+00 -0.261940739E-01
   H -0.982566769E+01  0.323317472E+00  0.896689975E+00
   H  0.959685115E+01  0.997123050E+00 -0.791377630E+00
     4
 # iter = 32000  time[fs]=32.00000
   C -0.190795987E+01 -0.315278108E-01  0.252684222E-01
   C  0.183519251E+01 -0.141247294E+00 -0.256812296E-01
   H -0.101800631E+02  0.335234423E+00  0.929744739E+00
   H  0.993330391E+01  0.103367835E+01 -0.818372071E+00
     4
 # iter = 32500  time[fs]=32.50000
   C -0.198574623E+01 -0.317477499E-01  0.258139154E-01
   C  0.190940432E+01 -0.146740220E+00 -0.249598394E-01
   H -0.105341662E+02  0.348291437E+00  0.963991647E+00
   H  0.102717032E+02  0.107144419E+01 -0.844328519E+00
     4
 # iter = 33000  time[fs]=33.00000
   C -0.206468764E+01 -0.320188462E-01  0.262907300E-01
   C  0.198459180E+01 -0.152370044E+00 -0.243484053E-01
   H -0.108895259E+02  0.360884403E+00  0.997823309E+00
   H  0.106103923E+02  0.110881127E+01 -0.870845574E+00
     4
 # iter = 33500  time[fs]=33.50000
   C -0.214477997E+01 -0.324195796E-01  0.266209386E-01
   C  0.206058062E+01 -0.158227889E+00 -0.239391632E-01
   H -0.112465629E+02  0.372542779E+00  0.103076621E+01
   H  0.109488536E+02  0.114530497E+01 -0.898388162E+00
     4
 # iter = 34000  time[fs]=34.00000
   C -0.222583888E+01 -0.328401886E-01  0.269148876E-01
   C  0.213743473E+01 -0.164174692E+00 -0.235941440E-01
   H -0.116045491E+02  0.383949068E+00  0.106350012E+01
   H  0.112877275E+02  0.118160475E+01 -0.926267981E+00
     4
 # iter = 34500  time[fs]=34.50000
   C -0.230768947E+01 -0.331732393E-01  0.272806107E-01
   C  0.221522199E+01 -0.170074641E+00 -0.231785988E-01
   H -0.119627755E+02  0.395770652E+00  0.109668995E+01
   H  0.116276431E+02  0.121837527E+01 -0.953812327E+00
     4
 # iter = 35000  time[fs]=35.00000
   C -0.239027386E+01 -0.334219941E-01  0.277154492E-01
   C  0.229388064E+01 -0.175927894E+00 -0.226937198E-01
   H -0.123212162E+02  0.407995566E+00  0.113032146E+01
   H  0.119685529E+02  0.125560163E+01 -0.981028683E+00
     4
 # iter = 35500  time[fs]=35.50000
   C -0.247360021E+01 -0.336501566E-01  0.281562974E-01
   C  0.237328022E+01 -0.181808983E+00 -0.222150293E-01
   H -0.126802195E+02  0.420240652E+00  0.116400940E+01
   H  0.123100408E+02  0.129289775E+01 -0.100829632E+01
     4
 # iter = 36000  time[fs]=36.00000
   C -0.255765319E+01 -0.338929002E-01  0.285685689E-01
   C  0.245332999E+01 -0.187757769E+00 -0.217833409E-01
   H -0.130399625E+02  0.432297054E+00  0.119754302E+01
   H  0.126518678E+02  0.133005215E+01 -0.103582042E+01
     4
 # iter = 36500  time[fs]=36.50000
   C -0.264237305E+01 -0.341365314E-01  0.289665285E-01
   C  0.253400331E+01 -0.193754508E+00 -0.213798161E-01
   H -0.134003257E+02  0.444254936E+00  0.123101069E+01
   H  0.129940965E+02  0.136715275E+01 -0.106350728E+01
     4
 # iter = 37000  time[fs]=37.00000
   C -0.272769274E+01 -0.343560465E-01  0.293757325E-01
   C  0.261529121E+01 -0.199765833E+00 -0.209719536E-01
   H -0.137611228E+02  0.456273290E+00  0.126456979E+01
   H  0.133368604E+02  0.140435651E+01 -0.109119456E+01
     4
 # iter = 37500  time[fs]=37.50000
   C -0.281356836E+01 -0.345459898E-01  0.298021693E-01
   C  0.269716413E+01 -0.205782545E+00 -0.205513736E-01
   H -0.141222903E+02  0.468390811E+00  0.129825748E+01
   H  0.136801745E+02  0.144170017E+01 -0.111884055E+01
     4
 # iter = 38000  time[fs]=38.00000
   C -0.289997534E+01 -0.347170630E-01  0.302356479E-01
   C  0.277957578E+01 -0.211815432E+00 -0.201296451E-01
   H -0.144838655E+02  0.480546726E+00  0.133201160E+01
   H  0.140239561E+02  0.147912107E+01 -0.114650327E+01
     4
 # iter = 38500  time[fs]=38.50000
   C -0.298689058E+01 -0.348785291E-01  0.306673942E-01
   C  0.286248436E+01 -0.217873697E+00 -0.197167097E-01
   H -0.148458795E+02  0.492688712E+00  0.136577851E+01
   H  0.143681324E+02  0.151656512E+01 -0.117423251E+01
     4
 # iter = 39000  time[fs]=39.00000
   C -0.307428476E+01 -0.350308287E-01  0.310974343E-01
   C  0.294586131E+01 -0.223955894E+00 -0.193118213E-01
   H -0.152083106E+02  0.504818186E+00  0.139955843E+01
   H  0.147126858E+02  0.155403215E+01 -0.120202444E+01
     4
 # iter = 39500  time[fs]=39.50000
   C -0.316212696E+01 -0.351704832E-01  0.315296920E-01
   C  0.302968511E+01 -0.230055920E+00 -0.189095405E-01
   H -0.155711151E+02  0.516960286E+00  0.143337534E+01
   H  0.150576238E+02  0.159154579E+01 -0.122985166E+01
     4
 # iter = 40000  time[fs]=40.00000
   C -0.325039055E+01 -0.352961539E-01  0.319659299E-01
   C  0.311393361E+01 -0.236170428E+00 -0.185071471E-01
   H -0.159342639E+02  0.529126746E+00  0.146723992E+01
   H  0.154029416E+02  0.162911637E+01 -0.125770033E+01
     4
 # iter = 40500  time[fs]=40.50000
   C -0.333905364E+01 -0.354093660E-01  0.324050260E-01
   C  0.319858296E+01 -0.242299698E+00 -0.181055171E-01
   H -0.162977468E+02  0.541311486E+00  0.150114511E+01
   H  0.157486177E+02  0.166673649E+01 -0.128557457E+01
     4
 # iter = 41000  time[fs]=41.00000
   C -0.342809652E+01 -0.355120590E-01  0.328454243E-01
   C  0.328361041E+01 -0.248444631E+00 -0.177061130E-01
   H -0.166615574E+02  0.553505651E+00  0.153508111E+01
   H  0.160946286E+02  0.170439604E+01 -0.131348141E+01
     4
 # iter = 41500  time[fs]=41.50000
   C -0.351749991E+01 -0.356050551E-01  0.332866669E-01
   C  0.336899612E+01 -0.254604858E+00 -0.173090995E-01
   H -0.170256838E+02  0.565707024E+00  0.156904484E+01
   H  0.164409587E+02  0.174209163E+01 -0.134142134E+01
     4
 # iter = 42000  time[fs]=42.00000
   C -0.360724523E+01 -0.356884088E-01  0.337290455E-01
   C  0.345472249E+01 -0.260779161E+00 -0.169137647E-01
   H -0.173901103E+02  0.577917894E+00  0.160303777E+01
   H  0.167875974E+02  0.177982445E+01 -0.136939044E+01
     4
 # iter = 42500  time[fs]=42.50000
   C -0.369731526E+01 -0.357622484E-01  0.341727607E-01
   C  0.354077310E+01 -0.266966500E+00 -0.165195455E-01
   H -0.177548226E+02  0.590139923E+00  0.163706079E+01
   H  0.171345344E+02  0.181759512E+01 -0.139738554E+01
     4
 # iter = 43000  time[fs]=43.00000
   C -0.378769429E+01 -0.358270316E-01  0.346176675E-01
   C  0.362713221E+01 -0.273166314E+00 -0.161263349E-01
   H -0.181198095E+02  0.602372587E+00  0.167111265E+01
   H  0.174817579E+02  0.185540213E+01 -0.142540571E+01
     4
 # iter = 43500  time[fs]=43.50000
   C -0.387836782E+01 -0.358833152E-01  0.350635058E-01
   C  0.371378502E+01 -0.279378236E+00 -0.157341955E-01
   H -0.184850611E+02  0.614614604E+00  0.170519137E+01
   H  0.178292560E+02  0.189324326E+01 -0.145345088E+01
     4
 # iter = 44000  time[fs]=44.00000
   C -0.396932224E+01 -0.359315444E-01  0.355101126E-01
   C  0.380071779E+01 -0.285601826E+00 -0.153430969E-01
   H -0.188505677E+02  0.626865237E+00  0.173929558E+01
   H  0.181770179E+02  0.193111691E+01 -0.148152052E+01
     4
 # iter = 44500  time[fs]=44.50000
   C -0.406054471E+01 -0.359720495E-01  0.359574259E-01
   C  0.388791778E+01 -0.291836566E+00 -0.149529077E-01
   H -0.192163195E+02  0.639124326E+00  0.177342451E+01
   H  0.185250339E+02  0.196902208E+01 -0.150961357E+01
     4
 # iter = 45000  time[fs]=45.00000
   C -0.415202324E+01 -0.360051302E-01  0.364054011E-01
   C  0.397537308E+01 -0.298081955E+00 -0.145634952E-01
   H -0.195823073E+02  0.651391783E+00  0.180757748E+01
   H  0.188732951E+02  0.200695788E+01 -0.153772899E+01
     4
 # iter = 45500  time[fs]=45.50000
   C -0.424374657E+01 -0.360310960E-01  0.368539709E-01
   C  0.406307249E+01 -0.304337557E+00 -0.141747726E-01
   H -0.199485224E+02  0.663667350E+00  0.184175369E+01
   H  0.192217925E+02  0.204492332E+01 -0.156586593E+01
     4
 # iter = 46000  time[fs]=46.00000
   C -0.433570421E+01 -0.360502551E-01  0.373030584E-01
   C  0.415100550E+01 -0.310602981E+00 -0.137866814E-01
   H -0.203149569E+02  0.675950677E+00  0.187595227E+01
   H  0.195705180E+02  0.208291732E+01 -0.159402374E+01
     4
 # iter = 46500  time[fs]=46.50000
   C -0.442788626E+01 -0.360628945E-01  0.377525960E-01
   C  0.423916221E+01 -0.316877855E+00 -0.133991655E-01
   H -0.206816031E+02  0.688241453E+00  0.191017241E+01
   H  0.199194635E+02  0.212093890E+01 -0.162220174E+01
     4
 # iter = 47000  time[fs]=47.00000
   C -0.452028342E+01 -0.360692774E-01  0.382025299E-01
   C  0.432753335E+01 -0.323161817E+00 -0.130121653E-01
   H -0.210484537E+02  0.700539425E+00  0.194441340E+01
   H  0.202686215E+02  0.215898716E+01 -0.165039925E+01
     4
 # iter = 47500  time[fs]=47.50000
   C -0.461288692E+01 -0.360696498E-01  0.386528133E-01
   C  0.441611018E+01 -0.329454525E+00 -0.126256240E-01
   H -0.214155018E+02  0.712844370E+00  0.197867456E+01
   H  0.206179849E+02  0.219706127E+01 -0.167861564E+01
     4
 # iter = 48000  time[fs]=48.00000
   C -0.470568853E+01 -0.360642455E-01  0.391034026E-01
   C  0.450488446E+01 -0.335755655E+00 -0.122394916E-01
   H -0.217827408E+02  0.725156063E+00  0.201295524E+01
   H  0.209675470E+02  0.223516040E+01 -0.170685028E+01
     4
 # iter = 48500  time[fs]=48.50000
   C -0.479868044E+01 -0.360532868E-01  0.395542565E-01
   C  0.459384843E+01 -0.342064903E+00 -0.118537243E-01
   H -0.221501645E+02  0.737474283E+00  0.204725483E+01
   H  0.213173013E+02  0.227328379E+01 -0.173510259E+01
     4
 # iter = 49000  time[fs]=49.00000
   C -0.489185532E+01 -0.360369841E-01  0.400053377E-01
   C  0.468299474E+01 -0.348381980E+00 -0.114682822E-01
   H -0.225177670E+02  0.749798818E+00  0.208157272E+01
   H  0.216672417E+02  0.231143068E+01 -0.176337204E+01
     4
 # iter = 49500  time[fs]=49.50000
   C -0.498520621E+01 -0.360155362E-01  0.404566125E-01
   C  0.477231647E+01 -0.354706612E+00 -0.110831285E-01
   H -0.228855424E+02  0.762129468E+00  0.211590834E+01
   H  0.220173624E+02  0.234960037E+01 -0.179165809E+01
     4
 # iter = 50000  time[fs]=50.00000
   C -0.507872654E+01 -0.359891309E-01  0.409080505E-01
   C  0.486180706E+01 -0.361038539E+00 -0.106982293E-01
   H -0.232534856E+02  0.774466046E+00  0.215026116E+01
   H  0.223676577E+02  0.238779218E+01 -0.181996024E+01
     4
 # iter = 50500  time[fs]=50.50000
   C -0.517241009E+01 -0.359579468E-01  0.413596239E-01
   C  0.495146030E+01 -0.367377514E+00 -0.103135538E-01
   H -0.236215913E+02  0.786808372E+00  0.218463066E+01
   H  0.227181223E+02  0.242600547E+01 -0.184827802E+01
     4
 # iter = 51000  time[fs]=51.00000
   C -0.526625097E+01 -0.359221530E-01  0.418113075E-01
   C  0.504127030E+01 -0.373723300E+00 -0.992907356E-02
   H -0.239898545E+02  0.799156272E+00  0.221901635E+01
   H  0.230687511E+02  0.246423961E+01 -0.187661096E+01
     4
 # iter = 51500  time[fs]=51.50000
   C -0.536024357E+01 -0.358819104E-01  0.422630782E-01
   C  0.513123150E+01 -0.380075675E+00 -0.954476299E-02
   H -0.243582706E+02  0.811509581E+00  0.225341775E+01
   H  0.234195394E+02  0.250249402E+01 -0.190495862E+01
     4
 # iter = 52000  time[fs]=52.00000
   C -0.545438259E+01 -0.358373718E-01  0.427149148E-01
   C  0.522133858E+01 -0.386434425E+00 -0.916059842E-02
   H -0.247268351E+02  0.823868142E+00  0.228783442E+01
   H  0.237704824E+02  0.254076812E+01 -0.193332060E+01
     4
 # iter = 52500  time[fs]=52.50000
   C -0.554866299E+01 -0.357886825E-01  0.431667984E-01
   C  0.531158652E+01 -0.392799347E+00 -0.877655819E-02
   H -0.250955437E+02  0.836231805E+00  0.232226593E+01
   H  0.241215757E+02  0.257906137E+01 -0.196169647E+01
     4
 # iter = 53000  time[fs]=53.00000
   C -0.564307997E+01 -0.357359808E-01  0.436187114E-01
   C  0.540197054E+01 -0.399170246E+00 -0.839262247E-02
   H -0.254643923E+02  0.848600423E+00  0.235671185E+01
   H  0.244728150E+02  0.261737325E+01 -0.199008587E+01
     4
 # iter = 53500  time[fs]=53.50000
   C -0.573762896E+01 -0.356793986E-01  0.440706378E-01
   C  0.549248608E+01 -0.405546938E+00 -0.800877303E-02
   H -0.258333769E+02  0.860973859E+00  0.239117180E+01
   H  0.248241962E+02  0.265570326E+01 -0.201848841E+01
     4
 # iter = 54000  time[fs]=54.00000
   C -0.583230563E+01 -0.356190612E-01  0.445225633E-01
   C  0.558312881E+01 -0.411929247E+00 -0.762499320E-02
   H -0.262024937E+02  0.873351980E+00  0.242564539E+01
   H  0.251757155E+02  0.269405092E+01 -0.204690375E+01
     4
 # iter = 54500  time[fs]=54.50000
   C -0.592710583E+01 -0.355550886E-01  0.449744744E-01
   C  0.567389461E+01 -0.418317003E+00 -0.724126764E-02
   H -0.265717392E+02  0.885734659E+00  0.246013226E+01
   H  0.255273691E+02  0.273241577E+01 -0.207533155E+01
     4
 # iter = 55000  time[fs]=55.00000
   C -0.602202562E+01 -0.354875950E-01  0.454263592E-01
   C  0.576477953E+01 -0.424710044E+00 -0.685758229E-02
   H -0.269411098E+02  0.898121773E+00  0.249463205E+01
   H  0.258791533E+02  0.277079736E+01 -0.210377147E+01
     4
 # iter = 55500  time[fs]=55.50000
   C -0.611706124E+01 -0.354166896E-01  0.458782067E-01
   C  0.585577983E+01 -0.431108217E+00 -0.647392424E-02
   H -0.273106022E+02  0.910513204E+00  0.252914444E+01
   H  0.262310647E+02  0.280919526E+01 -0.213222320E+01
     4
 # iter = 56000  time[fs]=56.00000
   C -0.621220908E+01 -0.353424767E-01  0.463300067E-01
   C  0.594689191E+01 -0.437511373E+00 -0.609028163E-02
   H -0.276802132E+02  0.922908841E+00  0.256366909E+01
   H  0.265831000E+02  0.284760907E+01 -0.216068645E+01
     4
 # iter = 56500  time[fs]=56.50000
   C -0.630746571E+01 -0.352650560E-01  0.467817501E-01
   C  0.603811235E+01 -0.443919371E+00 -0.570664357E-02
   H -0.280499397E+02  0.935308574E+00  0.259820569E+01
   H  0.269352560E+02  0.288603839E+01 -0.218916092E+01
     4
 # iter = 57000  time[fs]=57.00000
   C -0.640282785E+01 -0.351845229E-01  0.472334287E-01
   C  0.612943788E+01 -0.450332075E+00 -0.532300005E-02
   H -0.284197788E+02  0.947712300E+00  0.263275395E+01
   H  0.272875296E+02  0.292448284E+01 -0.221764633E+01
     4
 # iter = 57500  time[fs]=57.50000
   C -0.649829235E+01 -0.351009688E-01  0.476850348E-01
   C  0.622086537E+01 -0.456749354E+00 -0.493934190E-02
   H -0.287897275E+02  0.960119917E+00  0.266731357E+01
   H  0.276399178E+02  0.296294205E+01 -0.224614241E+01
     4
 # iter = 58000  time[fs]=58.00000
   C -0.659385622E+01 -0.350144811E-01  0.481365616E-01
   C  0.631239181E+01 -0.463171084E+00 -0.455566067E-02
   H -0.291597832E+02  0.972531329E+00  0.270188428E+01
   H  0.279924177E+02  0.300141567E+01 -0.227464890E+01
     4
 # iter = 58500  time[fs]=58.50000
   C -0.668951657E+01 -0.349251438E-01  0.485880027E-01
   C  0.640401434E+01 -0.469597144E+00 -0.417194863E-02
   H -0.295299432E+02  0.984946443E+00  0.273646581E+01
   H  0.283450268E+02  0.303990336E+01 -0.230316556E+01
     4
 # iter = 59000  time[fs]=59.00000
   C -0.678527065E+01 -0.348330372E-01  0.490393525E-01
   C  0.649573021E+01 -0.476027419E+00 -0.378819867E-02
   H -0.299002049E+02  0.997365169E+00  0.277105790E+01
   H  0.286977422E+02  0.307840478E+01 -0.233169213E+01
     4
 # iter = 59500  time[fs]=59.50000
   C -0.688111580E+01 -0.347382385E-01  0.494906059E-01
   C  0.658753679E+01 -0.482461798E+00 -0.340440426E-02
   H -0.302705660E+02  0.100978742E+01  0.280566030E+01
   H  0.290505614E+02  0.311691962E+01 -0.236022839E+01
     4
 # iter = 60000  time[fs]=60.00000
   C -0.697704950E+01 -0.346408216E-01  0.499417582E-01
   C  0.667943153E+01 -0.488900175E+00 -0.302055943E-02
   H -0.306410239E+02  0.102221312E+01  0.284027278E+01
   H  0.294034821E+02  0.315544758E+01 -0.238877412E+01
     4
 # iter = 60500  time[fs]=60.50000
   C -0.707306931E+01 -0.345408578E-01  0.503928051E-01
   C  0.677141202E+01 -0.495342448E+00 -0.263665870E-02
   H -0.310115765E+02  0.103464217E+01  0.287489509E+01
   H  0.297565017E+02  0.319398835E+01 -0.241732908E+01
     4
 # iter = 61000  time[fs]=61.00000
   C -0.716917288E+01 -0.344384153E-01  0.508437429E-01
   C  0.686347592E+01 -0.501788516E+00 -0.225269704E-02
   H -0.313822215E+02  0.104707451E+01  0.290952701E+01
   H  0.301096180E+02  0.323254166E+01 -0.244589309E+01
     4
 # iter = 61500  time[fs]=61.50000
   C -0.726535798E+01 -0.343335598E-01  0.512945682E-01
   C  0.695562099E+01 -0.508238287E+00 -0.186866985E-02
   H -0.317529569E+02  0.105951006E+01  0.294416833E+01
   H  0.304628289E+02  0.327110721E+01 -0.247446593E+01
     4
 # iter = 62000  time[fs]=62.00000
   C -0.736162244E+01 -0.342263544E-01  0.517452778E-01
   C  0.704784509E+01 -0.514691667E+00 -0.148457294E-02
   H -0.321237805E+02  0.107194874E+01  0.297881884E+01
   H  0.308161320E+02  0.330968475E+01 -0.250304740E+01
     4
 # iter = 62500  time[fs]=62.50000
   C -0.745796419E+01 -0.341168600E-01  0.521958691E-01
   C  0.714014614E+01 -0.521148569E+00 -0.110040246E-02
   H -0.324946903E+02  0.108439049E+01  0.301347834E+01
   H  0.311695255E+02  0.334827402E+01 -0.253163732E+01
     4
 # iter = 63000  time[fs]=63.00000
   C -0.755438124E+01 -0.340051350E-01  0.526463395E-01
   C  0.723252215E+01 -0.527608907E+00 -0.716154906E-03
   H -0.328656845E+02  0.109683524E+01  0.304814662E+01
   H  0.315230072E+02  0.338687476E+01 -0.256023551E+01
     4
 # iter = 63500  time[fs]=63.50000
   C -0.765087164E+01 -0.338912359E-01  0.530966869E-01
   C  0.732497121E+01 -0.534072600E+00 -0.331827078E-03
   H -0.332367611E+02  0.110928292E+01  0.308282351E+01
   H  0.318765753E+02  0.342548674E+01 -0.258884178E+01
     4
 # iter = 64000  time[fs]=64.00000
   C -0.774743357E+01 -0.337752167E-01  0.535469094E-01
   C  0.741749147E+01 -0.540539569E+00  0.525839280E-04
   H -0.336079185E+02  0.112173347E+01  0.311750881E+01
   H  0.322302278E+02  0.346410971E+01 -0.261745597E+01
     4
 # iter = 64500  time[fs]=64.50000
   C -0.784406523E+01 -0.336571300E-01  0.539970053E-01
   C  0.751008115E+01 -0.547009737E+00  0.437080756E-03
   H -0.339791547E+02  0.113418683E+01  0.315220235E+01
   H  0.325839630E+02  0.350274345E+01 -0.264607791E+01
     4
 # iter = 65000  time[fs]=65.00000
   C -0.794076490E+01 -0.335370261E-01  0.544469730E-01
   C  0.760273854E+01 -0.553483029E+00  0.821665801E-03
   H -0.343504683E+02  0.114664293E+01  0.318690396E+01
   H  0.329377792E+02  0.354138773E+01 -0.267470744E+01
     4
 # iter = 65500  time[fs]=65.50000
   C -0.803753092E+01 -0.334149537E-01  0.548968114E-01
   C  0.769546198E+01 -0.559959376E+00  0.120634123E-02
   H -0.347218574E+02  0.115910173E+01  0.322161346E+01
   H  0.332916745E+02  0.358004236E+01 -0.270334440E+01
     4
 # iter = 66000  time[fs]=66.00000
   C -0.813436170E+01 -0.332909598E-01  0.553465193E-01
   C  0.778824989E+01 -0.566438708E+00  0.159110900E-02
   H -0.350933206E+02  0.117156316E+01  0.325633071E+01
   H  0.336456474E+02  0.361870710E+01 -0.273198864E+01
     4
 # iter = 66500  time[fs]=66.50000
   C -0.823125570E+01 -0.331650897E-01  0.557960958E-01
   C  0.788110073E+01 -0.572920957E+00  0.197597087E-02
   H -0.354648563E+02  0.118402717E+01  0.329105553E+01
   H  0.339996962E+02  0.365738177E+01 -0.276064001E+01
     4
 # iter = 67000  time[fs]=67.00000
   C -0.832821142E+01 -0.330373871E-01  0.562455401E-01
   C  0.797401300E+01 -0.579406061E+00  0.236092841E-02
   H -0.358364631E+02  0.119649371E+01  0.332578779E+01
   H  0.343538195E+02  0.369606618E+01 -0.278929837E+01
     4
 # iter = 67500  time[fs]=67.50000
   C -0.842522742E+01 -0.329078945E-01  0.566948516E-01
   C  0.806698529E+01 -0.585893956E+00  0.274598304E-02
   H -0.362081394E+02  0.120896273E+01  0.336052732E+01
   H  0.347080157E+02  0.373476011E+01 -0.281796359E+01
     4
 # iter = 68000  time[fs]=68.00000
   C -0.852230232E+01 -0.327766527E-01  0.571440298E-01
   C  0.816001619E+01 -0.592384582E+00  0.313113601E-02
   H -0.365798839E+02  0.122143418E+01  0.339527400E+01
   H  0.350622833E+02  0.377346341E+01 -0.284663552E+01
     4
 # iter = 68500  time[fs]=68.50000
   C -0.861943477E+01 -0.326437012E-01  0.575930743E-01
   C  0.825310439E+01 -0.598877881E+00  0.351638843E-02
   H -0.369516953E+02  0.123390800E+01  0.343002767E+01
   H  0.354166210E+02  0.381217588E+01 -0.287531404E+01
     4
 # iter = 69000  time[fs]=69.00000
   C -0.871662347E+01 -0.325090782E-01  0.580419848E-01
   C  0.834624857E+01 -0.605373796E+00  0.390174126E-02
   H -0.373235722E+02  0.124638416E+01  0.346478821E+01
   H  0.357710274E+02  0.385089735E+01 -0.290399903E+01
     4
 # iter = 69500  time[fs]=69.50000
   C -0.881386717E+01 -0.323728207E-01  0.584907612E-01
   C  0.843944749E+01 -0.611872272E+00  0.428719535E-02
   H -0.376955133E+02  0.125886261E+01  0.349955548E+01
   H  0.361255011E+02  0.388962765E+01 -0.293269035E+01
     4
 # iter = 70000  time[fs]=70.00000
   C -0.891116466E+01 -0.322349646E-01  0.589394034E-01
   C  0.853269994E+01 -0.618373256E+00  0.467275144E-02
   H -0.380675175E+02  0.127134330E+01  0.353432936E+01
   H  0.364800408E+02  0.392836662E+01 -0.296138790E+01
     4
 # iter = 70500  time[fs]=70.50000
   C -0.900851475E+01 -0.320955445E-01  0.593879115E-01
   C  0.862600474E+01 -0.624876697E+00  0.505841015E-02
   H -0.384395834E+02  0.128382619E+01  0.356910972E+01
   H  0.368346454E+02  0.396711410E+01 -0.299009155E+01
     4
 # iter = 71000  time[fs]=71.00000
   C -0.910591631E+01 -0.319545940E-01  0.598362854E-01
   C  0.871936077E+01 -0.631382544E+00  0.544417200E-02
   H -0.388117100E+02  0.129631125E+01  0.360389645E+01
   H  0.371893135E+02  0.400586994E+01 -0.301880119E+01
     4
 # iter = 71500  time[fs]=71.50000
   C -0.920336823E+01 -0.318121455E-01  0.602845255E-01
   C  0.881276693E+01 -0.637890749E+00  0.583003742E-02
   H -0.391838960E+02  0.130879842E+01  0.363868941E+01
   H  0.375440440E+02  0.404463397E+01 -0.304751671E+01
     4
 # iter = 72000  time[fs]=72.00000
   C -0.930086945E+01 -0.316682307E-01  0.607326319E-01
   C  0.890622214E+01 -0.644401265E+00  0.621600675E-02
   H -0.395561405E+02  0.132128768E+01  0.367348851E+01
   H  0.378988357E+02  0.408340606E+01 -0.307623800E+01
     4
 # iter = 72500  time[fs]=72.50000
   C -0.939841893E+01 -0.315228799E-01  0.611806050E-01
   C  0.899972539E+01 -0.650914047E+00  0.660208027E-02
   H -0.399284422E+02  0.133377897E+01  0.370829363E+01
   H  0.382536875E+02  0.412218606E+01 -0.310496497E+01
     4
 # iter = 73000  time[fs]=73.00000
   C -0.949601567E+01 -0.313761229E-01  0.616284451E-01
   C  0.909327566E+01 -0.657429050E+00  0.698825816E-02
   H -0.403008003E+02  0.134627228E+01  0.374310466E+01
   H  0.386085984E+02  0.416097383E+01 -0.313369750E+01
     4
 # iter = 73500  time[fs]=73.50000
   C -0.959365869E+01 -0.312279884E-01  0.620761527E-01
   C  0.918687199E+01 -0.663946230E+00  0.737454054E-02
   H -0.406732135E+02  0.135876755E+01  0.377792150E+01
   H  0.389635672E+02  0.419976924E+01 -0.316243550E+01
     4
 # iter = 74000  time[fs]=74.00000
   C -0.969134706E+01 -0.310785043E-01  0.625237281E-01
   C  0.928051345E+01 -0.670465547E+00  0.776092746E-02
   H -0.410456811E+02  0.137126476E+01  0.381274405E+01
   H  0.393185929E+02  0.423857215E+01 -0.319117888E+01
     4
 # iter = 74500  time[fs]=74.50000
   C -0.978907986E+01 -0.309276975E-01  0.629711720E-01
   C  0.937419911E+01 -0.676986960E+00  0.814741894E-02
   H -0.414182019E+02  0.138376387E+01  0.384757220E+01
   H  0.396736745E+02  0.427738244E+01 -0.321992755E+01
     4
 # iter = 75000  time[fs]=75.00000
   C -0.988685619E+01 -0.307755944E-01  0.634184849E-01
   C  0.946792809E+01 -0.683510428E+00  0.853401491E-02
   H -0.417907751E+02  0.139626485E+01  0.388240586E+01
   H  0.400288110E+02  0.431619998E+01 -0.324868140E+01
     4
 # iter = 75500  time[fs]=75.50000
   C -0.998467519E+01 -0.306222205E-01  0.638656673E-01
   C  0.956169954E+01 -0.690035915E+00  0.892071527E-02
   H -0.421633997E+02  0.140876766E+01  0.391724494E+01
   H  0.403840016E+02  0.435502464E+01 -0.327744035E+01
     4
 # iter = 76000  time[fs]=76.00000
   C -0.100825360E+02 -0.304676004E-01  0.643127199E-01
   C  0.965551262E+01 -0.696563381E+00  0.930751986E-02
   H -0.425360749E+02  0.142127227E+01  0.395208933E+01
   H  0.407392451E+02  0.439385631E+01 -0.330620432E+01
     4
 # iter = 76500  time[fs]=76.50000
   C -0.101804379E+02 -0.303117584E-01  0.647596433E-01
   C  0.974936652E+01 -0.703092792E+00  0.969442848E-02
   H -0.429087998E+02  0.143377866E+01  0.398693896E+01
   H  0.410945408E+02  0.443269487E+01 -0.333497322E+01
     4
 # iter = 77000  time[fs]=77.00000
   C -0.102783800E+02 -0.301547177E-01  0.652064382E-01
   C  0.984326045E+01 -0.709624111E+00  0.100814409E-01
   H -0.432815735E+02  0.144628679E+01  0.402179374E+01
   H  0.414498878E+02  0.447154021E+01 -0.336374698E+01
     4
 # iter = 77500  time[fs]=77.50000
   C -0.103763616E+02 -0.299965011E-01  0.656531054E-01
   C  0.993719365E+01 -0.716157305E+00  0.104685568E-01
   H -0.436543952E+02  0.145879663E+01  0.405665358E+01
   H  0.418052851E+02  0.451039222E+01 -0.339252550E+01
     4
 # iter = 78000  time[fs]=78.00000
   C -0.104743819E+02 -0.298371307E-01  0.660996456E-01
   C  0.100311654E+02 -0.722692339E+00  0.108557760E-01
   H -0.440272641E+02  0.147130816E+01  0.409151839E+01
   H  0.421607320E+02  0.454925079E+01 -0.342130871E+01
     4
 # iter = 78500  time[fs]=78.50000
   C -0.105724401E+02 -0.296766280E-01  0.665460594E-01
   C  0.101251749E+02 -0.729229182E+00  0.112430980E-01
   H -0.444001794E+02  0.148382135E+01  0.412638810E+01
   H  0.425162276E+02  0.458811581E+01 -0.345009653E+01
     4
 # iter = 79000  time[fs]=79.00000
   C -0.106705357E+02 -0.295150139E-01  0.669923477E-01
   C  0.102192215E+02 -0.735767801E+00  0.116305226E-01
   H -0.447731404E+02  0.149633616E+01  0.416126263E+01
   H  0.428717711E+02  0.462698718E+01 -0.347888890E+01
     4
 # iter = 79500  time[fs]=79.50000
   C -0.107686679E+02 -0.293523088E-01  0.674385113E-01
   C  0.103133046E+02 -0.742308166E+00  0.120180492E-01
   H -0.451461463E+02  0.150885258E+01  0.419614190E+01
   H  0.432273618E+02  0.466586481E+01 -0.350768574E+01
     4
 # iter = 80000  time[fs]=80.00000
   C -0.108668360E+02 -0.291885323E-01  0.678845510E-01
   C  0.104074233E+02 -0.748850246E+00  0.124056775E-01
   H -0.455191965E+02  0.152137058E+01  0.423102583E+01
   H  0.435829989E+02  0.470474858E+01 -0.353648697E+01
