     4
 # iter = 25000  time[fs]=25.00000
   C -0.969877904E+00  0.216731103E-01  0.222522258E-01
   C  0.103571556E+01  0.334030016E-02 -0.177649941E-01
   H -0.523672528E+01 -0.546824644E+00 -0.248829345E+00
   H  0.524133544E+01  0.568791732E+00  0.345313738E+00
     4
 # iter = 25500  time[fs]=25.50000
   C -0.101548293E+01  0.226586299E-01  0.218329664E-01
   C  0.107838608E+01  0.645750709E-03 -0.198192173E-01
   H -0.557656670E+01 -0.589536987E+00 -0.274724100E+00
   H  0.555276559E+01  0.598161110E+00  0.360810148E+00
     4
 # iter = 26000  time[fs]=26.00000
   C -0.106405670E+01  0.224749653E-01  0.202548677E-01
   C  0.112206654E+01 -0.283242750E-02 -0.226708342E-01
   H -0.592447326E+01 -0.637965583E+00 -0.306170680E+00
   H  0.586153313E+01  0.622447036E+00  0.371099716E+00
     4
 # iter = 26500  time[fs]=26.50000
   C -0.111188161E+01  0.246966157E-01  0.210897065E-01
   C  0.116885138E+01 -0.485502759E-02 -0.240772926E-01
   H -0.626405222E+01 -0.675991715E+00 -0.327070523E+00
   H  0.618344508E+01  0.657710782E+00  0.392256397E+00
     4
 # iter = 27000  time[fs]=27.00000
   C -0.115865098E+01  0.294997322E-01  0.245113609E-01
   C  0.121872174E+01 -0.531066601E-02 -0.239245289E-01
   H -0.659425545E+01 -0.702789775E+00 -0.336614217E+00
   H  0.651904236E+01  0.704719055E+00  0.425058209E+00
     4
 # iter = 27500  time[fs]=27.50000
   C -0.120690698E+01  0.342236627E-01  0.278572908E-01
   C  0.126989594E+01 -0.586415223E-02 -0.238752149E-01
   H -0.692684143E+01 -0.730300350E+00 -0.346755477E+00
   H  0.685612249E+01  0.751470835E+00  0.457514264E+00
     4
 # iter = 28000  time[fs]=28.00000
   C -0.125842422E+01  0.369855576E-01  0.292431157E-01
   C  0.132108938E+01 -0.769311333E-02 -0.251052351E-01
   H -0.727009778E+01 -0.766968152E+00 -0.365950245E+00
   H  0.718601783E+01  0.789470960E+00  0.481138090E+00
     4
 # iter = 28500  time[fs]=28.50000
   C -0.131234388E+01  0.385449699E-01  0.294271737E-01
   C  0.137268015E+01 -0.103205259E-01 -0.271361254E-01
   H -0.762044384E+01 -0.809352933E+00 -0.390768243E+00
   H  0.751198971E+01  0.822124787E+00  0.499342302E+00
     4
 # iter = 29000  time[fs]=29.00000
   C -0.136671066E+01  0.407665477E-01  0.302731514E-01
   C  0.142574651E+01 -0.125773059E-01 -0.287976244E-01
   H -0.796934550E+01 -0.849045064E+00 -0.412808621E+00
   H  0.784229896E+01  0.857815989E+00  0.520516768E+00
     4
 # iter = 29500  time[fs]=29.50000
   C -0.142079902E+01  0.442935202E-01  0.324235084E-01
   C  0.148061074E+01 -0.140589811E-01 -0.296843197E-01
   H -0.831378223E+01 -0.883131735E+00 -0.429166124E+00
   H  0.817972310E+01  0.899431005E+00  0.547553429E+00
     4
 # iter = 30000  time[fs]=30.00000
   C -0.147543891E+01  0.482213631E-01  0.349731041E-01
   C  0.153663420E+01 -0.153300610E-01 -0.303599788E-01
   H -0.865771308E+01 -0.915664866E+00 -0.443899151E+00
   H  0.852008352E+01  0.942889287E+00  0.576376709E+00
     4
 # iter = 30500  time[fs]=30.50000
   C -0.153157138E+01  0.515412761E-01  0.369126530E-01
   C  0.159311974E+01 -0.170203868E-01 -0.314538552E-01
   H -0.900557900E+01 -0.951167054E+00 -0.461535964E+00
   H  0.885874423E+01  0.983642147E+00  0.602442355E+00
     4
 # iter = 31000  time[fs]=31.00000
   C -0.158914961E+01  0.542382317E-01  0.382267564E-01
   C  0.164999805E+01 -0.191377243E-01 -0.329732459E-01
   H -0.935735994E+01 -0.989691516E+00 -0.482134845E+00
   H  0.919555537E+01  0.102161642E+01  0.625681100E+00
     4
 # iter = 31500  time[fs]=31.50000
   C -0.164746073E+01  0.569686492E-01  0.395715545E-01
   C  0.170762536E+01 -0.212695376E-01 -0.345052445E-01
   H -0.971002365E+01 -0.102827199E+01 -0.502734078E+00
   H  0.953340021E+01  0.105976303E+01  0.649047313E+00
     4
 # iter = 32000  time[fs]=32.00000
   C -0.170604664E+01  0.601391415E-01  0.413534536E-01
   C  0.176620643E+01 -0.231597011E-01 -0.357934375E-01
   H -0.100616696E+02 -0.106506707E+01 -0.521496324E+00
   H  0.987404507E+01  0.109990896E+01  0.674371060E+00
     4
 # iter = 32500  time[fs]=32.50000
   C -0.176503395E+01  0.635761357E-01  0.433987297E-01
   C  0.182558735E+01 -0.249153316E-01 -0.369447240E-01
   H -0.104130148E+02 -0.110084644E+01 -0.539194855E+00
   H  0.102166504E+02  0.114126957E+01  0.700870516E+00
     4
 # iter = 33000  time[fs]=33.00000
   C -0.182473666E+01  0.669226813E-01  0.453503279E-01
   C  0.188550342E+01 -0.267584093E-01 -0.381809224E-01
   H -0.107656073E+02 -0.113720558E+01 -0.557428416E+00
   H  0.105595567E+02  0.118223511E+01  0.726938469E+00
     4
 # iter = 33500  time[fs]=33.50000
   C -0.188522052E+01  0.700737410E-01  0.471031449E-01
   C  0.194585111E+01 -0.287533002E-01 -0.395662808E-01
   H -0.111198671E+02 -0.117460754E+01 -0.576662952E+00
   H  0.109022438E+02  0.122233045E+01  0.752102097E+00
     4
 # iter = 34000  time[fs]=34.00000
   C -0.194629822E+01  0.731805237E-01  0.488083555E-01
   C  0.200669046E+01 -0.308040367E-01 -0.410047497E-01
   H -0.114750662E+02 -0.121236325E+01 -0.596212075E+00
   H  0.112453501E+02  0.126223455E+01  0.777042446E+00
     4
 # iter = 34500  time[fs]=34.50000
   C -0.200778878E+01  0.763908895E-01  0.506138103E-01
   C  0.206808224E+01 -0.328168079E-01 -0.424024657E-01
   H -0.118304955E+02 -0.124979940E+01 -0.615404869E+00
   H  0.115895027E+02  0.130261160E+01  0.802425595E+00
     4
 # iter = 35000  time[fs]=35.00000
   C -0.206966482E+01  0.797017391E-01  0.525164197E-01
   C  0.212999535E+01 -0.347923561E-01 -0.437601427E-01
   H -0.121861289E+02 -0.128692235E+01 -0.634249904E+00
   H  0.119346527E+02  0.134344634E+01  0.828238037E+00
     4
 # iter = 35500  time[fs]=35.50000
   C -0.213198388E+01  0.830274979E-01  0.544306346E-01
   C  0.219234944E+01 -0.367831114E-01 -0.451302019E-01
   H -0.125423147E+02 -0.132411003E+01 -0.653127126E+00
   H  0.122803826E+02  0.138435239E+01  0.854094991E+00
     4
 # iter = 36000  time[fs]=36.00000
   C -0.219476691E+01  0.863213413E-01  0.563096675E-01
   C  0.225509048E+01 -0.388173107E-01 -0.465408869E-01
   H -0.128992297E+02 -0.136156657E+01 -0.672242481E+00
   H  0.126264522E+02  0.142511803E+01  0.879786185E+00
     4
 # iter = 36500  time[fs]=36.50000
   C -0.225797036E+01  0.896029113E-01  0.581732074E-01
   C  0.231820798E+01 -0.408816454E-01 -0.479789077E-01
   H -0.132567544E+02 -0.139919751E+01 -0.691503201E+00
   H  0.129729231E+02  0.146583092E+01  0.905400632E+00
     4
 # iter = 37000  time[fs]=37.00000
   C -0.232153717E+01  0.929071614E-01  0.600562624E-01
   C  0.238170274E+01 -0.429532767E-01 -0.494214541E-01
   H -0.136147029E+02 -0.143683991E+01 -0.710747915E+00
   H  0.133199279E+02  0.150664777E+01  0.931096302E+00
     4
 # iter = 37500  time[fs]=37.50000
   C -0.238543862E+01  0.962423282E-01  0.619671289E-01
   C  0.244556044E+01 -0.450261393E-01 -0.508624974E-01
   H -0.139730113E+02 -0.147445143E+01 -0.729935695E+00
   H  0.136674810E+02  0.154760513E+01  0.956910883E+00
     4
 # iter = 38000  time[fs]=38.00000
   C -0.244966959E+01  0.995945595E-01  0.638920184E-01
   C  0.250975433E+01 -0.471080427E-01 -0.523098895E-01
   H -0.143317174E+02 -0.151208941E+01 -0.749125218E+00
   H  0.140154989E+02  0.158864017E+01  0.982782617E+00
     4
 # iter = 38500  time[fs]=38.50000
   C -0.251422437E+01  0.102951896E+00  0.658190384E-01
   C  0.257426017E+01 -0.492056583E-01 -0.537703486E-01
   H -0.146908520E+02 -0.154980301E+01 -0.768366868E+00
   H  0.143639084E+02  0.162969866E+01  0.100865826E+01
     4
 # iter = 39000  time[fs]=39.00000
   C -0.257908657E+01  0.106314337E+00  0.677482566E-01
   C  0.263906238E+01 -0.513182161E-01 -0.552431552E-01
   H -0.150503938E+02 -0.158758788E+01 -0.787657432E+00
   H  0.147126913E+02  0.167078027E+01  0.103453841E+01
     4
 # iter = 39500  time[fs]=39.50000
   C -0.264423562E+01  0.109687167E+00  0.696850273E-01
   C  0.270414978E+01 -0.534416790E-01 -0.567243252E-01
   H -0.154102991E+02 -0.162541617E+01 -0.806970112E+00
   H  0.150618548E+02  0.171190853E+01  0.106044745E+01
     4
 # iter = 40000  time[fs]=40.00000
   C -0.270965494E+01  0.113072707E+00  0.716317408E-01
   C  0.276951031E+01 -0.555739038E-01 -0.582117699E-01
   H -0.157705390E+02 -0.166327360E+01 -0.826291618E+00
   H  0.154113936E+02  0.175309366E+01  0.108639639E+01
     4
 # iter = 40500  time[fs]=40.50000
   C -0.277533286E+01  0.116469332E+00  0.735868422E-01
   C  0.283513035E+01 -0.577152532E-01 -0.597059077E-01
   H -0.161311033E+02 -0.170116388E+01 -0.845626571E+00
   H  0.157612860E+02  0.179432815E+01  0.111237848E+01
     4
 # iter = 41000  time[fs]=41.00000
   C -0.284125918E+01  0.119874813E+00  0.755481725E-01
   C  0.290099674E+01 -0.598665017E-01 -0.612075694E-01
   H -0.164919859E+02 -0.173909364E+01 -0.864982462E+00
   H  0.161115084E+02  0.183560182E+01  0.113838423E+01
     4
 # iter = 41500  time[fs]=41.50000
   C -0.290742298E+01  0.123288408E+00  0.775150585E-01
   C  0.296709800E+01 -0.620275257E-01 -0.627166877E-01
   H -0.168531750E+02 -0.177706302E+01 -0.884360232E+00
   H  0.164620447E+02  0.187691119E+01  0.116441082E+01
     4
 # iter = 42000  time[fs]=42.00000
   C -0.297381310E+01  0.126710391E+00  0.794878403E-01
   C  0.303342401E+01 -0.641975968E-01 -0.642325903E-01
   H -0.172146549E+02 -0.181506777E+01 -0.903756392E+00
   H  0.168128844E+02  0.191825739E+01  0.119046000E+01
     4
 # iter = 42500  time[fs]=42.50000
   C -0.304041916E+01  0.130140904E+00  0.814667275E-01
   C  0.309996518E+01 -0.663760960E-01 -0.657547140E-01
   H -0.175764116E+02 -0.185310442E+01 -0.923168156E+00
   H  0.171640169E+02  0.195964098E+01  0.121653290E+01
     4
 # iter = 43000  time[fs]=43.00000
   C -0.310723189E+01  0.133579616E+00  0.834514537E-01
   C  0.316671225E+01 -0.685627280E-01 -0.672828185E-01
   H -0.179384341E+02 -0.189117175E+01 -0.942594988E+00
   H  0.175154303E+02  0.200106039E+01  0.124262850E+01
     4
 # iter = 43500  time[fs]=43.50000
   C -0.317424274E+01  0.137026038E+00  0.854415923E-01
   C  0.323365638E+01 -0.707573220E-01 -0.688167869E-01
   H -0.183007126E+02 -0.192926944E+01 -0.962037173E+00
   H  0.178671126E+02  0.204251338E+01  0.126874507E+01
     4
 # iter = 44000  time[fs]=44.00000
   C -0.324144358E+01  0.140479809E+00  0.874368462E-01
   C  0.330078934E+01 -0.729596486E-01 -0.703564431E-01
   H -0.186632374E+02 -0.196739668E+01 -0.981494505E+00
   H  0.182190530E+02  0.208399829E+01  0.129488141E+01
     4
 # iter = 44500  time[fs]=44.50000
   C -0.330882662E+01  0.143940710E+00  0.894370534E-01
   C  0.336810345E+01 -0.751694150E-01 -0.719015464E-01
   H -0.190259991E+02 -0.200555221E+01 -0.100096626E+01
   H  0.185712417E+02  0.212551407E+01  0.132103697E+01
     4
 # iter = 45000  time[fs]=45.00000
   C -0.337638451E+01  0.147408541E+00  0.914420752E-01
   C  0.343559148E+01 -0.773863340E-01 -0.734518603E-01
   H -0.193889886E+02 -0.204373474E+01 -0.102045168E+01
   H  0.189236697E+02  0.216705983E+01  0.134721125E+01
     4
 # iter = 45500  time[fs]=45.50000
   C -0.344411036E+01  0.150883076E+00  0.934517411E-01
   C  0.350324657E+01 -0.796101565E-01 -0.750071855E-01
   H -0.197521973E+02 -0.208194325E+01 -0.103995023E+01
   H  0.192763282E+02  0.220863453E+01  0.137340363E+01
     4
 # iter = 46000  time[fs]=46.00000
   C -0.351199768E+01  0.154364075E+00  0.954658667E-01
   C  0.357106225E+01 -0.818406597E-01 -0.765673474E-01
   H -0.201156174E+02 -0.212017687E+01 -0.105946151E+01
   H  0.196292087E+02  0.225023707E+01  0.139961341E+01
     4
 # iter = 46500  time[fs]=46.50000
   C -0.358004032E+01  0.157851315E+00  0.974842814E-01
   C  0.363903239E+01 -0.840776287E-01 -0.781321783E-01
   H -0.204792414E+02 -0.215843475E+01 -0.107898511E+01
   H  0.199823035E+02  0.229186646E+01  0.142583995E+01
     4
 # iter = 47000  time[fs]=47.00000
   C -0.364823246E+01  0.161344591E+00  0.995068333E-01
   C  0.370715121E+01 -0.863208520E-01 -0.797015125E-01
   H -0.208430622E+02 -0.219671606E+01 -0.109852062E+01
   H  0.203356049E+02  0.233352177E+01  0.145208267E+01
     4
 # iter = 47500  time[fs]=47.50000
   C -0.371656861E+01  0.164843712E+00  0.101533381E+00
   C  0.377541322E+01 -0.885701262E-01 -0.812751910E-01
   H -0.212070729E+02 -0.223501998E+01 -0.111806761E+01
   H  0.206891059E+02  0.237520216E+01  0.147834105E+01
     4
 # iter = 48000  time[fs]=48.00000
   C -0.378504352E+01  0.168348494E+00  0.103563789E+00
   C  0.384381323E+01 -0.908252583E-01 -0.828530641E-01
   H -0.215712673E+02 -0.227334574E+01 -0.113762570E+01
   H  0.210427997E+02  0.241690679E+01  0.150461459E+01
     4
 # iter = 48500  time[fs]=48.50000
   C -0.385365225E+01  0.171858758E+00  0.105597924E+00
   C  0.391234631E+01 -0.930860649E-01 -0.844349906E-01
   H -0.219356390E+02 -0.231169263E+01 -0.115719453E+01
   H  0.213966799E+02  0.245863488E+01  0.153090278E+01
     4
 # iter = 49000  time[fs]=49.00000
   C -0.392239011E+01  0.175374333E+00  0.107635662E+00
   C  0.398100779E+01 -0.953523712E-01 -0.860208360E-01
   H -0.223001825E+02 -0.235005996E+01 -0.117677375E+01
   H  0.217507405E+02  0.250038567E+01  0.155720515E+01
     4
 # iter = 49500  time[fs]=49.50000
   C -0.399125261E+01  0.178895057E+00  0.109676885E+00
   C  0.404979321E+01 -0.976240094E-01 -0.876104721E-01
   H -0.226648920E+02 -0.238844709E+01 -0.119636304E+01
   H  0.221049756E+02  0.254215845E+01  0.158352127E+01
     4
 # iter = 50000  time[fs]=50.00000
   C -0.406023552E+01  0.182420773E+00  0.111721479E+00
   C  0.411869837E+01 -0.999008188E-01 -0.892037765E-01
   H -0.230297624E+02 -0.242685339E+01 -0.121596209E+01
   H  0.224593797E+02  0.258395254E+01  0.160985070E+01
     4
 # iter = 50500  time[fs]=50.50000
   C -0.412933480E+01  0.185951334E+00  0.113769336E+00
   C  0.418771923E+01 -0.102182646E+00 -0.908006325E-01
   H -0.233947886E+02 -0.246527827E+01 -0.123557059E+01
   H  0.228139475E+02  0.262576728E+01  0.163619305E+01
     4
 # iter = 51000  time[fs]=51.00000
   C -0.419854659E+01  0.189486597E+00  0.115820354E+00
   C  0.425685198E+01 -0.104469342E+00 -0.924009288E-01
   H -0.237599658E+02 -0.250372115E+01 -0.125518826E+01
   H  0.231686740E+02  0.266760206E+01  0.166254791E+01
     4
 # iter = 51500  time[fs]=51.50000
   C -0.426786724E+01  0.193026424E+00  0.117874435E+00
   C  0.432609296E+01 -0.106760768E+00 -0.940045592E-01
   H -0.241252894E+02 -0.254218151E+01 -0.127481482E+01
   H  0.235235543E+02  0.270945627E+01  0.168891493E+01
     4
 # iter = 52000  time[fs]=52.00000
   C -0.433729325E+01  0.196570686E+00  0.119931485E+00
   C  0.439543869E+01 -0.109056788E+00 -0.956114220E-01
   H -0.244907552E+02 -0.258065882E+01 -0.129445002E+01
   H  0.238785840E+02  0.275132936E+01  0.171529375E+01
     4
 # iter = 52500  time[fs]=52.50000
   C -0.440682128E+01  0.200119256E+00  0.121991414E+00
   C  0.446488587E+01 -0.111357272E+00 -0.972214201E-01
   H -0.248563588E+02 -0.261915260E+01 -0.131409360E+01
   H  0.242337585E+02  0.279322077E+01  0.174168403E+01
     4
 # iter = 53000  time[fs]=53.00000
   C -0.447644816E+01  0.203672013E+00  0.124054136E+00
   C  0.453443133E+01 -0.113662095E+00 -0.988344608E-01
   H -0.252220962E+02 -0.265766235E+01 -0.133374534E+01
   H  0.245890736E+02  0.283512999E+01  0.176808544E+01
     4
 # iter = 53500  time[fs]=53.50000
   C -0.454617083E+01  0.207228843E+00  0.126119570E+00
   C  0.460407203E+01 -0.115971138E+00 -0.100450455E+00
   H -0.255879638E+02 -0.269618765E+01 -0.135340499E+01
   H  0.249445255E+02  0.287705651E+01  0.179449768E+01
     4
 # iter = 54000  time[fs]=54.00000
   C -0.461598640E+01  0.210789634E+00  0.128187636E+00
   C  0.467380510E+01 -0.118284285E+00 -0.102069318E+00
   H -0.259539577E+02 -0.273472804E+01 -0.137307233E+01
   H  0.253001101E+02  0.291899987E+01  0.182092044E+01
     4
 # iter = 54500  time[fs]=54.50000
   C -0.468589208E+01  0.214354278E+00  0.130258261E+00
   C  0.474362775E+01 -0.120601427E+00 -0.103690967E+00
   H -0.263200745E+02 -0.277328311E+01 -0.139274717E+01
   H  0.256558239E+02  0.296095960E+01  0.184735344E+01
     4
 # iter = 55000  time[fs]=55.00000
   C -0.475588522E+01  0.217922674E+00  0.132331370E+00
   C  0.481353736E+01 -0.122922458E+00 -0.105315325E+00
   H -0.266863108E+02 -0.281185247E+01 -0.141242929E+01
   H  0.260116632E+02  0.300293525E+01  0.187379641E+01
     4
 # iter = 55500  time[fs]=55.50000
   C -0.482596326E+01  0.221494722E+00  0.134406895E+00
   C  0.488353138E+01 -0.125247275E+00 -0.106942316E+00
   H -0.270526633E+02 -0.285043574E+01 -0.143211851E+01
   H  0.263676247E+02  0.304492641E+01  0.190024908E+01
     4
 # iter = 56000  time[fs]=56.00000
   C -0.489612377E+01  0.225070327E+00  0.136484771E+00
   C  0.495360738E+01 -0.127575779E+00 -0.108571869E+00
   H -0.274191290E+02 -0.288903253E+01 -0.145181463E+01
   H  0.267237050E+02  0.308693268E+01  0.192671119E+01
     4
 # iter = 56500  time[fs]=56.50000
   C -0.496636440E+01  0.228649398E+00  0.138564932E+00
   C  0.502376304E+01 -0.129907877E+00 -0.110203914E+00
   H -0.277857048E+02 -0.292764251E+01 -0.147151748E+01
   H  0.270799012E+02  0.312895365E+01  0.195318251E+01
     4
 # iter = 57000  time[fs]=57.00000
   C -0.503668291E+01  0.232231847E+00  0.140647317E+00
   C  0.509399612E+01 -0.132243477E+00 -0.111838385E+00
   H -0.281523880E+02 -0.296626532E+01 -0.149122688E+01
   H  0.274362100E+02  0.317098896E+01  0.197966280E+01
     4
 # iter = 57500  time[fs]=57.50000
   C -0.510707714E+01  0.235817588E+00  0.142731868E+00
   C  0.516430449E+01 -0.134582492E+00 -0.113475218E+00
   H -0.285191756E+02 -0.300490065E+01 -0.151094267E+01
   H  0.277926288E+02  0.321303824E+01  0.200615183E+01
     4
 # iter = 58000  time[fs]=58.00000
   C -0.517754503E+01  0.239406540E+00  0.144818528E+00
   C  0.523468608E+01 -0.136924836E+00 -0.115114350E+00
   H -0.288860651E+02 -0.304354817E+01 -0.153066469E+01
   H  0.281491546E+02  0.325510115E+01  0.203264939E+01
     4
 # iter = 58500  time[fs]=58.50000
   C -0.524808460E+01  0.242998624E+00  0.146907242E+00
   C  0.530513892E+01 -0.139270428E+00 -0.116755724E+00
   H -0.292530540E+02 -0.308220759E+01 -0.155039279E+01
   H  0.285057847E+02  0.329717734E+01  0.205915526E+01
     4
 # iter = 59000  time[fs]=59.00000
   C -0.531869392E+01  0.246593764E+00  0.148997958E+00
   C  0.537566112E+01 -0.141619190E+00 -0.118399283E+00
   H -0.296201397E+02 -0.312087862E+01 -0.157012681E+01
   H  0.288625167E+02  0.333926650E+01  0.208566925E+01
     4
 # iter = 59500  time[fs]=59.50000
   C -0.538937117E+01  0.250191887E+00  0.151090626E+00
   C  0.544625083E+01 -0.143971045E+00 -0.120044970E+00
   H -0.299873199E+02 -0.315956096E+01 -0.158986663E+01
   H  0.292193479E+02  0.338136832E+01  0.211219116E+01
     4
 # iter = 60000  time[fs]=60.00000
   C -0.546011458E+01  0.253792920E+00  0.153185197E+00
   C  0.551690632E+01 -0.146325921E+00 -0.121692734E+00
   H -0.303545923E+02 -0.319825436E+01 -0.160961208E+01
   H  0.295762760E+02  0.342348249E+01  0.213872081E+01
     4
 # iter = 60500  time[fs]=60.50000
   C -0.553092245E+01  0.257396797E+00  0.155281623E+00
   C  0.558762588E+01 -0.148683745E+00 -0.123342524E+00
   H -0.307219547E+02 -0.323695854E+01 -0.162936306E+01
   H  0.299332987E+02  0.346560872E+01  0.216525800E+01
     4
 # iter = 61000  time[fs]=61.00000
   C -0.560179314E+01  0.261003451E+00  0.157379860E+00
   C  0.565840790E+01 -0.151044451E+00 -0.124994290E+00
   H -0.310894050E+02 -0.327567326E+01 -0.164911942E+01
   H  0.302904138E+02  0.350774674E+01  0.219180258E+01
     4
 # iter = 61500  time[fs]=61.50000
   C -0.567272508E+01  0.264612817E+00  0.159479864E+00
   C  0.572925079E+01 -0.153407971E+00 -0.126647985E+00
   H -0.314569411E+02 -0.331439828E+01 -0.166888104E+01
   H  0.306476190E+02  0.354989628E+01  0.221835436E+01
     4
 # iter = 62000  time[fs]=62.00000
   C -0.574371674E+01  0.268224835E+00  0.161581592E+00
   C  0.580015306E+01 -0.155774242E+00 -0.128303564E+00
   H -0.318245610E+02 -0.335313335E+01 -0.168864781E+01
   H  0.310049124E+02  0.359205707E+01  0.224491319E+01
     4
 # iter = 62500  time[fs]=62.50000
   C -0.581476667E+01  0.271839444E+00  0.163685005E+00
   C  0.587111324E+01 -0.158143202E+00 -0.129960982E+00
   H -0.321922629E+02 -0.339187825E+01 -0.170841960E+01
   H  0.313622918E+02  0.363422885E+01  0.227147890E+01
     4
 # iter = 63000  time[fs]=63.00000
   C -0.588587344E+01  0.275456586E+00  0.165790064E+00
   C  0.594212994E+01 -0.160514791E+00 -0.131620197E+00
   H -0.325600448E+02 -0.343063276E+01 -0.172819631E+01
   H  0.317197554E+02  0.367641140E+01  0.229805135E+01
     4
 # iter = 63500  time[fs]=63.50000
   C -0.595703571E+01  0.279076206E+00  0.167896729E+00
   C  0.601320178E+01 -0.162888951E+00 -0.133281167E+00
   H -0.329279050E+02 -0.346939667E+01 -0.174797783E+01
   H  0.320773012E+02  0.371860447E+01  0.232463039E+01
     4
 # iter = 64000  time[fs]=64.00000
   C -0.602825214E+01  0.282698250E+00  0.170004964E+00
   C  0.608432748E+01 -0.165265626E+00 -0.134943853E+00
   H -0.332958418E+02 -0.350816978E+01 -0.176776405E+01
   H  0.324349275E+02  0.376080783E+01  0.235121588E+01
     4
 # iter = 64500  time[fs]=64.50000
   C -0.609952147E+01  0.286322665E+00  0.172114735E+00
   C  0.615550575E+01 -0.167644763E+00 -0.136608215E+00
   H -0.336638534E+02 -0.354695187E+01 -0.178755488E+01
   H  0.327926325E+02  0.380302126E+01  0.237780767E+01
     4
 # iter = 65000  time[fs]=65.00000
   C -0.617084248E+01  0.289949400E+00  0.174226007E+00
   C  0.622673539E+01 -0.170026308E+00 -0.138274218E+00
   H -0.340319383E+02 -0.358574277E+01 -0.180735021E+01
   H  0.331504145E+02  0.384524455E+01  0.240440564E+01
     4
 # iter = 65500  time[fs]=65.50000
   C -0.624221398E+01  0.293578406E+00  0.176338746E+00
   C  0.629801522E+01 -0.172410210E+00 -0.139941825E+00
   H -0.344000949E+02 -0.362454228E+01 -0.182714995E+01
   H  0.335082719E+02  0.388747749E+01  0.243100965E+01
     4
 # iter = 66000  time[fs]=66.00000
   C -0.631363481E+01  0.297209635E+00  0.178452920E+00
   C  0.636934408E+01 -0.174796420E+00 -0.141611000E+00
   H -0.347683217E+02 -0.366335022E+01 -0.184695401E+01
   H  0.338662029E+02  0.392971988E+01  0.245761958E+01
     4
 # iter = 66500  time[fs]=66.50000
   C -0.638510388E+01  0.300843042E+00  0.180568500E+00
   C  0.644072089E+01 -0.177184891E+00 -0.143281711E+00
   H -0.351366172E+02 -0.370216642E+01 -0.186676229E+01
   H  0.342242062E+02  0.397197153E+01  0.248423530E+01
     4
 # iter = 67000  time[fs]=67.00000
   C -0.645662011E+01  0.304478581E+00  0.182685454E+00
   C  0.651214457E+01 -0.179575575E+00 -0.144953924E+00
   H -0.355049800E+02 -0.374099071E+01 -0.188657472E+01
   H  0.345822802E+02  0.401423224E+01  0.251085671E+01
     4
 # iter = 67500  time[fs]=67.50000
   C -0.652818246E+01  0.308116209E+00  0.184803753E+00
   C  0.658361410E+01 -0.181968429E+00 -0.146627609E+00
   H -0.358734087E+02 -0.377982293E+01 -0.190639121E+01
   H  0.349404235E+02  0.405650184E+01  0.253748368E+01
     4
 # iter = 68000  time[fs]=68.00000
   C -0.659978994E+01  0.311755883E+00  0.186923369E+00
   C  0.665512847E+01 -0.184363407E+00 -0.148302733E+00
   H -0.362419020E+02 -0.381866291E+01 -0.192621168E+01
   H  0.352986346E+02  0.409878014E+01  0.256411611E+01
     4
 # iter = 68500  time[fs]=68.50000
   C -0.667144155E+01  0.315397563E+00  0.189044275E+00
   C  0.672668672E+01 -0.186760468E+00 -0.149979268E+00
   H -0.366104585E+02 -0.385751050E+01 -0.194603604E+01
   H  0.356569122E+02  0.414106698E+01  0.259075388E+01
     4
 # iter = 69000  time[fs]=69.00000
   C -0.674313637E+01  0.319041209E+00  0.191166444E+00
   C  0.679828791E+01 -0.189159570E+00 -0.151657184E+00
   H -0.369790771E+02 -0.389636555E+01 -0.196586423E+01
   H  0.360152550E+02  0.418336218E+01  0.261739689E+01
     4
 # iter = 69500  time[fs]=69.50000
   C -0.681487348E+01  0.322686783E+00  0.193289851E+00
   C  0.686993113E+01 -0.191560674E+00 -0.153336454E+00
   H -0.373477564E+02 -0.393522792E+01 -0.198569617E+01
   H  0.363736616E+02  0.422566559E+01  0.264404504E+01
     4
 # iter = 70000  time[fs]=70.00000
   C -0.688665200E+01  0.326334246E+00  0.195414471E+00
   C  0.694161551E+01 -0.193963741E+00 -0.155017050E+00
   H -0.377164953E+02 -0.397409746E+01 -0.200553178E+01
   H  0.367321309E+02  0.426797705E+01  0.267069824E+01
     4
 # iter = 70500  time[fs]=70.50000
   C -0.695847106E+01  0.329983562E+00  0.197540278E+00
   C  0.701334018E+01 -0.196368732E+00 -0.156698946E+00
   H -0.380852927E+02 -0.401297404E+01 -0.202537100E+01
   H  0.370906616E+02  0.431029640E+01  0.269735638E+01
     4
 # iter = 71000  time[fs]=71.00000
   C -0.703032985E+01  0.333634697E+00  0.199667251E+00
   C  0.708510433E+01 -0.198775612E+00 -0.158382116E+00
   H -0.384541474E+02 -0.405185751E+01 -0.204521376E+01
   H  0.374492525E+02  0.435262349E+01  0.272401937E+01
     4
 # iter = 71500  time[fs]=71.50000
   C -0.710222754E+01  0.337287615E+00  0.201795365E+00
   C  0.715690715E+01 -0.201184344E+00 -0.160066536E+00
   H -0.388230583E+02 -0.409074776E+01 -0.206505998E+01
   H  0.378079025E+02  0.439495819E+01  0.275068712E+01
     4
 # iter = 72000  time[fs]=72.00000
   C -0.717416335E+01  0.340942283E+00  0.203924600E+00
   C  0.722874787E+01 -0.203594894E+00 -0.161752181E+00
   H -0.391920244E+02 -0.412964466E+01 -0.208490962E+01
   H  0.381666106E+02  0.443730034E+01  0.277735955E+01
     4
 # iter = 72500  time[fs]=72.50000
   C -0.724613654E+01  0.344598669E+00  0.206054932E+00
   C  0.730062571E+01 -0.206007228E+00 -0.163439028E+00
   H -0.395610447E+02 -0.416854808E+01 -0.210476260E+01
   H  0.385253755E+02  0.447964982E+01  0.280403657E+01
     4
 # iter = 73000  time[fs]=73.00000
   C -0.731814635E+01  0.348256740E+00  0.208186342E+00
   C  0.737253997E+01 -0.208421314E+00 -0.165127055E+00
   H -0.399301181E+02 -0.420745790E+01 -0.212461886E+01
   H  0.388841962E+02  0.452200649E+01  0.283071809E+01
     4
 # iter = 73500  time[fs]=73.50000
   C -0.739019207E+01  0.351916467E+00  0.210318809E+00
   C  0.744448991E+01 -0.210837119E+00 -0.166816238E+00
   H -0.402992437E+02 -0.424637401E+01 -0.214447835E+01
   H  0.392430718E+02  0.456437021E+01  0.285740404E+01
     4
 # iter = 74000  time[fs]=74.00000
   C -0.746227300E+01  0.355577819E+00  0.212452313E+00
   C  0.751647485E+01 -0.213254612E+00 -0.168506556E+00
   H -0.406684205E+02 -0.428529629E+01 -0.216434101E+01
   H  0.396020013E+02  0.460674088E+01  0.288409433E+01
     4
 # iter = 74500  time[fs]=74.50000
   C -0.753438848E+01  0.359240766E+00  0.214586834E+00
   C  0.758849412E+01 -0.215673763E+00 -0.170197989E+00
   H -0.410376476E+02 -0.432422464E+01 -0.218420678E+01
   H  0.399609836E+02  0.464911835E+01  0.291078890E+01
     4
 # iter = 75000  time[fs]=75.00000
   C -0.760653784E+01  0.362905281E+00  0.216722355E+00
   C  0.766054705E+01 -0.218094543E+00 -0.171890516E+00
   H -0.414069242E+02 -0.436315895E+01 -0.220407560E+01
   H  0.403200178E+02  0.469150251E+01  0.293748765E+01
     4
 # iter = 75500  time[fs]=75.50000
   C -0.767872043E+01  0.366571335E+00  0.218858857E+00
   C  0.773263303E+01 -0.220516923E+00 -0.173584117E+00
   H -0.417762493E+02 -0.440209911E+01 -0.222394743E+01
   H  0.406791030E+02  0.473389325E+01  0.296419053E+01
     4
 # iter = 76000  time[fs]=76.00000
   C -0.775093565E+01  0.370238902E+00  0.220996323E+00
   C  0.780475142E+01 -0.222940874E+00 -0.175278773E+00
   H -0.421456221E+02 -0.444104503E+01 -0.224382221E+01
   H  0.410382384E+02  0.477629045E+01  0.299089746E+01
     4
 # iter = 76500  time[fs]=76.50000
   C -0.782318289E+01  0.373907956E+00  0.223134734E+00
   C  0.787690163E+01 -0.225366370E+00 -0.176974465E+00
   H -0.425150417E+02 -0.447999659E+01 -0.226369989E+01
   H  0.413974230E+02  0.481869401E+01  0.301760837E+01
     4
 # iter = 77000  time[fs]=77.00000
   C -0.789546155E+01  0.377578470E+00  0.225274074E+00
   C  0.794908307E+01 -0.227793384E+00 -0.178671174E+00
   H -0.428845074E+02 -0.451895372E+01 -0.228358042E+01
   H  0.417566560E+02  0.486110380E+01  0.304432319E+01
     4
 # iter = 77500  time[fs]=77.50000
   C -0.796777106E+01  0.381250420E+00  0.227414327E+00
   C  0.802129517E+01 -0.230221891E+00 -0.180368883E+00
   H -0.432540184E+02 -0.455791630E+01 -0.230346376E+01
   H  0.421159366E+02  0.490351974E+01  0.307104186E+01
     4
 # iter = 78000  time[fs]=78.00000
   C -0.804011087E+01  0.384923782E+00  0.229555477E+00
   C  0.809353738E+01 -0.232651864E+00 -0.182067575E+00
   H -0.436235739E+02 -0.459688426E+01 -0.232334985E+01
   H  0.424752639E+02  0.494594171E+01  0.309776431E+01
     4
 # iter = 78500  time[fs]=78.50000
   C -0.811248044E+01  0.388598532E+00  0.231697509E+00
   C  0.816580917E+01 -0.235083280E+00 -0.183767232E+00
   H -0.439931731E+02 -0.463585750E+01 -0.234323865E+01
   H  0.428346372E+02  0.498836962E+01  0.312449049E+01
     4
 # iter = 79000  time[fs]=79.00000
   C -0.818487923E+01  0.392274646E+00  0.233840406E+00
   C  0.823810999E+01 -0.237516114E+00 -0.185467839E+00
   H -0.443628154E+02 -0.467483593E+01 -0.236313012E+01
   H  0.431940558E+02  0.503080337E+01  0.315122033E+01
     4
 # iter = 79500  time[fs]=79.50000
   C -0.825730674E+01  0.395952102E+00  0.235984155E+00
   C  0.831043935E+01 -0.239950343E+00 -0.187169378E+00
   H -0.447325000E+02 -0.471381948E+01 -0.238302421E+01
   H  0.435535188E+02  0.507324287E+01  0.317795376E+01
     4
 # iter = 80000  time[fs]=80.00000
   C -0.832976246E+01  0.399630878E+00  0.238128741E+00
   C  0.838279675E+01 -0.242385944E+00 -0.188871834E+00
   H -0.451022263E+02 -0.475280805E+01 -0.240292089E+01
   H  0.439130255E+02  0.511568801E+01  0.320469074E+01
