     4
 # iter = 25000  time[fs]=25.00000
   C -0.985962010E+00 -0.104743488E-01  0.604069799E-01
   C  0.983367896E+00  0.179985625E-01  0.337070995E-01
   H -0.529743211E+01 -0.368645419E+00 -0.121122796E+00
   H  0.533097418E+01 -0.153528093E+00 -0.760616188E-01
     4
 # iter = 25500  time[fs]=25.50000
   C -0.103254395E+01 -0.107028515E-01  0.629759385E-01
   C  0.102332608E+01  0.171542690E-01  0.335124516E-01
   H -0.563893563E+01 -0.399355932E+00 -0.138680396E+00
   H  0.564072996E+01 -0.171818850E+00 -0.899057018E-01
     4
 # iter = 26000  time[fs]=26.00000
   C -0.108439360E+01 -0.117565614E-01  0.648413271E-01
   C  0.106661171E+01  0.152185373E-01  0.320948801E-01
   H -0.598850824E+01 -0.435659507E+00 -0.161732601E+00
   H  0.594775880E+01 -0.195595927E+00 -0.109216381E+00
     4
 # iter = 26500  time[fs]=26.50000
   C -0.113881447E+01 -0.113155181E-01  0.683123094E-01
   C  0.111630095E+01  0.156442420E-01  0.329192138E-01
   H -0.632975692E+01 -0.461449224E+00 -0.174184499E+00
   H  0.626788068E+01 -0.208755397E+00 -0.117891617E+00
     4
 # iter = 27000  time[fs]=27.00000
   C -0.119532403E+01 -0.925957174E-02  0.734987240E-01
   C  0.117219639E+01  0.185948392E-01  0.361601593E-01
   H -0.666163607E+01 -0.475911512E+00 -0.175232132E+00
   H  0.660164893E+01 -0.210494107E+00 -0.115129910E+00
     4
 # iter = 27500  time[fs]=27.50000
   C -0.125529671E+01 -0.730487553E-02  0.786747634E-01
   C  0.123137651E+01  0.214879406E-01  0.392457535E-01
   H -0.699590898E+01 -0.490999327E+00 -0.176836231E+00
   H  0.693687259E+01 -0.212781805E+00 -0.112902486E+00
     4
 # iter = 28000  time[fs]=28.00000
   C -0.131963240E+01 -0.666496555E-02  0.826180914E-01
   C  0.129170171E+01  0.224953700E-01  0.403572788E-01
   H -0.734086708E+01 -0.515167655E+00 -0.187458427E+00
   H  0.726489340E+01 -0.224086614E+00 -0.119678724E+00
     4
 # iter = 28500  time[fs]=28.50000
   C -0.138755273E+01 -0.684436866E-02  0.858162937E-01
   C  0.135362184E+01  0.223486888E-01  0.402347631E-01
   H -0.769293074E+01 -0.544983194E+00 -0.203671326E+00
   H  0.758897997E+01 -0.240979487E+00 -0.132030618E+00
     4
 # iter = 29000  time[fs]=29.00000
   C -0.145759325E+01 -0.663311850E-02  0.894722828E-01
   C  0.141868555E+01  0.228503666E-01  0.406882379E-01
   H -0.804356556E+01 -0.572041372E+00 -0.217075570E+00
   H  0.791739888E+01 -0.255055969E+00 -0.141554595E+00
     4
 # iter = 29500  time[fs]=29.50000
   C -0.152910487E+01 -0.561171034E-02  0.939992319E-01
   C  0.148728431E+01  0.246206315E-01  0.423447026E-01
   H -0.838975150E+01 -0.593434631E+00 -0.224768087E+00
   H  0.825293235E+01 -0.263411579E+00 -0.145346966E+00
     4
 # iter = 30000  time[fs]=30.00000
   C -0.160246273E+01 -0.436215887E-02  0.988094474E-01
   C  0.155833416E+01  0.267813238E-01  0.443320568E-01
   H -0.873544934E+01 -0.613220729E+00 -0.230810479E+00
   H  0.859140556E+01 -0.270111197E+00 -0.147473332E+00
     4
 # iter = 30500  time[fs]=30.50000
   C -0.167813131E+01 -0.353431065E-02  0.103248016E+00
   C  0.163067206E+01  0.283537271E-01  0.456769854E-01
   H -0.908510164E+01 -0.635927568E+00 -0.239734012E+00
   H  0.892818570E+01 -0.279689605E+00 -0.152469124E+00
     4
 # iter = 31000  time[fs]=31.00000
   C -0.175595272E+01 -0.313559624E-02  0.107303007E+00
   C  0.170411760E+01  0.293219047E-01  0.463683511E-01
   H -0.943868888E+01 -0.661612299E+00 -0.251598851E+00
   H  0.926312561E+01 -0.292207339E+00 -0.160395457E+00
     4
 # iter = 31500  time[fs]=31.50000
   C -0.183535292E+01 -0.273943540E-02  0.111397002E+00
   C  0.177915856E+01  0.303204779E-01  0.470450424E-01
   H -0.979317848E+01 -0.687311576E+00 -0.263444360E+00
   H  0.959911082E+01 -0.304702023E+00 -0.168290463E+00
     4
 # iter = 32000  time[fs]=32.00000
   C -0.191593517E+01 -0.208099757E-02  0.115791266E+00
   C  0.185605656E+01  0.317423682E-01  0.481037863E-01
   H -0.101466698E+02 -0.711186771E+00 -0.273434333E+00
   H  0.993790946E+01 -0.315336462E+00 -0.174317414E+00
     4
 # iter = 32500  time[fs]=32.50000
   C -0.199769176E+01 -0.127084560E-02  0.120372051E+00
   C  0.193452512E+01  0.334187888E-01  0.493791978E-01
   H -0.104998799E+02 -0.734010504E+00 -0.282343545E+00
   H  0.102786833E+02 -0.324886225E+00 -0.179252306E+00
     4
 # iter = 33000  time[fs]=33.00000
   C -0.208074593E+01 -0.538311597E-03  0.124907173E+00
   C  0.201411252E+01  0.350035117E-01  0.505280929E-01
   H -0.108543574E+02 -0.757381108E+00 -0.291772265E+00
   H  0.106197738E+02 -0.334952917E+00 -0.184697135E+00
     4
 # iter = 33500  time[fs]=33.50000
   C -0.216506903E+01  0.500159378E-04  0.129327493E+00
   C  0.209462190E+01  0.363944108E-01  0.514510727E-01
   H -0.112105223E+02 -0.781763957E+00 -0.302187615E+00
   H  0.109606618E+02 -0.346004182E+00 -0.191119906E+00
     4
 # iter = 34000  time[fs]=34.00000
   C -0.225047650E+01  0.593121137E-03  0.133729708E+00
   C  0.217611432E+01  0.377376356E-01  0.522967333E-01
   H -0.115676461E+02 -0.806471916E+00 -0.312904055E+00
   H  0.113019863E+02 -0.357354173E+00 -0.197835102E+00
     4
 # iter = 34500  time[fs]=34.50000
   C -0.233679455E+01  0.118771366E-02  0.138208474E+00
   C  0.225865609E+01  0.391761749E-01  0.532102650E-01
   H -0.119250196E+02 -0.830833373E+00 -0.323251425E+00
   H  0.116443751E+02 -0.368332425E+00 -0.204172560E+00
     4
 # iter = 35000  time[fs]=35.00000
   C -0.242395456E+01  0.183278955E-02  0.142760935E+00
   C  0.234217483E+01  0.407068820E-01  0.541905057E-01
   H -0.122826165E+02 -0.854856393E+00 -0.333239109E+00
   H  0.119877793E+02 -0.378948479E+00 -0.210142102E+00
     4
 # iter = 35500  time[fs]=35.50000
   C -0.251194797E+01  0.247392314E-02  0.147330993E+00
   C  0.242652498E+01  0.422467875E-01  0.551562802E-01
   H -0.126407847E+02 -0.878920530E+00 -0.343247871E+00
   H  0.123317820E+02 -0.389583497E+00 -0.216125153E+00
     4
 # iter = 36000  time[fs]=36.00000
   C -0.260074715E+01  0.308166303E-02  0.151887686E+00
   C  0.251160440E+01  0.437504956E-01  0.560638175E-01
   H -0.129997010E+02 -0.903231342E+00 -0.353484375E+00
   H  0.126761430E+02 -0.400444411E+00 -0.222328887E+00
     4
 # iter = 36500  time[fs]=36.50000
   C -0.269028681E+01  0.366946453E-02  0.156443098E+00
   C  0.259738059E+01  0.452370193E-01  0.569336042E-01
   H -0.133592455E+02 -0.927695644E+00 -0.363856454E+00
   H  0.130209240E+02 -0.411439100E+00 -0.228661411E+00
     4
 # iter = 37000  time[fs]=37.00000
   C -0.278049647E+01  0.426062127E-02  0.161019278E+00
   C  0.268384054E+01  0.467402288E-01  0.578008515E-01
   H -0.137192318E+02 -0.952151660E+00 -0.374203272E+00
   H  0.133662577E+02 -0.422406716E+00 -0.234962086E+00
     4
 # iter = 37500  time[fs]=37.50000
   C -0.287132718E+01  0.486109598E-02  0.165621056E+00
   C  0.277094955E+01  0.482681418E-01  0.586747986E-01
   H -0.140795960E+02 -0.976558111E+00 -0.384484416E+00
   H  0.137121582E+02 -0.433306912E+00 -0.241190765E+00
     4
 # iter = 38000  time[fs]=38.00000
   C -0.296274800E+01  0.546251825E-02  0.170239027E+00
   C  0.285865521E+01  0.498074007E-01  0.595432039E-01
   H -0.144403752E+02 -0.100097337E+01 -0.394759058E+00
   H  0.140585422E+02 -0.444198989E+00 -0.247406933E+00
     4
 # iter = 38500  time[fs]=38.50000
   C -0.305473017E+01  0.605769573E-02  0.174865056E+00
   C  0.294691030E+01  0.513464951E-01  0.603955778E-01
   H -0.148016002E+02 -0.102544752E+01 -0.405078037E+00
   H  0.144053361E+02 -0.455133900E+00 -0.253661718E+00
     4
 # iter = 39000  time[fs]=39.00000
   C -0.314724018E+01  0.664712725E-02  0.179498775E+00
   C  0.303568215E+01  0.528855073E-01  0.612329389E-01
   H -0.151632491E+02 -0.104997708E+01 -0.415438551E+00
   H  0.147525218E+02 -0.466108918E+00 -0.259952554E+00
     4
 # iter = 39500  time[fs]=39.50000
   C -0.324024387E+01  0.723469205E-02  0.184143271E+00
   C  0.312494587E+01  0.544296467E-01  0.620613564E-01
   H -0.155252780E+02 -0.107453499E+01 -0.425814176E+00
   H  0.151001060E+02 -0.477097669E+00 -0.266253223E+00
     4
 # iter = 40000  time[fs]=40.00000
   C -0.333371140E+01  0.782231938E-02  0.188799743E+00
   C  0.321467612E+01  0.559812578E-01  0.628839663E-01
   H -0.158876576E+02 -0.109910770E+01 -0.436191976E+00
   H  0.154480835E+02 -0.488087268E+00 -0.272550985E+00
     4
 # iter = 40500  time[fs]=40.50000
   C -0.342761772E+01  0.840935719E-02  0.193466868E+00
   C  0.330484591E+01  0.575388686E-01  0.637000262E-01
   H -0.162503775E+02 -0.112369960E+01 -0.446576901E+00
   H  0.157964322E+02 -0.499082732E+00 -0.278850992E+00
     4
 # iter = 41000  time[fs]=41.00000
   C -0.352194014E+01  0.899473534E-02  0.198142956E+00
   C  0.339542960E+01  0.591004250E-01  0.645081557E-01
   H -0.166134311E+02 -0.114831798E+01 -0.456976749E+00
   H  0.161451281E+02 -0.510091918E+00 -0.285161233E+00
     4
 # iter = 41500  time[fs]=41.50000
   C -0.361665684E+01  0.957831984E-02  0.202827301E+00
   C  0.348640480E+01  0.606653146E-01  0.653083660E-01
   H -0.169768062E+02 -0.117296356E+01 -0.467392748E+00
   H  0.164941552E+02 -0.521116107E+00 -0.291483110E+00
     4
 # iter = 42000  time[fs]=42.00000
   C -0.371174696E+01  0.101606095E-01  0.207519872E+00
   C  0.357775167E+01  0.622339084E-01  0.661016056E-01
   H -0.173404871E+02 -0.119763267E+01 -0.477821674E+00
   H  0.168435024E+02 -0.532152121E+00 -0.297813561E+00
     4
 # iter = 42500  time[fs]=42.50000
   C -0.380719121E+01  0.107419985E-01  0.212220572E+00
   C  0.366945172E+01  0.638064520E-01  0.668886561E-01
   H -0.177044592E+02 -0.122232234E+01 -0.488260989E+00
   H  0.171931591E+02 -0.543197467E+00 -0.304150203E+00
     4
 # iter = 43000  time[fs]=43.00000
   C -0.390297198E+01  0.113225548E-01  0.216929013E+00
   C  0.376148734E+01  0.653827306E-01  0.676698012E-01
   H -0.180687112E+02 -0.124703186E+01 -0.498710392E+00
   H  0.175431130E+02 -0.554251886E+00 -0.310492881E+00
     4
 # iter = 43500  time[fs]=43.50000
   C -0.399907299E+01  0.119022263E-01  0.221644720E+00
   C  0.385384196E+01  0.669623751E-01  0.684451354E-01
   H -0.184332331E+02 -0.127176134E+01 -0.509170385E+00
   H  0.178933518E+02 -0.565315919E+00 -0.316842236E+00
     4
 # iter = 44000  time[fs]=44.00000
   C -0.409547898E+01  0.124810290E-01  0.226367313E+00
   C  0.394650023E+01  0.685451414E-01  0.692148472E-01
   H -0.187980150E+02 -0.129651044E+01 -0.519640967E+00
   H  0.182438645E+02 -0.576389605E+00 -0.323198401E+00
     4
 # iter = 44500  time[fs]=44.50000
   C -0.419217568E+01  0.130590529E-01  0.231096515E+00
   C  0.403944795E+01  0.701309166E-01  0.699792271E-01
   H -0.191630470E+02 -0.132127828E+01 -0.530121603E+00
   H  0.185946409E+02 -0.587472444E+00 -0.329560965E+00
     4
 # iter = 45000  time[fs]=45.00000
   C -0.428914970E+01  0.136363896E-01  0.235832075E+00
   C  0.413267189E+01  0.717196094E-01  0.707385613E-01
   H -0.195283197E+02 -0.134606395E+01 -0.540611724E+00
   H  0.189456719E+02 -0.598563898E+00 -0.335929476E+00
     4
 # iter = 45500  time[fs]=45.50000
   C -0.438638857E+01  0.142130989E-01  0.240573730E+00
   C  0.422615959E+01  0.733110975E-01  0.714930805E-01
   H -0.198938243E+02 -0.137086681E+01 -0.551110963E+00
   H  0.192969482E+02 -0.609663633E+00 -0.342303682E+00
     4
 # iter = 46000  time[fs]=46.00000
   C -0.448388061E+01  0.147892208E-01  0.245321221E+00
   C  0.431989940E+01  0.749052446E-01  0.722429793E-01
   H -0.202595528E+02 -0.139568630E+01 -0.561619077E+00
   H  0.196484613E+02 -0.620771436E+00 -0.348683447E+00
     4
 # iter = 46500  time[fs]=46.50000
   C -0.458161486E+01  0.153647944E-01  0.250074305E+00
   C  0.441388038E+01  0.765019268E-01  0.729884442E-01
   H -0.206254973E+02 -0.142052192E+01 -0.572135816E+00
   H  0.200002029E+02 -0.631887086E+00 -0.355068625E+00
     4
 # iter = 47000  time[fs]=47.00000
   C -0.467958105E+01  0.159398617E-01  0.254832760E+00
   C  0.450809227E+01  0.781010373E-01  0.737296601E-01
   H -0.209916505E+02 -0.144537313E+01 -0.582660900E+00
   H  0.203521653E+02 -0.643010327E+00 -0.361459031E+00
     4
 # iter = 47500  time[fs]=47.50000
   C -0.477776948E+01  0.165144632E-01  0.259596378E+00
   C  0.460252542E+01  0.797024792E-01  0.744668043E-01
   H -0.213580053E+02 -0.147023939E+01 -0.593194045E+00
   H  0.207043411E+02 -0.654140903E+00 -0.367854477E+00
     4
 # iter = 48000  time[fs]=48.00000
   C -0.487617107E+01  0.170886349E-01  0.264364961E+00
   C  0.469717078E+01  0.813061591E-01  0.752000416E-01
   H -0.217245551E+02 -0.149512022E+01 -0.603734992E+00
   H  0.210567234E+02 -0.665278578E+00 -0.374254791E+00
     4
 # iter = 48500  time[fs]=48.50000
   C -0.497477723E+01  0.176624087E-01  0.269138323E+00
   C  0.479201978E+01  0.829119873E-01  0.759295256E-01
   H -0.220912935E+02 -0.152001515E+01 -0.614283504E+00
   H  0.214093055E+02 -0.676423137E+00 -0.380659821E+00
     4
 # iter = 49000  time[fs]=49.00000
   C -0.507357989E+01  0.182358140E-01  0.273916284E+00
   C  0.488706437E+01  0.845198792E-01  0.766554013E-01
   H -0.224582144E+02 -0.154492375E+01 -0.624839353E+00
   H  0.217620809E+02 -0.687574375E+00 -0.387069421E+00
     4
 # iter = 49500  time[fs]=49.50000
   C -0.517257141E+01  0.188088781E-01  0.278698678E+00
   C  0.498229694E+01  0.861297558E-01  0.773778063E-01
   H -0.228253122E+02 -0.156984560E+01 -0.635402320E+00
   H  0.221150437E+02 -0.698732093E+00 -0.393483451E+00
     4
 # iter = 50000  time[fs]=50.00000
   C -0.527174459E+01  0.193816266E-01  0.283485346E+00
   C  0.507771031E+01  0.877415424E-01  0.780968711E-01
   H -0.231925812E+02 -0.159478029E+01 -0.645972195E+00
   H  0.224681881E+02 -0.709896101E+00 -0.399901774E+00
     4
 # iter = 50500  time[fs]=50.50000
   C -0.537109260E+01  0.199540830E-01  0.288276137E+00
   C  0.517329768E+01  0.893551688E-01  0.788127190E-01
   H -0.235600163E+02 -0.161972744E+01 -0.656548775E+00
   H  0.228215086E+02 -0.721066216E+00 -0.406324260E+00
     4
 # iter = 51000  time[fs]=51.00000
   C -0.547060899E+01  0.205262690E-01  0.293070907E+00
   C  0.526905262E+01  0.909705680E-01  0.795254669E-01
   H -0.239276125E+02 -0.164468670E+01 -0.667131871E+00
   H  0.231749998E+02 -0.732242264E+00 -0.412750787E+00
     4
 # iter = 51500  time[fs]=51.50000
   C -0.557028766E+01  0.210982047E-01  0.297869520E+00
   C  0.536496905E+01  0.925876769E-01  0.802352256E-01
   H -0.242953649E+02 -0.166965769E+01 -0.677721297E+00
   H  0.235286569E+02 -0.743424078E+00 -0.419181236E+00
     4
 # iter = 52000  time[fs]=52.00000
   C -0.567012280E+01  0.216699088E-01  0.302671848E+00
   C  0.546104117E+01  0.942064357E-01  0.809421003E-01
   H -0.246632691E+02 -0.169464010E+01 -0.688316878E+00
   H  0.238824749E+02 -0.754611500E+00 -0.425615494E+00
     4
 # iter = 52500  time[fs]=52.50000
   C -0.577010891E+01  0.222413985E-01  0.307477768E+00
   C  0.555726352E+01  0.958267874E-01  0.816461909E-01
   H -0.250313205E+02 -0.171963360E+01 -0.698918444E+00
   H  0.242364492E+02 -0.765804375E+00 -0.432053453E+00
     4
 # iter = 53000  time[fs]=53.00000
   C -0.587024077E+01  0.228126898E-01  0.312287161E+00
   C  0.565363088E+01  0.974486782E-01  0.823475924E-01
   H -0.253995151E+02 -0.174463788E+01 -0.709525835E+00
   H  0.245905755E+02 -0.777002557E+00 -0.438495010E+00
     4
 # iter = 53500  time[fs]=53.50000
   C -0.597051342E+01  0.233837978E-01  0.317099917E+00
   C  0.575013831E+01  0.990720567E-01  0.830463952E-01
   H -0.257678488E+02 -0.176965265E+01 -0.720138893E+00
   H  0.249448495E+02 -0.788205905E+00 -0.444940065E+00
     4
 # iter = 54000  time[fs]=54.00000
   C -0.607092213E+01  0.239547363E-01  0.321915930E+00
   C  0.584678110E+01  0.100696874E+00  0.837426853E-01
   H -0.261363178E+02 -0.179467762E+01 -0.730757472E+00
   H  0.252992671E+02 -0.799414282E+00 -0.451388524E+00
     4
 # iter = 54500  time[fs]=54.50000
   C -0.617146240E+01  0.245255182E-01  0.326735097E+00
   C  0.594355478E+01  0.102323085E+00  0.844365448E-01
   H -0.265049183E+02 -0.181971252E+01 -0.741381425E+00
   H  0.256538245E+02 -0.810627560E+00 -0.457840293E+00
     4
 # iter = 55000  time[fs]=55.00000
   C -0.627212995E+01  0.250961555E-01  0.331557322E+00
   C  0.604045508E+01  0.103950643E+00  0.851280516E-01
   H -0.268736469E+02 -0.184475710E+01 -0.752010617E+00
   H  0.260085179E+02 -0.821845612E+00 -0.464295286E+00
     4
 # iter = 55500  time[fs]=55.50000
   C -0.637292070E+01  0.256666594E-01  0.336382511E+00
   C  0.613747792E+01  0.105579508E+00  0.858172804E-01
   H -0.272425001E+02 -0.186981110E+01 -0.762644914E+00
   H  0.263633437E+02 -0.833068319E+00 -0.470753419E+00
     4
 # iter = 56000  time[fs]=56.00000
   C -0.647383076E+01  0.262370404E-01  0.341210578E+00
   C  0.623461943E+01  0.107209639E+00  0.865043023E-01
   H -0.276114747E+02 -0.189487427E+01 -0.773284189E+00
   H  0.267182985E+02 -0.844295564E+00 -0.477214610E+00
     4
 # iter = 56500  time[fs]=56.50000
   C -0.657485641E+01  0.268073082E-01  0.346041436E+00
   C  0.633187592E+01  0.108840998E+00  0.871891854E-01
   H -0.279805675E+02 -0.191994640E+01 -0.783928319E+00
   H  0.270733789E+02 -0.855527236E+00 -0.483678781E+00
     4
 # iter = 57000  time[fs]=57.00000
   C -0.667599409E+01  0.273774719E-01  0.350875005E+00
   C  0.642924383E+01  0.110473548E+00  0.878719946E-01
   H -0.283497754E+02 -0.194502725E+01 -0.794577185E+00
   H  0.274285818E+02 -0.866763226E+00 -0.490145857E+00
     4
 # iter = 57500  time[fs]=57.50000
   C -0.677724042E+01  0.279475401E-01  0.355711207E+00
   C  0.652671980E+01  0.112107254E+00  0.885527920E-01
   H -0.287190957E+02 -0.197011661E+01 -0.805230673E+00
   H  0.277839041E+02 -0.878003432E+00 -0.496615765E+00
     4
 # iter = 58000  time[fs]=58.00000
   C -0.687859214E+01  0.285175205E-01  0.360549967E+00
   C  0.662430058E+01  0.113742082E+00  0.892316371E-01
   H -0.290885254E+02 -0.199521427E+01 -0.815888674E+00
   H  0.281393428E+02 -0.889247754E+00 -0.503088437E+00
     4
 # iter = 58500  time[fs]=58.50000
   C -0.698004615E+01  0.290874207E-01  0.365391215E+00
   C  0.672198309E+01  0.115378001E+00  0.899085869E-01
   H -0.294580620E+02 -0.202032003E+01 -0.826551081E+00
   H  0.284948950E+02 -0.900496094E+00 -0.509563806E+00
     4
 # iter = 59000  time[fs]=59.00000
   C -0.708159949E+01  0.296572476E-01  0.370234881E+00
   C  0.681976436E+01  0.117014980E+00  0.905836959E-01
   H -0.298277027E+02 -0.204543371E+01 -0.837217793E+00
   H  0.288505582E+02 -0.911748360E+00 -0.516041805E+00
     4
 # iter = 59500  time[fs]=59.50000
   C -0.718324929E+01  0.302270077E-01  0.375080900E+00
   C  0.691764156E+01  0.118652988E+00  0.912570163E-01
   H -0.301974451E+02 -0.207055510E+01 -0.847888709E+00
   H  0.292063295E+02 -0.923004462E+00 -0.522522374E+00
     4
 # iter = 60000  time[fs]=60.00000
   C -0.728499282E+01  0.307967071E-01  0.379929210E+00
   C  0.701561197E+01  0.120291999E+00  0.919285985E-01
   H -0.305672868E+02 -0.209568405E+01 -0.858563735E+00
   H  0.295622064E+02 -0.934264313E+00 -0.529005451E+00
     4
 # iter = 60500  time[fs]=60.50000
   C -0.738682748E+01  0.313663514E-01  0.384779748E+00
   C  0.711367298E+01  0.121931984E+00  0.925984904E-01
   H -0.309372254E+02 -0.212082036E+01 -0.869242778E+00
   H  0.299181865E+02 -0.945527829E+00 -0.535490979E+00
     4
 # iter = 61000  time[fs]=61.00000
   C -0.748875074E+01  0.319359460E-01  0.389632458E+00
   C  0.721182208E+01  0.123572918E+00  0.932667383E-01
   H -0.313072587E+02 -0.214596389E+01 -0.879925749E+00
   H  0.302742674E+02 -0.956794929E+00 -0.541978902E+00
     4
 # iter = 61500  time[fs]=61.50000
   C -0.759076019E+01  0.325054959E-01  0.394487282E+00
   C  0.731005688E+01  0.125214776E+00  0.939333865E-01
   H -0.316773845E+02 -0.217111445E+01 -0.890612563E+00
   H  0.306304467E+02 -0.968065534E+00 -0.548469165E+00
     4
 # iter = 62000  time[fs]=62.00000
   C -0.769285351E+01  0.330750058E-01  0.399344167E+00
   C  0.740837506E+01  0.126857534E+00  0.945984778E-01
   H -0.320476008E+02 -0.219627190E+01 -0.901303135E+00
   H  0.309867224E+02 -0.979339569E+00 -0.554961716E+00
     4
 # iter = 62500  time[fs]=62.50000
   C -0.779502848E+01  0.336444801E-01  0.404203061E+00
   C  0.750677441E+01  0.128501168E+00  0.952620531E-01
   H -0.324179054E+02 -0.222143609E+01 -0.911997385E+00
   H  0.313430921E+02 -0.990616960E+00 -0.561456504E+00
     4
 # iter = 63000  time[fs]=63.00000
   C -0.789728296E+01  0.342139228E-01  0.409063914E+00
   C  0.760525279E+01  0.130145657E+00  0.959241519E-01
   H -0.327882964E+02 -0.224660687E+01 -0.922695235E+00
   H  0.316995539E+02 -0.100189764E+01 -0.567953481E+00
     4
 # iter = 63500  time[fs]=63.50000
   C -0.799961487E+01  0.347833379E-01  0.413926678E+00
   C  0.770380816E+01  0.131790978E+00  0.965848121E-01
   H -0.331587720E+02 -0.227178409E+01 -0.933396608E+00
   H  0.320561056E+02 -0.101318153E+01 -0.574452598E+00
     4
 # iter = 64000  time[fs]=64.00000
   C -0.810202224E+01  0.353527291E-01  0.418791305E+00
   C  0.780243854E+01  0.133437113E+00  0.972440704E-01
   H -0.335293302E+02 -0.229696763E+01 -0.944101433E+00
   H  0.324127455E+02 -0.102446857E+01 -0.580953811E+00
     4
 # iter = 64500  time[fs]=64.50000
   C -0.820450317E+01  0.359220996E-01  0.423657752E+00
   C  0.790114203E+01  0.135084039E+00  0.979019619E-01
   H -0.338999694E+02 -0.232215735E+01 -0.954809638E+00
   H  0.327694716E+02 -0.103575870E+01 -0.587457074E+00
     4
 # iter = 65000  time[fs]=65.00000
   C -0.830705580E+01  0.364914527E-01  0.428525975E+00
   C  0.799991680E+01  0.136731740E+00  0.985585205E-01
   H -0.342706878E+02 -0.234735312E+01 -0.965521153E+00
   H  0.331262820E+02 -0.104705184E+01 -0.593962344E+00
     4
 # iter = 65500  time[fs]=65.50000
   C -0.840967837E+01  0.370607915E-01  0.433395932E+00
   C  0.809876108E+01  0.138380195E+00  0.992137790E-01
   H -0.346414837E+02 -0.237255481E+01 -0.976235913E+00
   H  0.334831750E+02 -0.105834795E+01 -0.600469581E+00
     4
 # iter = 66000  time[fs]=66.00000
   C -0.851236916E+01  0.376301187E-01  0.438267584E+00
   C  0.819767317E+01  0.140029387E+00  0.998677689E-01
   H -0.350123555E+02 -0.239776231E+01 -0.986953852E+00
   H  0.338401490E+02 -0.106964696E+01 -0.606978742E+00
     4
 # iter = 66500  time[fs]=66.50000
   C -0.861512654E+01  0.381994370E-01  0.443140890E+00
   C  0.829665144E+01  0.141679300E+00  0.100520521E+00
   H -0.353833016E+02 -0.242297550E+01 -0.997674908E+00
   H  0.341972022E+02 -0.108094882E+01 -0.613489790E+00
     4
 # iter = 67000  time[fs]=67.00000
   C -0.871794890E+01  0.387687488E-01  0.448015814E+00
   C  0.839569429E+01  0.143329916E+00  0.101172064E+00
   H -0.357543206E+02 -0.244819427E+01 -0.100839902E+01
   H  0.345543330E+02 -0.109225347E+01 -0.620002686E+00
     4
 # iter = 67500  time[fs]=67.50000
   C -0.882083472E+01  0.393380566E-01  0.452892319E+00
   C  0.849480021E+01  0.144981219E+00  0.101822426E+00
   H -0.361254110E+02 -0.247341850E+01 -0.101912613E+01
   H  0.349115398E+02 -0.110356085E+01 -0.626517394E+00
     4
 # iter = 68000  time[fs]=68.00000
   C -0.892378251E+01  0.399073625E-01  0.457770369E+00
   C  0.859396771E+01  0.146633194E+00  0.102471636E+00
   H -0.364965712E+02 -0.249864809E+01 -0.102985617E+01
   H  0.352688213E+02 -0.111487091E+01 -0.633033877E+00
     4
 # iter = 68500  time[fs]=68.50000
   C -0.902679084E+01  0.404766686E-01  0.462649932E+00
   C  0.869319537E+01  0.148285827E+00  0.103119719E+00
   H -0.368678001E+02 -0.252388293E+01 -0.104058910E+01
   H  0.356261758E+02 -0.112618361E+01 -0.639552101E+00
     4
 # iter = 69000  time[fs]=69.00000
   C -0.912985833E+01  0.410459768E-01  0.467530974E+00
   C  0.879248182E+01  0.149939102E+00  0.103766701E+00
   H -0.372390961E+02 -0.254912292E+01 -0.105132486E+01
   H  0.359836020E+02 -0.113749889E+01 -0.646072031E+00
     4
 # iter = 69500  time[fs]=69.50000
   C -0.923298363E+01  0.416152890E-01  0.472413462E+00
   C  0.889182572E+01  0.151593005E+00  0.104412607E+00
   H -0.376104581E+02 -0.257436797E+01 -0.106206340E+01
   H  0.363410984E+02 -0.114881670E+01 -0.652593637E+00
     4
 # iter = 70000  time[fs]=70.00000
   C -0.933616545E+01  0.421846068E-01  0.477297367E+00
   C  0.899122578E+01  0.153247523E+00  0.105057461E+00
   H -0.379818846E+02 -0.259961798E+01 -0.107280465E+01
   H  0.366986638E+02 -0.116013700E+01 -0.659116884E+00
     4
 # iter = 70500  time[fs]=70.50000
   C -0.943940255E+01  0.427539320E-01  0.482182658E+00
   C  0.909068077E+01  0.154902644E+00  0.105701285E+00
   H -0.383533746E+02 -0.262487286E+01 -0.108354859E+01
   H  0.370562968E+02 -0.117145974E+01 -0.665641744E+00
     4
 # iter = 71000  time[fs]=71.00000
   C -0.954269371E+01  0.433232659E-01  0.487069306E+00
   C  0.919018947E+01  0.156558353E+00  0.106344103E+00
   H -0.387249268E+02 -0.265013252E+01 -0.109429515E+01
   H  0.374139962E+02 -0.118278488E+01 -0.672168184E+00
     4
 # iter = 71500  time[fs]=71.50000
   C -0.964603775E+01  0.438926100E-01  0.491957284E+00
   C  0.928975072E+01  0.158214640E+00  0.106985936E+00
   H -0.390965400E+02 -0.267539687E+01 -0.110504429E+01
   H  0.377717607E+02 -0.119411238E+01 -0.678696177E+00
     4
 # iter = 72000  time[fs]=72.00000
   C -0.974943355E+01  0.444619658E-01  0.496846563E+00
   C  0.938936338E+01  0.159871491E+00  0.107626805E+00
   H -0.394682131E+02 -0.270066582E+01 -0.111579596E+01
   H  0.381295891E+02 -0.120544219E+01 -0.685225694E+00
     4
 # iter = 72500  time[fs]=72.50000
   C -0.985288000E+01  0.450313343E-01  0.501737118E+00
   C  0.948902638E+01  0.161528896E+00  0.108266731E+00
   H -0.398399451E+02 -0.272593930E+01 -0.112655012E+01
   H  0.384874802E+02 -0.121677427E+01 -0.691756707E+00
     4
 # iter = 73000  time[fs]=73.00000
   C -0.995637604E+01  0.456007168E-01  0.506628923E+00
   C  0.958873863E+01  0.163186843E+00  0.108905732E+00
   H -0.402117348E+02 -0.275121721E+01 -0.113730673E+01
   H  0.388454330E+02 -0.122810858E+01 -0.698289189E+00
     4
 # iter = 73500  time[fs]=73.50000
   C -0.100599206E+02  0.461701144E-01  0.511521953E+00
   C  0.968849913E+01  0.164845321E+00  0.109543830E+00
   H -0.405835812E+02 -0.277649949E+01 -0.114806574E+01
   H  0.392034462E+02 -0.123944509E+01 -0.704823115E+00
     4
 # iter = 74000  time[fs]=74.00000
   C -0.101635128E+02  0.467395281E-01  0.516416184E+00
   C  0.978830686E+01  0.166504320E+00  0.110181041E+00
   H -0.409554832E+02 -0.280178606E+01 -0.115882711E+01
   H  0.395615189E+02 -0.125078375E+01 -0.711358457E+00
     4
 # iter = 74500  time[fs]=74.50000
   C -0.102671515E+02  0.473089590E-01  0.521311593E+00
   C  0.988816087E+01  0.168163830E+00  0.110817384E+00
   H -0.413274400E+02 -0.282707684E+01 -0.116959080E+01
   H  0.399196500E+02 -0.126212454E+01 -0.717895193E+00
     4
 # iter = 75000  time[fs]=75.00000
   C -0.103708359E+02  0.478784078E-01  0.526208156E+00
   C  0.998806021E+01  0.169823841E+00  0.111452876E+00
   H -0.416994505E+02 -0.285237176E+01 -0.118035677E+01
   H  0.402778384E+02 -0.127346741E+01 -0.724433297E+00
     4
 # iter = 75500  time[fs]=75.50000
   C -0.104745650E+02  0.484478755E-01  0.531105852E+00
   C  0.100880040E+02  0.171484342E+00  0.112087535E+00
   H -0.420715139E+02 -0.287767075E+01 -0.119112498E+01
   H  0.406360832E+02 -0.128481232E+01 -0.730972746E+00
     4
 # iter = 76000  time[fs]=76.00000
   C -0.105783379E+02  0.490173629E-01  0.536004660E+00
   C  0.101879913E+02  0.173145325E+00  0.112721377E+00
   H -0.424436291E+02 -0.290297374E+01 -0.120189541E+01
   H  0.409943834E+02 -0.129615925E+01 -0.737513517E+00
     4
 # iter = 76500  time[fs]=76.50000
   C -0.106821538E+02  0.495868707E-01  0.540904557E+00
   C  0.102880213E+02  0.174806781E+00  0.113354417E+00
   H -0.428157953E+02 -0.292828067E+01 -0.121266800E+01
   H  0.413527380E+02 -0.130750816E+01 -0.744055588E+00
     4
 # iter = 77000  time[fs]=77.00000
   C -0.107860118E+02  0.501563997E-01  0.545805524E+00
   C  0.103880932E+02  0.176468700E+00  0.113986672E+00
   H -0.431880117E+02 -0.295359146E+01 -0.122344272E+01
   H  0.417111462E+02 -0.131885903E+01 -0.750598936E+00
     4
 # iter = 77500  time[fs]=77.50000
   C -0.108899112E+02  0.507259504E-01  0.550707542E+00
   C  0.104882061E+02  0.178131074E+00  0.114618157E+00
   H -0.435602773E+02 -0.297890606E+01 -0.123421955E+01
   H  0.420696070E+02 -0.133021181E+01 -0.757143541E+00
     4
 # iter = 78000  time[fs]=78.00000
   C -0.109938511E+02  0.512955235E-01  0.555610590E+00
   C  0.105883592E+02  0.179793895E+00  0.115248885E+00
   H -0.439325915E+02 -0.300422440E+01 -0.124499844E+01
   H  0.424281196E+02 -0.134156647E+01 -0.763689382E+00
     4
 # iter = 78500  time[fs]=78.50000
   C -0.110978307E+02  0.518651195E-01  0.560514651E+00
   C  0.106885519E+02  0.181457155E+00  0.115878872E+00
   H -0.443049533E+02 -0.302954642E+01 -0.125577936E+01
   H  0.427866830E+02 -0.135292299E+01 -0.770236438E+00
     4
 # iter = 79000  time[fs]=79.00000
   C -0.112018494E+02  0.524347391E-01  0.565419706E+00
   C  0.107887833E+02  0.183120845E+00  0.116508132E+00
   H -0.446773620E+02 -0.305487207E+01 -0.126656229E+01
   H  0.431452966E+02 -0.136428134E+01 -0.776784690E+00
     4
 # iter = 79500  time[fs]=79.50000
   C -0.113059064E+02  0.530043826E-01  0.570325737E+00
   C  0.108890527E+02  0.184784959E+00  0.117136677E+00
   H -0.450498168E+02 -0.308020128E+01 -0.127734718E+01
   H  0.435039594E+02 -0.137564149E+01 -0.783334119E+00
     4
 # iter = 80000  time[fs]=80.00000
   C -0.114100009E+02  0.535740506E-01  0.575232727E+00
   C  0.109893595E+02  0.186449487E+00  0.117764521E+00
   H -0.454223170E+02 -0.310553399E+01 -0.128813401E+01
   H  0.438626707E+02 -0.138700341E+01 -0.789884705E+00
