     4
 # iter = 25000  time[fs]=25.00000
   C -0.100360496E+01 -0.144546602E-01 -0.134713777E-01
   C  0.956339024E+00 -0.108693747E-01 -0.243555035E-01
   H -0.525396850E+01  0.987796403E-01  0.482662081E+00
   H  0.515914332E+01 -0.361936908E+00 -0.408284595E+00
     4
 # iter = 25500  time[fs]=25.50000
   C -0.105079472E+01 -0.162469223E-01 -0.159608873E-01
   C  0.994439983E+00 -0.105856181E-01 -0.245928976E-01
   H -0.559468149E+01  0.984500848E-01  0.506795525E+00
   H  0.546506534E+01 -0.391040492E+00 -0.442104687E+00
     4
 # iter = 26000  time[fs]=26.00000
   C -0.110203351E+01 -0.190128817E-01 -0.194138270E-01
   C  0.103465698E+01 -0.112437966E-01 -0.257973434E-01
   H -0.594351295E+01  0.927878835E-01  0.525806611E+00
   H  0.576837193E+01 -0.425753598E+00 -0.481566397E+00
     4
 # iter = 26500  time[fs]=26.50000
   C -0.115419181E+01 -0.198789477E-01 -0.209580616E-01
   C  0.107959809E+01 -0.997948718E-02 -0.251011381E-01
   H -0.628407258E+01  0.978613882E-01  0.555739173E+00
   H  0.608486183E+01 -0.449960686E+00 -0.510551558E+00
     4
 # iter = 27000  time[fs]=27.00000
   C -0.120688911E+01 -0.187041354E-01 -0.204539736E-01
   C  0.112916676E+01 -0.665084112E-02 -0.223596063E-01
   H -0.661530800E+01  0.114459599E+00  0.597362289E+00
   H  0.641507285E+01 -0.462846765E+00 -0.528242767E+00
     4
 # iter = 27500  time[fs]=27.50000
   C -0.126204373E+01 -0.176285041E-01 -0.200428710E-01
   C  0.118101273E+01 -0.338865466E-02 -0.197011187E-01
   H -0.694896813E+01  0.130616314E+00  0.638693415E+00
   H  0.674680311E+01 -0.476369632E+00 -0.546595601E+00
     4
 # iter = 28000  time[fs]=28.00000
   C -0.132096678E+01 -0.181661481E-01 -0.212399316E-01
   C  0.123342694E+01 -0.170083237E-02 -0.186314918E-01
   H -0.729333330E+01  0.137864183E+00  0.671251169E+00
   H  0.707138515E+01 -0.498987446E+00 -0.574066244E+00
     4
 # iter = 28500  time[fs]=28.50000
   C -0.138286241E+01 -0.197057060E-01 -0.234347034E-01
   C  0.128683442E+01 -0.978766596E-03 -0.185403158E-01
   H -0.764482130E+01  0.139619594E+00  0.698439499E+00
   H  0.739207835E+01 -0.527264081E+00 -0.607216840E+00
     4
 # iter = 29000  time[fs]=29.00000
   C -0.144606308E+01 -0.207467964E-01 -0.251275702E-01
   C  0.134256223E+01  0.271292342E-03 -0.179322885E-01
   H -0.799489908E+01  0.144269274E+00  0.728634153E+00
   H  0.771714081E+01 -0.552789690E+00 -0.637636014E+00
     4
 # iter = 29500  time[fs]=29.50000
   C -0.150989921E+01 -0.207711065E-01 -0.258008748E-01
   C  0.140097508E+01  0.256473784E-02 -0.162906845E-01
   H -0.834054525E+01  0.154707671E+00  0.764720077E+00
   H  0.804934810E+01 -0.572654525E+00 -0.662412631E+00
     4
 # iter = 30000  time[fs]=30.00000
   C -0.157496035E+01 -0.205049022E-01 -0.261814465E-01
   C  0.146121277E+01  0.517722123E-02 -0.143387101E-01
   H -0.868571548E+01  0.166869237E+00  0.802623508E+00
   H  0.838452070E+01 -0.590917989E+00 -0.685604828E+00
     4
 # iter = 30500  time[fs]=30.50000
   C -0.164193323E+01 -0.207582607E-01 -0.270798402E-01
   C  0.152234486E+01  0.730082021E-02 -0.128833037E-01
   H -0.903484727E+01  0.176219727E+00  0.837802978E+00
   H  0.871802198E+01 -0.612109908E+00 -0.711741282E+00
     4
 # iter = 31000  time[fs]=31.00000
   C -0.171071755E+01 -0.215420757E-01 -0.285073476E-01
   C  0.158424879E+01  0.892353478E-02 -0.119356138E-01
   H -0.938791898E+01  0.182694152E+00  0.870187025E+00
   H  0.904970104E+01 -0.636286918E+00 -0.740877596E+00
     4
 # iter = 31500  time[fs]=31.50000
   C -0.178068398E+01 -0.223272744E-01 -0.299352272E-01
   C  0.164735058E+01  0.105711435E-01 -0.109691233E-01
   H -0.974189807E+01  0.189247174E+00  0.902724488E+00
   H  0.938243984E+01 -0.660483544E+00 -0.770047362E+00
     4
 # iter = 32000  time[fs]=32.00000
   C -0.185141387E+01 -0.227856639E-01 -0.310355632E-01
   C  0.171188587E+01  0.125693541E-01 -0.965748284E-02
   H -0.100948835E+02  0.197710071E+00  0.937241427E+00
   H  0.971800351E+01 -0.682859732E+00 -0.797409678E+00
     4
 # iter = 32500  time[fs]=32.50000
   C -0.192296379E+01 -0.230556261E-01 -0.319469718E-01
   C  0.177763436E+01  0.147791915E-01 -0.813910979E-02
   H -0.104475908E+02  0.207304942E+00  0.972955277E+00
   H  0.100555516E+02 -0.704188196E+00 -0.823736481E+00
     4
 # iter = 33000  time[fs]=33.00000
   C -0.199554565E+01 -0.234230438E-01 -0.329555323E-01
   C  0.184423664E+01  0.169148023E-01 -0.669937034E-02
   H -0.108015665E+02  0.216429176E+00  0.100825923E+01
   H  0.103934237E+02 -0.726067862E+00 -0.850625983E+00
     4
 # iter = 33500  time[fs]=33.50000
   C -0.206917579E+01 -0.239712737E-01 -0.341447656E-01
   C  0.191154199E+01  0.188920844E-01 -0.542193976E-02
   H -0.111572295E+02  0.224612990E+00  0.104267969E+01
   H  0.107310990E+02 -0.748964067E+00 -0.878542866E+00
     4
 # iter = 34000  time[fs]=34.00000
   C -0.214367077E+01 -0.245776619E-01 -0.353921539E-01
   C  0.197961108E+01  0.208321632E-01 -0.418531736E-02
   H -0.115138509E+02  0.232538901E+00  0.107689572E+01
   H  0.110692149E+02 -0.772189006E+00 -0.906798727E+00
     4
 # iter = 34500  time[fs]=34.50000
   C -0.221885545E+01 -0.251222915E-01 -0.365778934E-01
   C  0.204850745E+01  0.228534853E-01 -0.287072573E-02
   H -0.118707212E+02  0.240874279E+00  0.111157151E+01
   H  0.114083978E+02 -0.795070439E+00 -0.934720776E+00
     4
 # iter = 35000  time[fs]=35.00000
   C -0.229468108E+01 -0.256066811E-01 -0.377035967E-01
   C  0.211817866E+01  0.249535976E-01 -0.148032553E-02
   H -0.122278135E+02  0.249607516E+00  0.114669257E+01
   H  0.117485978E+02 -0.817616219E+00 -0.962316356E+00
     4
 # iter = 35500  time[fs]=35.50000
   C -0.237116973E+01 -0.260987171E-01 -0.388372284E-01
   C  0.218851066E+01  0.270639937E-01 -0.823639859E-04
   H -0.125854752E+02  0.258356007E+00  0.118187365E+01
   H  0.120893970E+02 -0.840205924E+00 -0.989964574E+00
     4
 # iter = 36000  time[fs]=36.00000
   C -0.244831632E+01 -0.266351749E-01 -0.400156284E-01
   C  0.225942438E+01  0.291472009E-01  0.128591655E-02
   H -0.129438824E+02  0.266911315E+00  0.121690388E+01
   H  0.124305544E+02 -0.863045046E+00 -0.101787049E+01
     4
 # iter = 36500  time[fs]=36.50000
   C -0.252606596E+01 -0.271994294E-01 -0.412222243E-01
   C  0.233089753E+01  0.312189787E-01  0.264048104E-02
   H -0.133029150E+02  0.275363816E+00  0.125187142E+01
   H  0.127721311E+02 -0.886040179E+00 -0.104594028E+01
     4
 # iter = 37000  time[fs]=37.00000
   C -0.260435467E+01 -0.277625864E-01 -0.424281648E-01
   C  0.240292328E+01  0.333073504E-01  0.400953661E-02
   H -0.136623864E+02  0.283872652E+00  0.128693332E+01
   H  0.131142589E+02 -0.909029299E+00 -0.107401156E+01
     4
 # iter = 37500  time[fs]=37.50000
   C -0.268314290E+01 -0.283172772E-01 -0.436261159E-01
   C  0.247547626E+01  0.354189434E-01  0.539987529E-02
   H -0.140222324E+02  0.292476719E+00  0.132212658E+01
   H  0.134569516E+02 -0.931970961E+00 -0.110204253E+01
     4
 # iter = 38000  time[fs]=38.00000
   C -0.276241147E+01 -0.288739347E-01 -0.448265383E-01
   C  0.254851600E+01  0.375426953E-01  0.680058254E-02
   H -0.143824900E+02  0.301115491E+00  0.135738890E+01
   H  0.138001253E+02 -0.954923441E+00 -0.113009113E+01
     4
 # iter = 38500  time[fs]=38.50000
   C -0.284214210E+01 -0.294415080E-01 -0.460384031E-01
   C  0.262200586E+01  0.396690595E-01  0.820224519E-02
   H -0.147431896E+02  0.309736865E+00  0.139266655E+01
   H  0.141437062E+02 -0.977936745E+00 -0.115820708E+01
     4
 # iter = 39000  time[fs]=39.00000
   C -0.292230899E+01 -0.300193667E-01 -0.472610966E-01
   C  0.269592090E+01  0.417980671E-01  0.960501456E-02
   H -0.151043093E+02  0.318342437E+00  0.142795958E+01
   H  0.144876756E+02 -0.100100727E+01 -0.118638647E+01
     4
 # iter = 39500  time[fs]=39.50000
   C -0.300288409E+01 -0.306026645E-01 -0.484897852E-01
   C  0.277024231E+01  0.439339819E-01  0.110132634E-01
   H -0.154658052E+02  0.326957494E+00  0.146329187E+01
   H  0.148320402E+02 -0.102410783E+01 -0.121460187E+01
     4
 # iter = 40000  time[fs]=40.00000
   C -0.308384347E+01 -0.311889707E-01 -0.497220473E-01
   C  0.284495064E+01  0.460786937E-01  0.124289806E-01
   H -0.158276477E+02  0.335593915E+00  0.149867396E+01
   H  0.151767943E+02 -0.104722479E+01 -0.124283938E+01
     4
 # iter = 40500  time[fs]=40.50000
   C -0.316516799E+01 -0.317790574E-01 -0.509586610E-01
   C  0.292002482E+01  0.482309327E-01  0.138509860E-01
   H -0.161898264E+02  0.344245767E+00  0.153409868E+01
   H  0.155219156E+02 -0.107036245E+01 -0.127110307E+01
     4
 # iter = 41000  time[fs]=41.00000
   C -0.324684046E+01 -0.323742106E-01 -0.522009159E-01
   C  0.299544476E+01  0.503889452E-01  0.152776078E-01
   H -0.165523347E+02  0.352904332E+00  0.156955615E+01
   H  0.158673802E+02 -0.109352802E+01 -0.129939993E+01
     4
 # iter = 41500  time[fs]=41.50000
   C -0.332884382E+01 -0.329745478E-01 -0.534489307E-01
   C  0.307119283E+01  0.525521681E-01  0.167083576E-01
   H -0.169151604E+02  0.361567516E+00  0.160504320E+01
   H  0.162131716E+02 -0.111672215E+01 -0.132773040E+01
     4
 # iter = 42000  time[fs]=42.00000
   C -0.341116141E+01 -0.335793959E-01 -0.547020320E-01
   C  0.314725340E+01  0.547208497E-01  0.181435522E-01
   H -0.172782876E+02  0.370237725E+00  0.164056119E+01
   H  0.165592788E+02 -0.113994110E+01 -0.135609054E+01
     4
 # iter = 42500  time[fs]=42.50000
   C -0.349377780E+01 -0.341882095E-01 -0.559596725E-01
   C  0.322361184E+01  0.568951349E-01  0.195833990E-01
   H -0.176417019E+02  0.378916726E+00  0.167611095E+01
   H  0.169056910E+02 -0.116318182E+01 -0.138447712E+01
     4
 # iter = 43000  time[fs]=43.00000
   C -0.357667894E+01 -0.348008472E-01 -0.572217074E-01
   C  0.330025411E+01  0.590747876E-01  0.210277194E-01
   H -0.180053918E+02  0.387604097E+00  0.171169115E+01
   H  0.172523959E+02 -0.118644355E+01 -0.141288921E+01
     4
 # iter = 43500  time[fs]=43.50000
   C -0.365985186E+01 -0.354173159E-01 -0.584881395E-01
   C  0.337716695E+01  0.612594442E-01  0.224762028E-01
   H -0.183693475E+02  0.396298652E+00  0.174729974E+01
   H  0.175993811E+02 -0.120972636E+01 -0.144132670E+01
     4
 # iter = 44000  time[fs]=44.00000
   C -0.374328433E+01 -0.360375370E-01 -0.597588848E-01
   C  0.345433805E+01  0.634488455E-01  0.239286386E-01
   H -0.187335589E+02  0.404999743E+00  0.178293528E+01
   H  0.179466354E+02 -0.123302982E+01 -0.146978903E+01
     4
 # iter = 44500  time[fs]=44.50000
   C -0.382696482E+01 -0.366613401E-01 -0.610337671E-01
   C  0.353175595E+01  0.656428412E-01  0.253849216E-01
   H -0.190980162E+02  0.413707295E+00  0.181859693E+01
   H  0.182941489E+02 -0.125635302E+01 -0.149827511E+01
     4
 # iter = 45000  time[fs]=45.00000
   C -0.391088246E+01 -0.372885522E-01 -0.623126070E-01
   C  0.360940995E+01  0.678413003E-01  0.268449622E-01
   H -0.194627100E+02  0.422421298E+00  0.185428398E+01
   H  0.186419121E+02 -0.127969502E+01 -0.152678388E+01
     4
 # iter = 45500  time[fs]=45.50000
   C -0.399502713E+01 -0.379190410E-01 -0.635952650E-01
   C  0.368728994E+01  0.700440671E-01  0.283086432E-01
   H -0.198276317E+02  0.431141569E+00  0.188999555E+01
   H  0.189899160E+02 -0.130305510E+01 -0.155531449E+01
     4
 # iter = 46000  time[fs]=46.00000
   C -0.407938930E+01 -0.385526990E-01 -0.648816265E-01
   C  0.376538643E+01  0.722509755E-01  0.297758343E-01
   H -0.201927731E+02  0.439867829E+00  0.192573072E+01
   H  0.193381519E+02 -0.132643269E+01 -0.158386623E+01
     4
 # iter = 46500  time[fs]=46.50000
   C -0.416396001E+01 -0.391894208E-01 -0.661715783E-01
   C  0.384369046E+01  0.744618711E-01  0.312464139E-01
   H -0.205581265E+02  0.448599832E+00  0.196148865E+01
   H  0.196866116E+02 -0.134982724E+01 -0.161243844E+01
     4
 # iter = 47000  time[fs]=47.00000
   C -0.424873083E+01 -0.398290985E-01 -0.674650046E-01
   C  0.392219363E+01  0.766766151E-01  0.327202742E-01
   H -0.209236846E+02  0.457337391E+00  0.199726856E+01
   H  0.200352873E+02 -0.137323816E+01 -0.164103041E+01
     4
 # iter = 47500  time[fs]=47.50000
   C -0.433369377E+01 -0.404716266E-01 -0.687617920E-01
   C  0.400088801E+01  0.788950780E-01  0.341973143E-01
   H -0.212894402E+02  0.466080339E+00  0.203306973E+01
   H  0.203841718E+02 -0.139666490E+01 -0.166964148E+01
     4
 # iter = 48000  time[fs]=48.00000
   C -0.441884133E+01 -0.411169067E-01 -0.700618338E-01
   C  0.407976611E+01  0.811171349E-01  0.356774359E-01
   H -0.216553869E+02  0.474828510E+00  0.206889149E+01
   H  0.207332580E+02 -0.142010693E+01 -0.169827102E+01
     4
 # iter = 48500  time[fs]=48.50000
   C -0.450416640E+01 -0.417648466E-01 -0.713650296E-01
   C  0.415882086E+01  0.833426651E-01  0.371605433E-01
   H -0.220215183E+02  0.483581734E+00  0.210473317E+01
   H  0.210825393E+02 -0.144356376E+01 -0.172691845E+01
     4
 # iter = 49000  time[fs]=49.00000
   C -0.458966229E+01 -0.424153586E-01 -0.726712834E-01
   C  0.423804558E+01  0.855715538E-01  0.386465449E-01
   H -0.223878284E+02  0.492339853E+00  0.214059413E+01
   H  0.214320094E+02 -0.146703492E+01 -0.175558319E+01
     4
 # iter = 49500  time[fs]=49.50000
   C -0.467532263E+01 -0.430683584E-01 -0.739805026E-01
   C  0.431743394E+01  0.878036919E-01  0.401353535E-01
   H -0.227543115E+02  0.501102714E+00  0.217647376E+01
   H  0.217816623E+02 -0.149051998E+01 -0.178426472E+01
     4
 # iter = 50000  time[fs]=50.00000
   C -0.476114141E+01 -0.437237656E-01 -0.752925986E-01
   C  0.439697995E+01  0.900389756E-01  0.416268855E-01
   H -0.231209621E+02  0.509870175E+00  0.221237151E+01
   H  0.221314922E+02 -0.151401849E+01 -0.181296252E+01
     4
 # iter = 50500  time[fs]=50.50000
   C -0.484711292E+01 -0.443815035E-01 -0.766074862E-01
   C  0.447667793E+01  0.922773057E-01  0.431210609E-01
   H -0.234877750E+02  0.518642100E+00  0.224828681E+01
   H  0.224814936E+02 -0.153753005E+01 -0.184167610E+01
     4
 # iter = 51000  time[fs]=51.00000
   C -0.493323176E+01 -0.450414986E-01 -0.779250843E-01
   C  0.455652249E+01  0.945185875E-01  0.446178029E-01
   H -0.238547453E+02  0.527418357E+00  0.228421916E+01
   H  0.228316614E+02 -0.156105428E+01 -0.187040499E+01
     4
 # iter = 51500  time[fs]=51.50000
   C -0.501949278E+01 -0.457036811E-01 -0.792453145E-01
   C  0.463650851E+01  0.967627303E-01  0.461170378E-01
   H -0.242218683E+02  0.536198822E+00  0.232016804E+01
   H  0.231819905E+02 -0.158459080E+01 -0.189914874E+01
     4
 # iter = 52000  time[fs]=52.00000
   C -0.510589112E+01 -0.463679841E-01 -0.805681022E-01
   C  0.471663113E+01  0.990096476E-01  0.476186948E-01
   H -0.245891394E+02  0.544983374E+00  0.235613298E+01
   H  0.235324761E+02 -0.160813926E+01 -0.192790693E+01
     4
 # iter = 52500  time[fs]=52.50000
   C -0.519242211E+01 -0.470343436E-01 -0.818933753E-01
   C  0.479688574E+01  0.101259256E+00  0.491227061E-01
   H -0.249565543E+02  0.553771898E+00  0.239211352E+01
   H  0.238831137E+02 -0.163169931E+01 -0.195667915E+01
     4
 # iter = 53000  time[fs]=53.00000
   C -0.527908134E+01 -0.477026981E-01 -0.832210649E-01
   C  0.487726792E+01  0.103511478E+00  0.506290062E-01
   H -0.253241089E+02  0.562564284E+00  0.242810922E+01
   H  0.242338990E+02 -0.165527062E+01 -0.198546500E+01
     4
 # iter = 53500  time[fs]=53.50000
   C -0.536586461E+01 -0.483729892E-01 -0.845511045E-01
   C  0.495777348E+01  0.105766235E+00  0.521375327E-01
   H -0.256917991E+02  0.571360427E+00  0.246411967E+01
   H  0.245848277E+02 -0.167885290E+01 -0.201426411E+01
     4
 # iter = 54000  time[fs]=54.00000
   C -0.545276791E+01 -0.490451604E-01 -0.858834305E-01
   C  0.503839845E+01  0.108023457E+00  0.536482253E-01
   H -0.260596212E+02  0.580160225E+00  0.250014446E+01
   H  0.249358959E+02 -0.170244583E+01 -0.204307612E+01
     4
 # iter = 54500  time[fs]=54.50000
   C -0.553978740E+01 -0.497191581E-01 -0.872179815E-01
   C  0.511913900E+01  0.110283072E+00  0.551610259E-01
   H -0.264275716E+02  0.588963582E+00  0.253618320E+01
   H  0.252870996E+02 -0.172604912E+01 -0.207190067E+01
     4
 # iter = 55000  time[fs]=55.00000
   C -0.562691944E+01 -0.503949303E-01 -0.885546987E-01
   C  0.519999150E+01  0.112545014E+00  0.566758789E-01
   H -0.267956467E+02  0.597770403E+00  0.257223552E+01
   H  0.256384353E+02 -0.174966251E+01 -0.210073744E+01
     4
 # iter = 55500  time[fs]=55.50000
   C -0.571416055E+01 -0.510724277E-01 -0.898935252E-01
   C  0.528095248E+01  0.114809218E+00  0.581927307E-01
   H -0.271638432E+02  0.606580599E+00  0.260830106E+01
   H  0.259898993E+02 -0.177328573E+01 -0.212958611E+01
     4
 # iter = 56000  time[fs]=56.00000
   C -0.580150739E+01 -0.517516024E-01 -0.912344065E-01
   C  0.536201863E+01  0.117075624E+00  0.597115295E-01
   H -0.275321579E+02  0.615394083E+00  0.264437949E+01
   H  0.263414883E+02 -0.179691852E+01 -0.215844636E+01
     4
 # iter = 56500  time[fs]=56.50000
   C -0.588895678E+01 -0.524324089E-01 -0.925772901E-01
   C  0.544318678E+01  0.119344171E+00  0.612322257E-01
   H -0.279005876E+02  0.624210773E+00  0.268047047E+01
   H  0.266931990E+02 -0.182056063E+01 -0.218731792E+01
     4
 # iter = 57000  time[fs]=57.00000
   C -0.597650566E+01 -0.531148031E-01 -0.939221252E-01
   C  0.552445389E+01  0.121614804E+00  0.627547713E-01
   H -0.282691294E+02  0.633030588E+00  0.271657369E+01
   H  0.270450282E+02 -0.184421184E+01 -0.221620048E+01
     4
 # iter = 57500  time[fs]=57.50000
   C -0.606415114E+01 -0.537987428E-01 -0.952688630E-01
   C  0.560581706E+01  0.123887466E+00  0.642791202E-01
   H -0.286377805E+02  0.641853452E+00  0.275268883E+01
   H  0.273969730E+02 -0.186787190E+01 -0.224509377E+01
     4
 # iter = 58000  time[fs]=58.00000
   C -0.615189040E+01 -0.544841874E-01 -0.966174566E-01
   C  0.568727350E+01  0.126162106E+00  0.658052277E-01
   H -0.290065381E+02  0.650679290E+00  0.278881561E+01
   H  0.277490304E+02 -0.189154062E+01 -0.227399754E+01
     4
 # iter = 58500  time[fs]=58.50000
   C -0.623972078E+01 -0.551710977E-01 -0.979678604E-01
   C  0.576882057E+01  0.128438672E+00  0.673330510E-01
   H -0.293753994E+02  0.659508031E+00  0.282495375E+01
   H  0.281011976E+02 -0.191521776E+01 -0.230291153E+01
     4
 # iter = 59000  time[fs]=59.00000
   C -0.632763970E+01 -0.558594362E-01 -0.993200307E-01
   C  0.585045569E+01  0.130717117E+00  0.688625485E-01
   H -0.297443620E+02  0.668339606E+00  0.286110296E+01
   H  0.284534719E+02 -0.193890314E+01 -0.233183548E+01
     4
 # iter = 59500  time[fs]=59.50000
   C -0.641564471E+01 -0.565491666E-01 -0.100673925E+00
   C  0.593217642E+01  0.132997392E+00  0.703936804E-01
   H -0.301134235E+02  0.677173948E+00  0.289726299E+01
   H  0.288058508E+02 -0.196259655E+01 -0.236076918E+01
     4
 # iter = 60000  time[fs]=60.00000
   C -0.650373344E+01 -0.572402539E-01 -0.102029503E+00
   C  0.601398040E+01  0.135279453E+00  0.719264078E-01
   H -0.304825814E+02  0.686010992E+00  0.293343358E+01
   H  0.291583316E+02 -0.198629781E+01 -0.238971238E+01
     4
 # iter = 60500  time[fs]=60.50000
   C -0.659190362E+01 -0.579326646E-01 -0.103386725E+00
   C  0.609586538E+01  0.137563256E+00  0.734606935E-01
   H -0.308518334E+02  0.694850678E+00  0.296961448E+01
   H  0.295109121E+02 -0.201000673E+01 -0.241866487E+01
     4
 # iter = 61000  time[fs]=61.00000
   C -0.668015307E+01 -0.586263661E-01 -0.104745553E+00
   C  0.617782919E+01  0.139848758E+00  0.749965015E-01
   H -0.312211773E+02  0.703692945E+00  0.300580547E+01
   H  0.298635898E+02 -0.203372314E+01 -0.244762644E+01
     4
 # iter = 61500  time[fs]=61.50000
   C -0.676847970E+01 -0.593213272E-01 -0.106105950E+00
   C  0.625986973E+01  0.142135920E+00  0.765337969E-01
   H -0.315906111E+02  0.712537736E+00  0.304200631E+01
   H  0.302163626E+02 -0.205744687E+01 -0.247659687E+01
     4
 # iter = 62000  time[fs]=62.00000
   C -0.685688147E+01 -0.600175176E-01 -0.107467881E+00
   C  0.634198500E+01  0.144424701E+00  0.780725459E-01
   H -0.319601325E+02  0.721384993E+00  0.307821677E+01
   H  0.305692282E+02 -0.208117775E+01 -0.250557598E+01
     4
 # iter = 62500  time[fs]=62.50000
   C -0.694535647E+01 -0.607149083E-01 -0.108831310E+00
   C  0.642417308E+01  0.146715065E+00  0.796127160E-01
   H -0.323297398E+02  0.730234664E+00  0.311443666E+01
   H  0.309221845E+02 -0.210491563E+01 -0.253456357E+01
     4
 # iter = 63000  time[fs]=63.00000
   C -0.703390281E+01 -0.614134710E-01 -0.110196206E+00
   C  0.650643209E+01  0.149006974E+00  0.811542756E-01
   H -0.326994308E+02  0.739086695E+00  0.315066575E+01
   H  0.312752295E+02 -0.212866034E+01 -0.256355945E+01
     4
 # iter = 63500  time[fs]=63.50000
   C -0.712251870E+01 -0.621131785E-01 -0.111562535E+00
   C  0.658876026E+01  0.151300392E+00  0.826971942E-01
   H -0.330692038E+02  0.747941036E+00  0.318690385E+01
   H  0.316283612E+02 -0.215241175E+01 -0.259256345E+01
     4
 # iter = 64000  time[fs]=64.00000
   C -0.721120240E+01 -0.628140046E-01 -0.112930266E+00
   C  0.667115585E+01  0.153595287E+00  0.842414423E-01
   H -0.334390570E+02  0.756797639E+00  0.322315077E+01
   H  0.319815778E+02 -0.217616971E+01 -0.262157539E+01
     4
 # iter = 64500  time[fs]=64.50000
   C -0.729995225E+01 -0.635159238E-01 -0.114299370E+00
   C  0.675361720E+01  0.155891624E+00  0.857869911E-01
   H -0.338089886E+02  0.765656455E+00  0.325940632E+01
   H  0.323348774E+02 -0.219993408E+01 -0.265059510E+01
     4
 # iter = 65000  time[fs]=65.00000
   C -0.738876663E+01 -0.642189117E-01 -0.115669817E+00
   C  0.683614272E+01  0.158189373E+00  0.873338130E-01
   H -0.341789970E+02  0.774517438E+00  0.329567032E+01
   H  0.326882582E+02 -0.222370472E+01 -0.267962242E+01
     4
 # iter = 65500  time[fs]=65.50000
   C -0.747764399E+01 -0.649229443E-01 -0.117041578E+00
   C  0.691873085E+01  0.160488501E+00  0.888818812E-01
   H -0.345490804E+02  0.783380545E+00  0.333194258E+01
   H  0.330417184E+02 -0.224748150E+01 -0.270865719E+01
     4
 # iter = 66000  time[fs]=66.00000
   C -0.756658283E+01 -0.656279988E-01 -0.118414626E+00
   C  0.700138010E+01  0.162788979E+00  0.904311694E-01
   H -0.349192374E+02  0.792245730E+00  0.336822295E+01
   H  0.333952565E+02 -0.227126430E+01 -0.273769926E+01
     4
 # iter = 66500  time[fs]=66.50000
   C -0.765558170E+01 -0.663340527E-01 -0.119788934E+00
   C  0.708408904E+01  0.165090778E+00  0.919816526E-01
   H -0.352894664E+02  0.801112954E+00  0.340451126E+01
   H  0.337488708E+02 -0.229505300E+01 -0.276674848E+01
     4
 # iter = 67000  time[fs]=67.00000
   C -0.774463921E+01 -0.670410847E-01 -0.121164477E+00
   C  0.716685626E+01  0.167393870E+00  0.935333062E-01
   H -0.356597659E+02  0.809982175E+00  0.344080734E+01
   H  0.341025598E+02 -0.231884747E+01 -0.279580470E+01
     4
 # iter = 67500  time[fs]=67.50000
   C -0.783375400E+01 -0.677490738E-01 -0.122541230E+00
   C  0.724968043E+01  0.169698227E+00  0.950861063E-01
   H -0.360301345E+02  0.818853353E+00  0.347711104E+01
   H  0.344563218E+02 -0.234264760E+01 -0.282486779E+01
     4
 # iter = 68000  time[fs]=68.00000
   C -0.792292476E+01 -0.684579997E-01 -0.123919168E+00
   C  0.733256025E+01  0.172003824E+00  0.966400301E-01
   H -0.364005708E+02  0.827726451E+00  0.351342221E+01
   H  0.348101555E+02 -0.236645327E+01 -0.285393762E+01
     4
 # iter = 68500  time[fs]=68.50000
   C -0.801215024E+01 -0.691678429E-01 -0.125298267E+00
   C  0.741549446E+01  0.174310634E+00  0.981950550E-01
   H -0.367710734E+02  0.836601430E+00  0.354974070E+01
   H  0.351640594E+02 -0.239026439E+01 -0.288301404E+01
     4
 # iter = 69000  time[fs]=69.00000
   C -0.810142921E+01 -0.698785843E-01 -0.126678505E+00
   C  0.749848184E+01  0.176618633E+00  0.997511594E-01
   H -0.371416410E+02  0.845478255E+00  0.358606638E+01
   H  0.355180321E+02 -0.241408084E+01 -0.291209693E+01
     4
 # iter = 69500  time[fs]=69.50000
   C -0.819076050E+01 -0.705902055E-01 -0.128059859E+00
   C  0.758152123E+01  0.178927797E+00  0.101308322E+00
   H -0.375122723E+02  0.854356891E+00  0.362239910E+01
   H  0.358720723E+02 -0.243790252E+01 -0.294118617E+01
     4
 # iter = 70000  time[fs]=70.00000
   C -0.828014295E+01 -0.713026886E-01 -0.129442307E+00
   C  0.766461148E+01  0.181238102E+00  0.102866523E+00
   H -0.378829662E+02  0.863237304E+00  0.365873873E+01
   H  0.362261787E+02 -0.246172933E+01 -0.297028164E+01
     4
 # iter = 70500  time[fs]=70.50000
   C -0.836957546E+01 -0.720160162E-01 -0.130825830E+00
   C  0.774775149E+01  0.183549527E+00  0.104425741E+00
   H -0.382537214E+02  0.872119461E+00  0.369508513E+01
   H  0.365803500E+02 -0.248556118E+01 -0.299938322E+01
     4
 # iter = 71000  time[fs]=71.00000
   C -0.845905696E+01 -0.727301715E-01 -0.132210405E+00
   C  0.783094019E+01  0.185862047E+00  0.105985958E+00
   H -0.386245367E+02  0.881003328E+00  0.373143819E+01
   H  0.369345849E+02 -0.250939796E+01 -0.302849079E+01
     4
 # iter = 71500  time[fs]=71.50000
   C -0.854858642E+01 -0.734451382E-01 -0.133596014E+00
   C  0.791417656E+01  0.188175644E+00  0.107547154E+00
   H -0.389954110E+02  0.889888876E+00  0.376779778E+01
   H  0.372888822E+02 -0.253323960E+01 -0.305760425E+01
     4
 # iter = 72000  time[fs]=72.00000
   C -0.863816281E+01 -0.741609003E-01 -0.134982638E+00
   C  0.799745958E+01  0.190490295E+00  0.109109312E+00
   H -0.393663431E+02  0.898776073E+00  0.380416378E+01
   H  0.376432409E+02 -0.255708600E+01 -0.308672349E+01
     4
 # iter = 72500  time[fs]=72.50000
   C -0.872778517E+01 -0.748774425E-01 -0.136370256E+00
   C  0.808078830E+01  0.192805980E+00  0.110672414E+00
   H -0.397373322E+02  0.907664889E+00  0.384053608E+01
   H  0.379976597E+02 -0.258093706E+01 -0.311584840E+01
     4
 # iter = 73000  time[fs]=73.00000
   C -0.881745256E+01 -0.755947496E-01 -0.137758851E+00
   C  0.816416177E+01  0.195122681E+00  0.112236441E+00
   H -0.401083770E+02  0.916555297E+00  0.387691455E+01
   H  0.383521376E+02 -0.260479272E+01 -0.314497888E+01
     4
 # iter = 73500  time[fs]=73.50000
   C -0.890716404E+01 -0.763128073E-01 -0.139148406E+00
   C  0.824757907E+01  0.197440377E+00  0.113801379E+00
   H -0.404794765E+02  0.925447267E+00  0.391329909E+01
   H  0.387066734E+02 -0.262865289E+01 -0.317411483E+01
     4
 # iter = 74000  time[fs]=74.00000
   C -0.899691874E+01 -0.770316012E-01 -0.140538902E+00
   C  0.833103932E+01  0.199759050E+00  0.115367209E+00
   H -0.408506298E+02  0.934340773E+00  0.394968960E+01
   H  0.390612662E+02 -0.265251748E+01 -0.320325616E+01
     4
 # iter = 74500  time[fs]=74.50000
   C -0.908671579E+01 -0.777511176E-01 -0.141930323E+00
   C  0.841454166E+01  0.202078683E+00  0.116933916E+00
   H -0.412218360E+02  0.943235788E+00  0.398608596E+01
   H  0.394159149E+02 -0.267638642E+01 -0.323240277E+01
     4
 # iter = 75000  time[fs]=75.00000
   C -0.917655435E+01 -0.784713431E-01 -0.143322653E+00
   C  0.849808525E+01  0.204399257E+00  0.118501484E+00
   H -0.415930940E+02  0.952132285E+00  0.402248808E+01
   H  0.397706185E+02 -0.270025964E+01 -0.326155457E+01
     4
 # iter = 75500  time[fs]=75.50000
   C -0.926643360E+01 -0.791922647E-01 -0.144715876E+00
   C  0.858166929E+01  0.206720757E+00  0.120069899E+00
   H -0.419644030E+02  0.961030240E+00  0.405889586E+01
   H  0.401253761E+02 -0.272413705E+01 -0.329071147E+01
     4
 # iter = 76000  time[fs]=76.00000
   C -0.935635276E+01 -0.799138697E-01 -0.146109976E+00
   C  0.866529299E+01  0.209043164E+00  0.121639145E+00
   H -0.423357621E+02  0.969929627E+00  0.409530919E+01
   H  0.404801868E+02 -0.274801860E+01 -0.331987338E+01
     4
 # iter = 76500  time[fs]=76.50000
   C -0.944631105E+01 -0.806361457E-01 -0.147504937E+00
   C  0.874895558E+01  0.211366463E+00  0.123209208E+00
   H -0.427071704E+02  0.978830423E+00  0.413172799E+01
   H  0.408350495E+02 -0.277190420E+01 -0.334904022E+01
     4
 # iter = 77000  time[fs]=77.00000
   C -0.953630773E+01 -0.813590807E-01 -0.148900746E+00
   C  0.883265633E+01  0.213690638E+00  0.124780074E+00
   H -0.430786271E+02  0.987732605E+00  0.416815217E+01
   H  0.411899635E+02 -0.279579379E+01 -0.337821191E+01
     4
 # iter = 77500  time[fs]=77.50000
   C -0.962634206E+01 -0.820826631E-01 -0.150297387E+00
   C  0.891639450E+01  0.216015674E+00  0.126351730E+00
   H -0.434501314E+02  0.996636148E+00  0.420458163E+01
   H  0.415449278E+02 -0.281968731E+01 -0.340738836E+01
     4
 # iter = 78000  time[fs]=78.00000
   C -0.971641336E+01 -0.828068814E-01 -0.151694847E+00
   C  0.900016939E+01  0.218341555E+00  0.127924162E+00
   H -0.438216823E+02  0.100554103E+01  0.424101629E+01
   H  0.418999416E+02 -0.284358469E+01 -0.343656950E+01
     4
 # iter = 78500  time[fs]=78.50000
   C -0.980652092E+01 -0.835317245E-01 -0.153093112E+00
   C  0.908398033E+01  0.220668268E+00  0.129497357E+00
   H -0.441932793E+02  0.101444723E+01  0.427745606E+01
   H  0.422550041E+02 -0.286748586E+01 -0.346575525E+01
     4
 # iter = 79000  time[fs]=79.00000
   C -0.989666408E+01 -0.842571816E-01 -0.154492168E+00
   C  0.916782664E+01  0.222995798E+00  0.131071302E+00
   H -0.445649215E+02  0.102335473E+01  0.431390086E+01
   H  0.426101145E+02 -0.289139077E+01 -0.349494553E+01
     4
 # iter = 79500  time[fs]=79.50000
   C -0.998684218E+01 -0.849832421E-01 -0.155892003E+00
   C  0.925170769E+01  0.225324132E+00  0.132645985E+00
   H -0.449366081E+02  0.103226351E+01  0.435035061E+01
   H  0.429652719E+02 -0.291529935E+01 -0.352414028E+01
     4
 # iter = 80000  time[fs]=80.00000
   C -0.100770546E+02 -0.857098958E-01 -0.157292604E+00
   C  0.933562283E+01  0.227653255E+00  0.134221394E+00
   H -0.453083385E+02  0.104117354E+01  0.438680522E+01
   H  0.433204757E+02 -0.293921154E+01 -0.355333942E+01
