     4
 # iter = 25000  time[fs]=25.00000
   C -0.101434866E+01  0.145367848E-01  0.711499199E-02
   C  0.935628544E+00 -0.557729410E-01  0.321164180E-01
   H -0.532066500E+01  0.470162996E+00 -0.327370907E+00
   H  0.525067676E+01 -0.303142064E+00 -0.371614950E+00
     4
 # iter = 25500  time[fs]=25.50000
   C -0.106222823E+01  0.124969115E-01  0.724765204E-02
   C  0.972381250E+00 -0.575203739E-01  0.335840258E-01
   H -0.565972539E+01  0.491719238E+00 -0.355332275E+00
   H  0.555529650E+01 -0.328267245E+00 -0.402254978E+00
     4
 # iter = 26000  time[fs]=26.00000
   C -0.111391853E+01  0.953330693E-02  0.634586442E-02
   C  0.101101715E+01 -0.602769003E-01  0.341924519E-01
   H -0.600684442E+01  0.508123889E+00 -0.388867739E+00
   H  0.585719703E+01 -0.358955331E+00 -0.438505748E+00
     4
 # iter = 26500  time[fs]=26.50000
   C -0.116617733E+01  0.864876042E-02  0.742443897E-02
   C  0.105402480E+01 -0.613113673E-01  0.366563675E-01
   H -0.634563261E+01  0.535434481E+00 -0.411871087E+00
   H  0.617219570E+01 -0.379094727E+00 -0.464250815E+00
     4
 # iter = 27000  time[fs]=27.00000
   C -0.121864219E+01  0.998286643E-02  0.106338273E-01
   C  0.110132506E+01 -0.604790160E-01  0.411060195E-01
   H -0.667504641E+01  0.574423236E+00 -0.423530534E+00
   H  0.650084418E+01 -0.387875048E+00 -0.478675497E+00
     4
 # iter = 27500  time[fs]=27.50000
   C -0.127335811E+01  0.112852761E-01  0.137333941E-01
   C  0.115069873E+01 -0.597941551E-01  0.455143646E-01
   H -0.700685038E+01  0.613102036E+00 -0.435801777E+00
   H  0.683095076E+01 -0.397259216E+00 -0.493738884E+00
     4
 # iter = 28000  time[fs]=28.00000
   C -0.133173079E+01  0.109624153E-01  0.151381489E-01
   C  0.120053442E+01 -0.606805973E-01  0.484464060E-01
   H -0.734933657E+01  0.642985841E+00 -0.457141922E+00
   H  0.715385628E+01 -0.415709546E+00 -0.517900023E+00
     4
 # iter = 28500  time[fs]=28.50000
   C -0.139295447E+01  0.964903019E-02  0.154903663E-01
   C  0.125124571E+01 -0.625533115E-01  0.504773450E-01
   H -0.769892529E+01  0.667482327E+00 -0.484118374E+00
   H  0.747282777E+01 -0.439792434E+00 -0.547722608E+00
     4
 # iter = 29000  time[fs]=29.00000
   C -0.145530689E+01  0.891224702E-02  0.163637735E-01
   C  0.130410144E+01 -0.639875667E-01  0.530232812E-01
   H -0.804708169E+01  0.694973953E+00 -0.508326603E+00
   H  0.779613006E+01 -0.461099682E+00 -0.574796149E+00
     4
 # iter = 29500  time[fs]=29.50000
   C -0.151810923E+01  0.929044352E-02  0.183025540E-01
   C  0.135945579E+01 -0.644882959E-01  0.565717117E-01
   H -0.839078558E+01  0.728348656E+00 -0.526859542E+00
   H  0.812654405E+01 -0.476723358E+00 -0.596210674E+00
     4
 # iter = 30000  time[fs]=30.00000
   C -0.158200009E+01  0.100180611E-01  0.205462619E-01
   C  0.141649907E+01 -0.647382135E-01  0.604332782E-01
   H -0.873399786E+01  0.763531041E+00 -0.543776067E+00
   H  0.845989413E+01 -0.490725044E+00 -0.616025910E+00
     4
 # iter = 30500  time[fs]=30.50000
   C -0.164771773E+01  0.102421605E-01  0.222464534E-01
   C  0.147435400E+01 -0.654999448E-01  0.638395097E-01
   H -0.908116118E+01  0.795977585E+00 -0.563605159E+00
   H  0.879154686E+01 -0.507636567E+00 -0.638772023E+00
     4
 # iter = 31000  time[fs]=31.00000
   C -0.171517344E+01  0.994784623E-02  0.233921819E-01
   C  0.153290958E+01 -0.667808685E-01  0.667778690E-01
   H -0.943225575E+01  0.825617537E+00 -0.586404511E+00
   H  0.912135438E+01 -0.527515989E+00 -0.664505617E+00
     4
 # iter = 31500  time[fs]=31.50000
   C -0.178372222E+01  0.968653025E-02  0.245383327E-01
   C  0.159257485E+01 -0.680781647E-01  0.697466136E-01
   H -0.978424858E+01  0.855402300E+00 -0.609210944E+00
   H  0.945220148E+01 -0.547398839E+00 -0.690260930E+00
     4
 # iter = 32000  time[fs]=32.00000
   C -0.185293825E+01  0.979939715E-02  0.260291557E-01
   C  0.165357754E+01 -0.690793546E-01  0.730541804E-01
   H -0.101352387E+02  0.887159710E+00 -0.630186067E+00
   H  0.978585569E+01 -0.565446025E+00 -0.714197705E+00
     4
 # iter = 32500  time[fs]=32.50000
   C -0.192289248E+01  0.101388889E-01  0.277198060E-01
   C  0.171571193E+01 -0.699135066E-01  0.765679125E-01
   H -0.104859432E+02  0.920107232E+00 -0.650102972E+00
   H  0.101214783E+02 -0.582431330E+00 -0.737088662E+00
     4
 # iter = 33000  time[fs]=33.00000
   C -0.199381741E+01  0.104031027E-01  0.293107871E-01
   C  0.177863975E+01 -0.708494437E-01  0.800157919E-01
   H -0.108379104E+02  0.952637510E+00 -0.670560518E+00
   H  0.104574107E+02 -0.599954716E+00 -0.760532795E+00
     4
 # iter = 33500  time[fs]=33.50000
   C -0.206573942E+01  0.105026340E-01  0.307148305E-01
   C  0.184222048E+01 -0.719646881E-01  0.833174439E-01
   H -0.111915605E+02  0.984277087E+00 -0.692024449E+00
   H  0.107931332E+02 -0.618482376E+00 -0.784995417E+00
     4
 # iter = 34000  time[fs]=34.00000
   C -0.213847456E+01  0.105642021E-01  0.320605566E-01
   C  0.190651394E+01 -0.731421282E-01  0.865874263E-01
   H -0.115461648E+02  0.101570584E+01 -0.713807854E+00
   H  0.111292847E+02 -0.637327193E+00 -0.809788608E+00
     4
 # iter = 34500  time[fs]=34.50000
   C -0.221184670E+01  0.107118334E-01  0.334736875E-01
   C  0.197158238E+01 -0.742673974E-01  0.899378137E-01
   H -0.119010138E+02  0.104758876E+01 -0.735239320E+00
   H  0.114664926E+02 -0.655817544E+00 -0.834240016E+00
     4
 # iter = 35000  time[fs]=35.00000
   C -0.228581143E+01  0.109424302E-01  0.349526426E-01
   C  0.203737767E+01 -0.753411007E-01  0.933659394E-01
   H -0.122560812E+02  0.107991167E+01 -0.756327164E+00
   H  0.118047082E+02 -0.673961899E+00 -0.858357433E+00
     4
 # iter = 35500  time[fs]=35.50000
   C -0.236039791E+01  0.111834718E-01  0.364262615E-01
   C  0.210379295E+01 -0.764267189E-01  0.968064632E-01
   H -0.126117150E+02  0.111228937E+01 -0.777451214E+00
   H  0.121435143E+02 -0.692140430E+00 -0.882520411E+00
     4
 # iter = 36000  time[fs]=36.00000
   C -0.243560623E+01  0.113951703E-01  0.378559792E-01
   C  0.217075438E+01 -0.775584086E-01  0.100223547E+00
   H -0.129680918E+02  0.114451114E+01 -0.798817264E+00
   H  0.124826707E+02 -0.710559165E+00 -0.906934403E+00
     4
 # iter = 36500  time[fs]=36.50000
   C -0.251138377E+01  0.115938199E-01  0.392591904E-01
   C  0.223824187E+01 -0.787199097E-01  0.103631927E+00
   H -0.133250919E+02  0.117666543E+01 -0.820332321E+00
   H  0.128222390E+02 -0.729125165E+00 -0.931505940E+00
     4
 # iter = 37000  time[fs]=37.00000
   C -0.258766792E+01  0.118086727E-01  0.406661410E-01
   C  0.230624986E+01 -0.798834297E-01  0.107058012E+00
   H -0.136825287E+02  0.120890964E+01 -0.841834777E+00
   H  0.131623519E+02 -0.747676834E+00 -0.956072933E+00
     4
 # iter = 37500  time[fs]=37.50000
   C -0.266442125E+01  0.120465081E-01  0.420845091E-01
   C  0.237475508E+01 -0.810415922E-01  0.110507917E+00
   H -0.140403383E+02  0.124128102E+01 -0.863283523E+00
   H  0.135030237E+02 -0.766173130E+00 -0.980593884E+00
     4
 # iter = 38000  time[fs]=38.00000
   C -0.274162732E+01  0.122955261E-01  0.435033097E-01
   C  0.244371977E+01 -0.822039070E-01  0.113970984E+00
   H -0.143985580E+02  0.127371742E+01 -0.884737100E+00
   H  0.138441709E+02 -0.784672712E+00 -0.100512702E+01
     4
 # iter = 38500  time[fs]=38.50000
   C -0.281927029E+01  0.125455531E-01  0.449131095E-01
   C  0.251310978E+01 -0.833785257E-01  0.117438008E+00
   H -0.147572184E+02  0.130616525E+01 -0.906245760E+00
   H  0.141857200E+02 -0.803225939E+00 -0.102972232E+01
     4
 # iter = 39000  time[fs]=39.00000
   C -0.289732619E+01  0.127965208E-01  0.463145140E-01
   C  0.258290192E+01 -0.845645792E-01  0.120908896E+00
   H -0.151162978E+02  0.133862475E+01 -0.927806157E+00
   H  0.145276530E+02 -0.821829533E+00 -0.105437612E+01
     4
 # iter = 39500  time[fs]=39.50000
   C -0.297576838E+01  0.130528373E-01  0.477125458E-01
   C  0.265307881E+01 -0.857572450E-01  0.124387585E+00
   H -0.154757523E+02  0.137111996E+01 -0.949391356E+00
   H  0.148699767E+02 -0.840456611E+00 -0.107906119E+01
     4
 # iter = 40000  time[fs]=40.00000
   C -0.305457433E+01  0.133164311E-01  0.491096951E-01
   C  0.272362234E+01 -0.869540142E-01  0.127875771E+00
   H -0.158355525E+02  0.140366161E+01 -0.970987947E+00
   H  0.152126859E+02 -0.859093818E+00 -0.110376386E+01
     4
 # iter = 40500  time[fs]=40.50000
   C -0.313372631E+01  0.135859209E-01  0.505050946E-01
   C  0.279451288E+01 -0.881554315E-01  0.131372159E+00
   H -0.161956882E+02  0.143624264E+01 -0.992600444E+00
   H  0.155557585E+02 -0.877745727E+00 -0.112848839E+01
     4
 # iter = 41000  time[fs]=41.00000
   C -0.321320846E+01  0.138594296E-01  0.518973389E-01
   C  0.286573162E+01 -0.893625498E-01  0.134875004E+00
   H -0.165561528E+02  0.146885330E+01 -0.101423624E+01
   H  0.158991709E+02 -0.896419786E+00 -0.115324195E+01
     4
 # iter = 41500  time[fs]=41.50000
   C -0.329300487E+01  0.141363440E-01  0.532862477E-01
   C  0.293726210E+01 -0.905753361E-01  0.138383699E+00
   H -0.169169343E+02  0.150149054E+01 -0.103589617E+01
   H  0.162429068E+02 -0.915116890E+00 -0.117802515E+01
     4
 # iter = 42000  time[fs]=42.00000
   C -0.337309990E+01  0.144169145E-01  0.546724704E-01
   C  0.300908969E+01 -0.917930265E-01  0.141898415E+00
   H -0.172780167E+02  0.153415587E+01 -0.105757666E+01
   H  0.165869556E+02 -0.933833505E+00 -0.120283422E+01
     4
 # iter = 42500  time[fs]=42.50000
   C -0.345347907E+01  0.147012901E-01  0.560565231E-01
   C  0.308120068E+01 -0.930149929E-01  0.145419230E+00
   H -0.176393858E+02  0.156685018E+01 -0.107927485E+01
   H  0.169313064E+02 -0.952566801E+00 -0.122766609E+01
     4
 # iter = 43000  time[fs]=43.00000
   C -0.353412921E+01  0.149892258E-01  0.574385002E-01
   C  0.315358190E+01 -0.942410016E-01  0.148945867E+00
   H -0.180010303E+02  0.159957227E+01 -0.110099010E+01
   H  0.172759473E+02 -0.971316202E+00 -0.125251994E+01
     4
 # iter = 43500  time[fs]=43.50000
   C -0.361503817E+01  0.152803476E-01  0.588183413E-01
   C  0.322622092E+01 -0.954709711E-01  0.152477930E+00
   H -0.183629401E+02  0.163232020E+01 -0.112272264E+01
   H  0.176208660E+02 -0.990081957E+00 -0.127739583E+01
     4
 # iter = 44000  time[fs]=44.00000
   C -0.369619446E+01  0.155743961E-01  0.601960776E-01
   C  0.329910615E+01 -0.967047487E-01  0.156015129E+00
   H -0.187251054E+02  0.166509260E+01 -0.114447219E+01
   H  0.179660516E+02 -0.100886383E+01 -0.130229330E+01
     4
 # iter = 44500  time[fs]=44.50000
   C -0.377758723E+01  0.158712305E-01  0.615718374E-01
   C  0.337222682E+01 -0.979421038E-01  0.159557282E+00
   H -0.190875165E+02  0.169788873E+01 -0.116623794E+01
   H  0.183114941E+02 -0.102766105E+01 -0.132721140E+01
     4
 # iter = 45000  time[fs]=45.00000
   C -0.385920628E+01  0.161707332E-01  0.629457534E-01
   C  0.344557286E+01 -0.991828115E-01  0.163104226E+00
   H -0.194501639E+02  0.173070794E+01 -0.118801909E+01
   H  0.186571843E+02 -0.104647284E+01 -0.135214916E+01
     4
 # iter = 45500  time[fs]=45.50000
   C -0.394104206E+01  0.164727633E-01  0.643179170E-01
   C  0.351913475E+01 -0.100426692E+00  0.166655779E+00
   H -0.198130391E+02  0.176354946E+01 -0.120981505E+01
   H  0.190031133E+02 -0.106529863E+01 -0.137710586E+01
     4
 # iter = 46000  time[fs]=46.00000
   C -0.402308558E+01  0.167771710E-01  0.656883952E-01
   C  0.359290351E+01 -0.101673595E+00  0.170211752E+00
   H -0.201761339E+02  0.179641243E+01 -0.123162534E+01
   H  0.193492725E+02 -0.108413799E+01 -0.140208089E+01
     4
 # iter = 46500  time[fs]=46.50000
   C -0.410532841E+01  0.170838204E-01  0.670572539E-01
   C  0.366687073E+01 -0.102923377E+00  0.173771971E+00
   H -0.205394407E+02  0.182929607E+01 -0.125344951E+01
   H  0.196956538E+02 -0.110299050E+01 -0.142707367E+01
     4
 # iter = 47000  time[fs]=47.00000
   C -0.418776256E+01  0.173925936E-01  0.684245635E-01
   C  0.374102844E+01 -0.104175900E+00  0.177336275E+00
   H -0.209029520E+02  0.186219968E+01 -0.127528709E+01
   H  0.200422495E+02 -0.112185569E+01 -0.145208360E+01
     4
 # iter = 47500  time[fs]=47.50000
   C -0.427038052E+01  0.177033832E-01  0.697903928E-01
   C  0.381536916E+01 -0.105431028E+00  0.180904518E+00
   H -0.212666610E+02  0.189512262E+01 -0.129713761E+01
   H  0.203890525E+02 -0.114073314E+01 -0.147711009E+01
     4
 # iter = 48000  time[fs]=48.00000
   C -0.435317518E+01  0.180160877E-01  0.711548048E-01
   C  0.388988580E+01 -0.106688640E+00  0.184476559E+00
   H -0.216305610E+02  0.192806424E+01 -0.131900064E+01
   H  0.207360558E+02 -0.115962242E+01 -0.150215261E+01
     4
 # iter = 48500  time[fs]=48.50000
   C -0.443613981E+01  0.183306103E-01  0.725178573E-01
   C  0.396457167E+01 -0.107948621E+00  0.188052262E+00
   H -0.219946458E+02  0.196102395E+01 -0.134087577E+01
   H  0.210832529E+02 -0.117852315E+01 -0.152721064E+01
     4
 # iter = 49000  time[fs]=49.00000
   C -0.451926808E+01  0.186468611E-01  0.738796047E-01
   C  0.403942044E+01 -0.109210864E+00  0.191631499E+00
   H -0.223589093E+02  0.199400116E+01 -0.136276262E+01
   H  0.214306374E+02 -0.119743499E+01 -0.155228369E+01
     4
 # iter = 49500  time[fs]=49.50000
   C -0.460255396E+01  0.189647560E-01  0.752400989E-01
   C  0.411442612E+01 -0.110475270E+00  0.195214147E+00
   H -0.227233459E+02  0.202699534E+01 -0.138466082E+01
   H  0.217782036E+02 -0.121635756E+01 -0.157737131E+01
     4
 # iter = 50000  time[fs]=50.00000
   C -0.468599175E+01  0.192842168E-01  0.765993892E-01
   C  0.418958302E+01 -0.111741744E+00  0.198800092E+00
   H -0.230879501E+02  0.206000594E+01 -0.140657001E+01
   H  0.221259456E+02 -0.123529054E+01 -0.160247304E+01
     4
 # iter = 50500  time[fs]=50.50000
   C -0.476957604E+01  0.196051701E-01  0.779575222E-01
   C  0.426488575E+01 -0.113010198E+00  0.202389223E+00
   H -0.234527168E+02  0.209303249E+01 -0.142848987E+01
   H  0.224738581E+02 -0.125423362E+01 -0.162758846E+01
     4
 # iter = 51000  time[fs]=51.00000
   C -0.485330169E+01  0.199275469E-01  0.793145419E-01
   C  0.434032919E+01 -0.114280548E+00  0.205981437E+00
   H -0.238176409E+02  0.212607449E+01 -0.145042007E+01
   H  0.228219359E+02 -0.127318649E+01 -0.165271716E+01
     4
 # iter = 51500  time[fs]=51.50000
   C -0.493716383E+01  0.202512825E-01  0.806704899E-01
   C  0.441590848E+01 -0.115552715E+00  0.209576633E+00
   H -0.241827178E+02  0.215913150E+01 -0.147236031E+01
   H  0.231701740E+02 -0.129214885E+01 -0.167785876E+01
     4
 # iter = 52000  time[fs]=52.00000
   C -0.502115782E+01  0.205763161E-01  0.820254059E-01
   C  0.449161901E+01 -0.116826626E+00  0.213174717E+00
   H -0.245479430E+02  0.219220307E+01 -0.149431028E+01
   H  0.235185678E+02 -0.131112044E+01 -0.170301289E+01
     4
 # iter = 52500  time[fs]=52.50000
   C -0.510527924E+01  0.209025904E-01  0.833793273E-01
   C  0.456745637E+01 -0.118102210E+00  0.216775598E+00
   H -0.249133121E+02  0.222528879E+01 -0.151626972E+01
   H  0.238671127E+02 -0.133010098E+01 -0.172817918E+01
     4
 # iter = 53000  time[fs]=53.00000
   C -0.518952389E+01  0.212300516E-01  0.847322898E-01
   C  0.464341638E+01 -0.119379402E+00  0.220379190E+00
   H -0.252788210E+02  0.225838827E+01 -0.153823835E+01
   H  0.242158044E+02 -0.134909022E+01 -0.175335730E+01
     4
 # iter = 53500  time[fs]=53.50000
   C -0.527388777E+01  0.215586489E-01  0.860843273E-01
   C  0.471949505E+01 -0.120658139E+00  0.223985409E+00
   H -0.256444657E+02  0.229150111E+01 -0.156021592E+01
   H  0.245646388E+02 -0.136808793E+01 -0.177854693E+01
     4
 # iter = 54000  time[fs]=54.00000
   C -0.535836706E+01  0.218883344E-01  0.874354721E-01
   C  0.479568857E+01 -0.121938362E+00  0.227594179E+00
   H -0.260102425E+02  0.232462695E+01 -0.158220217E+01
   H  0.249136119E+02 -0.138709385E+01 -0.180374775E+01
     4
 # iter = 54500  time[fs]=54.50000
   C -0.544295811E+01  0.222190630E-01  0.887857547E-01
   C  0.487199332E+01 -0.123220015E+00  0.231205422E+00
   H -0.263761477E+02  0.235776544E+01 -0.160419688E+01
   H  0.252627198E+02 -0.140610778E+01 -0.182895945E+01
     4
 # iter = 55000  time[fs]=55.00000
   C -0.552765744E+01  0.225507918E-01  0.901352044E-01
   C  0.494840582E+01 -0.124503046E+00  0.234819067E+00
   H -0.267421777E+02  0.239091625E+01 -0.162619981E+01
   H  0.256119589E+02 -0.142512949E+01 -0.185418175E+01
     4
 # iter = 55500  time[fs]=55.50000
   C -0.561246174E+01  0.228834805E-01  0.914838490E-01
   C  0.502492278E+01 -0.125787404E+00  0.238435044E+00
   H -0.271083294E+02  0.242407903E+01 -0.164821075E+01
   H  0.259613258E+02 -0.144415879E+01 -0.187941438E+01
     4
 # iter = 56000  time[fs]=56.00000
   C -0.569736783E+01  0.232170910E-01  0.928317150E-01
   C  0.510154103E+01 -0.127073041E+00  0.242053288E+00
   H -0.274745994E+02  0.245725349E+01 -0.167022949E+01
   H  0.263108170E+02 -0.146319546E+01 -0.190465707E+01
     4
 # iter = 56500  time[fs]=56.50000
   C -0.578237266E+01  0.235515869E-01  0.941788279E-01
   C  0.517825753E+01 -0.128359912E+00  0.245673735E+00
   H -0.278409846E+02  0.249043932E+01 -0.169225583E+01
   H  0.266604293E+02 -0.148223933E+01 -0.192990955E+01
     4
 # iter = 57000  time[fs]=57.00000
   C -0.586747334E+01  0.238869341E-01  0.955252117E-01
   C  0.525506939E+01 -0.129647974E+00  0.249296324E+00
   H -0.282074821E+02  0.252363624E+01 -0.171428957E+01
   H  0.270101596E+02 -0.150129020E+01 -0.195517159E+01
     4
 # iter = 57500  time[fs]=57.50000
   C -0.595266707E+01  0.242230999E-01  0.968708895E-01
   C  0.533197385E+01 -0.130937186E+00  0.252920996E+00
   H -0.285740890E+02  0.255684396E+01 -0.173633053E+01
   H  0.273600049E+02 -0.152034791E+01 -0.198044294E+01
     4
 # iter = 58000  time[fs]=58.00000
   C -0.603795118E+01  0.245600536E-01  0.982158834E-01
   C  0.540896824E+01 -0.132227509E+00  0.256547697E+00
   H -0.289408026E+02  0.259006222E+01 -0.175837852E+01
   H  0.277099623E+02 -0.153941227E+01 -0.200572338E+01
     4
 # iter = 58500  time[fs]=58.50000
   C -0.612332312E+01  0.248977657E-01  0.995602146E-01
   C  0.548605001E+01 -0.133518906E+00  0.260176370E+00
   H -0.293076202E+02  0.262329076E+01 -0.178043338E+01
   H  0.280600290E+02 -0.155848313E+01 -0.203101269E+01
     4
 # iter = 59000  time[fs]=59.00000
   C -0.620878044E+01  0.252362085E-01  0.100903903E+00
   C  0.556321672E+01 -0.134811341E+00  0.263806966E+00
   H -0.296745392E+02  0.265652933E+01 -0.180249493E+01
   H  0.284102024E+02 -0.157756034E+01 -0.205631065E+01
     4
 # iter = 59500  time[fs]=59.50000
   C -0.629432077E+01  0.255753554E-01  0.102246968E+00
   C  0.564046603E+01 -0.136104781E+00  0.267439434E+00
   H -0.300415572E+02  0.268977769E+01 -0.182456303E+01
   H  0.287604799E+02 -0.159664373E+01 -0.208161706E+01
     4
 # iter = 60000  time[fs]=60.00000
   C -0.637994186E+01  0.259151812E-01  0.103589429E+00
   C  0.571779567E+01 -0.137399193E+00  0.271073726E+00
   H -0.304086718E+02  0.272303562E+01 -0.184663750E+01
   H  0.291108589E+02 -0.161573316E+01 -0.210693172E+01
     4
 # iter = 60500  time[fs]=60.50000
   C -0.646564153E+01  0.262556620E-01  0.104931303E+00
   C  0.579520350E+01 -0.138694546E+00  0.274709796E+00
   H -0.307758808E+02  0.275630289E+01 -0.186871821E+01
   H  0.294613371E+02 -0.163482848E+01 -0.213225444E+01
     4
 # iter = 61000  time[fs]=61.00000
   C -0.655141770E+01  0.265967748E-01  0.106272606E+00
   C  0.587268743E+01 -0.139990812E+00  0.278347600E+00
   H -0.311431819E+02  0.278957927E+01 -0.189080501E+01
   H  0.298119122E+02 -0.165392958E+01 -0.215758503E+01
     4
 # iter = 61500  time[fs]=61.50000
   C -0.663726836E+01  0.269384979E-01  0.107613357E+00
   C  0.595024546E+01 -0.141287961E+00  0.281987095E+00
   H -0.315105729E+02  0.282286458E+01 -0.191289775E+01
   H  0.301625819E+02 -0.167303630E+01 -0.218292333E+01
     4
 # iter = 62000  time[fs]=62.00000
   C -0.672319157E+01  0.272808104E-01  0.108953569E+00
   C  0.602787566E+01 -0.142585968E+00  0.285628239E+00
   H -0.318780519E+02  0.285615860E+01 -0.193499632E+01
   H  0.305133441E+02 -0.169214853E+01 -0.220826915E+01
     4
 # iter = 62500  time[fs]=62.50000
   C -0.680918548E+01  0.276236926E-01  0.110293258E+00
   C  0.610557619E+01 -0.143884805E+00  0.289270993E+00
   H -0.322456168E+02  0.288946113E+01 -0.195710056E+01
   H  0.308641966E+02 -0.171126613E+01 -0.223362233E+01
     4
 # iter = 63000  time[fs]=63.00000
   C -0.689524830E+01  0.279671255E-01  0.111632439E+00
   C  0.618334527E+01 -0.145184450E+00  0.292915319E+00
   H -0.326132657E+02  0.292277200E+01 -0.197921037E+01
   H  0.312151376E+02 -0.173038900E+01 -0.225898271E+01
     4
 # iter = 63500  time[fs]=63.50000
   C -0.698137830E+01  0.283110909E-01  0.112971125E+00
   C  0.626118117E+01 -0.146484877E+00  0.296561179E+00
   H -0.329809967E+02  0.295609102E+01 -0.200132561E+01
   H  0.315661649E+02 -0.174951701E+01 -0.228435012E+01
     4
 # iter = 64000  time[fs]=64.00000
   C -0.706757381E+01  0.286555715E-01  0.114309330E+00
   C  0.633908224E+01 -0.147786065E+00  0.300208538E+00
   H -0.333488081E+02  0.298941802E+01 -0.202344617E+01
   H  0.319172768E+02 -0.176865006E+01 -0.230972444E+01
     4
 # iter = 64500  time[fs]=64.50000
   C -0.715383325E+01  0.290005509E-01  0.115647067E+00
   C  0.641704688E+01 -0.149087991E+00  0.303857362E+00
   H -0.337166981E+02  0.302275281E+01 -0.204557194E+01
   H  0.322684713E+02 -0.178778803E+01 -0.233510549E+01
     4
 # iter = 65000  time[fs]=65.00000
   C -0.724015505E+01  0.293460131E-01  0.116984348E+00
   C  0.649507357E+01 -0.150390635E+00  0.307507616E+00
   H -0.340846651E+02  0.305609525E+01 -0.206770280E+01
   H  0.326197468E+02 -0.180693083E+01 -0.236049315E+01
     4
 # iter = 65500  time[fs]=65.50000
   C -0.732653773E+01  0.296919430E-01  0.118321185E+00
   C  0.657316080E+01 -0.151693976E+00  0.311159268E+00
   H -0.344527073E+02  0.308944517E+01 -0.208983866E+01
   H  0.329711015E+02 -0.182607835E+01 -0.238588728E+01
     4
 # iter = 66000  time[fs]=66.00000
   C -0.741297986E+01  0.300383262E-01  0.119657589E+00
   C  0.665130716E+01 -0.152997996E+00  0.314812289E+00
   H -0.348208232E+02  0.312280241E+01 -0.211197939E+01
   H  0.333225338E+02 -0.184523049E+01 -0.241128774E+01
     4
 # iter = 66500  time[fs]=66.50000
   C -0.749948003E+01  0.303851485E-01  0.120993572E+00
   C  0.672951124E+01 -0.154302675E+00  0.318466646E+00
   H -0.351890113E+02  0.315616683E+01 -0.213412491E+01
   H  0.336740420E+02 -0.186438715E+01 -0.243669441E+01
     4
 # iter = 67000  time[fs]=67.00000
   C -0.758603690E+01  0.307323968E-01  0.122329144E+00
   C  0.680777173E+01 -0.155607997E+00  0.322122312E+00
   H -0.355572701E+02  0.318953828E+01 -0.215627512E+01
   H  0.340256246E+02 -0.188354826E+01 -0.246210716E+01
     4
 # iter = 67500  time[fs]=67.50000
   C -0.767264919E+01  0.310800582E-01  0.123664316E+00
   C  0.688608732E+01 -0.156913944E+00  0.325779257E+00
   H -0.359255981E+02  0.322291661E+01 -0.217842992E+01
   H  0.343772800E+02 -0.190271371E+01 -0.248752586E+01
     4
 # iter = 68000  time[fs]=68.00000
   C -0.775931563E+01  0.314281204E-01  0.124999096E+00
   C  0.696445677E+01 -0.158220499E+00  0.329437456E+00
   H -0.362939940E+02  0.325630170E+01 -0.220058923E+01
   H  0.347290069E+02 -0.192188341E+01 -0.251295041E+01
     4
 # iter = 68500  time[fs]=68.50000
   C -0.784603500E+01  0.317765717E-01  0.126333496E+00
   C  0.704287886E+01 -0.159527647E+00  0.333096880E+00
   H -0.366624564E+02  0.328969341E+01 -0.222275294E+01
   H  0.350808038E+02 -0.194105730E+01 -0.253838069E+01
     4
 # iter = 69000  time[fs]=69.00000
   C -0.793280614E+01  0.321254007E-01  0.127667524E+00
   C  0.712135244E+01 -0.160835372E+00  0.336757505E+00
   H -0.370309840E+02  0.332309160E+01 -0.224492098E+01
   H  0.354326693E+02 -0.196023528E+01 -0.256381659E+01
     4
 # iter = 69500  time[fs]=69.50000
   C -0.801962791E+01  0.324745965E-01  0.129001189E+00
   C  0.719987637E+01 -0.162143660E+00  0.340419305E+00
   H -0.373995755E+02  0.335649616E+01 -0.226709327E+01
   H  0.357846020E+02 -0.197941727E+01 -0.258925799E+01
     4
 # iter = 70000  time[fs]=70.00000
   C -0.810649921E+01  0.328241487E-01  0.130334499E+00
   C  0.727844954E+01 -0.163452496E+00  0.344082257E+00
   H -0.377682297E+02  0.338990697E+01 -0.228926971E+01
   H  0.361366008E+02 -0.199860320E+01 -0.261470480E+01
     4
 # iter = 70500  time[fs]=70.50000
   C -0.819341898E+01  0.331740472E-01  0.131667464E+00
   C  0.735707092E+01 -0.164761868E+00  0.347746337E+00
   H -0.381369453E+02  0.342332390E+01 -0.231145024E+01
   H  0.364886642E+02 -0.201779299E+01 -0.264015691E+01
     4
 # iter = 71000  time[fs]=71.00000
   C -0.828038617E+01  0.335242824E-01  0.133000091E+00
   C  0.743573946E+01 -0.166071761E+00  0.351411522E+00
   H -0.385057213E+02  0.345674683E+01 -0.233363477E+01
   H  0.368407911E+02 -0.203698657E+01 -0.266561422E+01
     4
 # iter = 71500  time[fs]=71.50000
   C -0.836739980E+01  0.338748449E-01  0.134332387E+00
   C  0.751445417E+01 -0.167382162E+00  0.355077791E+00
   H -0.388745563E+02  0.349017567E+01 -0.235582324E+01
   H  0.371929803E+02 -0.205618388E+01 -0.269107665E+01
     4
 # iter = 72000  time[fs]=72.00000
   C -0.845445890E+01  0.342257258E-01  0.135664361E+00
   C  0.759321409E+01 -0.168693061E+00  0.358745122E+00
   H -0.392434495E+02  0.352361030E+01 -0.237801556E+01
   H  0.375452306E+02 -0.207538483E+01 -0.271654409E+01
     4
 # iter = 72500  time[fs]=72.50000
   C -0.854156251E+01  0.345769164E-01  0.136996020E+00
   C  0.767201829E+01 -0.170004444E+00  0.362413494E+00
   H -0.396123996E+02  0.355705061E+01 -0.240021167E+01
   H  0.378975409E+02 -0.209458936E+01 -0.274201645E+01
     4
 # iter = 73000  time[fs]=73.00000
   C -0.862870974E+01  0.349284085E-01  0.138327370E+00
   C  0.775086585E+01 -0.171316301E+00  0.366082888E+00
   H -0.399814057E+02  0.359049650E+01 -0.242241150E+01
   H  0.382499101E+02 -0.211379742E+01 -0.276749365E+01
     4
 # iter = 73500  time[fs]=73.50000
   C -0.871589970E+01  0.352801940E-01  0.139658419E+00
   C  0.782975590E+01 -0.172628620E+00  0.369753282E+00
   H -0.403504667E+02  0.362394787E+01 -0.244461498E+01
   H  0.386023371E+02 -0.213300893E+01 -0.279297560E+01
     4
 # iter = 74000  time[fs]=74.00000
   C -0.880313153E+01  0.356322651E-01  0.140989173E+00
   C  0.790868758E+01 -0.173941390E+00  0.373424660E+00
   H -0.407195816E+02  0.365740463E+01 -0.246682204E+01
   H  0.389548209E+02 -0.215222383E+01 -0.281846221E+01
     4
 # iter = 74500  time[fs]=74.50000
   C -0.889040440E+01  0.359846145E-01  0.142319638E+00
   C  0.798766006E+01 -0.175254601E+00  0.377097001E+00
   H -0.410887495E+02  0.369086668E+01 -0.248903263E+01
   H  0.393073605E+02 -0.217144207E+01 -0.284395341E+01
     4
 # iter = 75000  time[fs]=75.00000
   C -0.897771749E+01  0.363372349E-01  0.143649822E+00
   C  0.806667255E+01 -0.176568244E+00  0.380770289E+00
   H -0.414579695E+02  0.372433392E+01 -0.251124669E+01
   H  0.396599549E+02 -0.219066358E+01 -0.286944911E+01
     4
 # iter = 75500  time[fs]=75.50000
   C -0.906507003E+01  0.366901194E-01  0.144979729E+00
   C  0.814572425E+01 -0.177882308E+00  0.384444505E+00
   H -0.418272405E+02  0.375780627E+01 -0.253346414E+01
   H  0.400126031E+02 -0.220988831E+01 -0.289494924E+01
     4
 # iter = 76000  time[fs]=76.00000
   C -0.915246126E+01  0.370432614E-01  0.146309365E+00
   C  0.822481441E+01 -0.179196785E+00  0.388119633E+00
   H -0.421965618E+02  0.379128364E+01 -0.255568494E+01
   H  0.403653043E+02 -0.222911621E+01 -0.292045372E+01
     4
 # iter = 76500  time[fs]=76.50000
   C -0.923989042E+01  0.373966542E-01  0.147638738E+00
   C  0.830394230E+01 -0.180511664E+00  0.391795656E+00
   H -0.425659324E+02  0.382476594E+01 -0.257790903E+01
   H  0.407180574E+02 -0.224834721E+01 -0.294596248E+01
     4
 # iter = 77000  time[fs]=77.00000
   C -0.932735680E+01  0.377502918E-01  0.148967850E+00
   C  0.838310718E+01 -0.181826937E+00  0.395472558E+00
   H -0.429353516E+02  0.385825310E+01 -0.260013634E+01
   H  0.410708616E+02 -0.226758127E+01 -0.297147544E+01
     4
 # iter = 77500  time[fs]=77.50000
   C -0.941485970E+01  0.381041680E-01  0.150296709E+00
   C  0.846230838E+01 -0.183142596E+00  0.399150323E+00
   H -0.433048185E+02  0.389174502E+01 -0.262236683E+01
   H  0.414237160E+02 -0.228681833E+01 -0.299699254E+01
     4
 # iter = 78000  time[fs]=78.00000
   C -0.950239844E+01  0.384582770E-01  0.151625319E+00
   C  0.854154520E+01 -0.184458633E+00  0.402828937E+00
   H -0.436743323E+02  0.392524163E+01 -0.264460045E+01
   H  0.417766199E+02 -0.230605835E+01 -0.302251371E+01
     4
 # iter = 78500  time[fs]=78.50000
   C -0.958997235E+01  0.388126131E-01  0.152953686E+00
   C  0.862081699E+01 -0.185775039E+00  0.406508383E+00
   H -0.440438922E+02  0.395874286E+01 -0.266683714E+01
   H  0.421295723E+02 -0.232530128E+01 -0.304803888E+01
     4
 # iter = 79000  time[fs]=79.00000
   C -0.967758079E+01  0.391671710E-01  0.154281814E+00
   C  0.870012312E+01 -0.187091806E+00  0.410188648E+00
   H -0.444134974E+02  0.399224862E+01 -0.268907685E+01
   H  0.424825725E+02 -0.234454707E+01 -0.307356799E+01
     4
 # iter = 79500  time[fs]=79.50000
   C -0.976522314E+01  0.395219453E-01  0.155609707E+00
   C  0.877946294E+01 -0.188408928E+00  0.413869718E+00
   H -0.447831472E+02  0.402575885E+01 -0.271131953E+01
   H  0.428356197E+02 -0.236379567E+01 -0.309910097E+01
     4
 # iter = 80000  time[fs]=80.00000
   C -0.985289877E+01  0.398769309E-01  0.156937372E+00
   C  0.885883586E+01 -0.189726396E+00  0.417551579E+00
   H -0.451528410E+02  0.405927348E+01 -0.273356514E+01
   H  0.431887131E+02 -0.238304703E+01 -0.312463777E+01
