     4
 # iter = 25000  time[fs]=25.00000
   C -0.967300144E+00 -0.327677184E-01 -0.256340314E-01
   C  0.106899338E+01  0.377575639E-01  0.173510781E-02
   H -0.527557267E+01  0.495098121E+00 -0.356193350E+00
   H  0.542875462E+01 -0.815804044E-01  0.134031616E+00
     4
 # iter = 25500  time[fs]=25.50000
   C -0.101427382E+01 -0.366455555E-01 -0.257424484E-01
   C  0.111539481E+01  0.377737975E-01  0.557297401E-03
   H -0.561445504E+01  0.518664363E+00 -0.385739730E+00
   H  0.574595364E+01 -0.971955767E-01  0.135220952E+00
     4
 # iter = 26000  time[fs]=26.00000
   C -0.106530612E+01 -0.416037720E-01 -0.268352978E-01
   C  0.116389289E+01  0.368948564E-01 -0.158702694E-02
   H -0.596135725E+01  0.537088995E+00 -0.420868939E+00
   H  0.606039305E+01 -0.118285527E+00  0.131081436E+00
     4
 # iter = 26500  time[fs]=26.50000
   C -0.111728827E+01 -0.447902581E-01 -0.260658794E-01
   C  0.121721258E+01  0.381065282E-01 -0.170967640E-02
   H -0.629989509E+01  0.566426363E+00 -0.445476125E+00
   H  0.638789525E+01 -0.128748158E+00  0.137700759E+00
     4
 # iter = 27000  time[fs]=27.00000
   C -0.116983148E+01 -0.460547727E-01 -0.232892101E-01
   C  0.127525342E+01  0.415487925E-01  0.332231615E-03
   H -0.662902788E+01  0.607447801E+00 -0.458748935E+00
   H  0.672901524E+01 -0.127781528E+00  0.155868107E+00
     4
 # iter = 27500  time[fs]=27.50000
   C -0.122482148E+01 -0.475025525E-01 -0.206155940E-01
   C  0.133556030E+01  0.449862189E-01  0.230648059E-02
   H -0.696052101E+01  0.648166177E+00 -0.472640896E+00
   H  0.707156320E+01 -0.127356107E+00  0.173601644E+00
     4
 # iter = 28000  time[fs]=28.00000
   C -0.128354645E+01 -0.506213724E-01 -0.195377237E-01
   C  0.139635009E+01  0.468355114E-01  0.263309729E-02
   H -0.730266768E+01  0.680097084E+00 -0.495607469E+00
   H  0.740688191E+01 -0.135940652E+00  0.182422806E+00
     4
 # iter = 28500  time[fs]=28.50000
   C -0.134521466E+01 -0.547995829E-01 -0.194487117E-01
   C  0.145807229E+01  0.477272019E-01  0.194591532E-02
   H -0.765189080E+01  0.706647331E+00 -0.524216029E+00
   H  0.773824084E+01 -0.150106888E+00  0.185751576E+00
     4
 # iter = 29000  time[fs]=29.00000
   C -0.140817455E+01 -0.585478670E-01 -0.188637821E-01
   C  0.152212017E+01  0.492180248E-01  0.180489969E-02
   H -0.799965867E+01  0.736197907E+00 -0.550062716E+00
   H  0.807390741E+01 -0.161451131E+00  0.191984492E+00
     4
 # iter = 29500  time[fs]=29.50000
   C -0.147176179E+01 -0.613481756E-01 -0.172691464E-01
   C  0.158888097E+01  0.518423111E-01  0.274751946E-02
   H -0.834295326E+01  0.771636058E+00 -0.570240449E+00
   H  0.841666465E+01 -0.167069459E+00  0.204019115E+00
     4
 # iter = 30000  time[fs]=30.00000
   C -0.153655707E+01 -0.639130472E-01 -0.153813107E-01
   C  0.165746101E+01  0.548386042E-01  0.401533624E-02
   H -0.868573655E+01  0.808886659E+00 -0.588807215E+00
   H  0.876233854E+01 -0.171027078E+00  0.217784492E+00
     4
 # iter = 30500  time[fs]=30.50000
   C -0.160323770E+01 -0.670384411E-01 -0.139999294E-01
   C  0.172689307E+01  0.573585332E-01  0.476284447E-02
   H -0.903245201E+01  0.843406546E+00 -0.610291079E+00
   H  0.910629706E+01 -0.177859036E+00  0.228740432E+00
     4
 # iter = 31000  time[fs]=31.00000
   C -0.167170379E+01 -0.707310788E-01 -0.131351676E-01
   C  0.179705450E+01  0.593863929E-01  0.497703195E-02
   H -0.938308119E+01  0.875124760E+00 -0.634749434E+00
   H  0.944839372E+01 -0.187626199E+00  0.236821510E+00
     4
 # iter = 31500  time[fs]=31.50000
   C -0.174133303E+01 -0.744645343E-01 -0.122638010E-01
   C  0.186839600E+01  0.614691632E-01  0.520739748E-02
   H -0.973459268E+01  0.906992111E+00 -0.659219224E+00
   H  0.979151466E+01 -0.197366553E+00  0.244985689E+00
     4
 # iter = 32000  time[fs]=32.00000
   C -0.181171152E+01 -0.779112821E-01 -0.110612683E-01
   C  0.194116895E+01  0.639449308E-01  0.579438111E-02
   H -0.100850869E+02  0.940836006E+00 -0.681862057E+00
   H  0.101374286E+02 -0.205243203E+00  0.255066210E+00
     4
 # iter = 32500  time[fs]=32.50000
   C -0.188289516E+01 -0.812052083E-01 -0.966419373E-02
   C  0.201514759E+01  0.666661588E-01  0.659264139E-02
   H -0.104352817E+02  0.975873845E+00 -0.703450697E+00
   H  0.104852980E+02 -0.212031927E+00  0.266283967E+00
     4
 # iter = 33000  time[fs]=33.00000
   C -0.195509342E+01 -0.846262596E-01 -0.835505335E-02
   C  0.208996040E+01  0.693319668E-01  0.730334153E-02
   H -0.107867263E+02  0.101049832E+01 -0.725583586E+00
   H  0.108334650E+02 -0.219334495E+00  0.277034160E+00
     4
 # iter = 33500  time[fs]=33.50000
   C -0.202832265E+01 -0.882545116E-01 -0.721626156E-02
   C  0.216545375E+01  0.718526473E-01  0.783867155E-02
   H -0.111398416E+02  0.104423590E+01 -0.748726219E+00
   H  0.111814109E+02 -0.227618727E+00  0.286846218E+00
     4
 # iter = 34000  time[fs]=34.00000
   C -0.210240178E+01 -0.919666916E-01 -0.612670947E-02
   C  0.224169480E+01  0.743532742E-01  0.832546537E-02
   H -0.114938996E+02  0.107776622E+01 -0.772191598E+00
   H  0.115297752E+02 -0.236198962E+00  0.296403291E+00
     4
 # iter = 34500  time[fs]=34.50000
   C -0.217715803E+01 -0.956424338E-01 -0.496803272E-02
   C  0.231875337E+01  0.769562803E-01  0.888778907E-02
   H -0.118481917E+02  0.111175405E+01 -0.795308238E+00
   H  0.118791863E+02 -0.244404905E+00  0.306373386E+00
     4
 # iter = 35000  time[fs]=35.00000
   C -0.225254349E+01 -0.992815523E-01 -0.374189716E-02
   C  0.239657779E+01  0.796578202E-01  0.952331287E-02
   H -0.122026923E+02  0.114618510E+01 -0.818084304E+00
   H  0.122295960E+02 -0.252246235E+00  0.316744714E+00
     4
 # iter = 35500  time[fs]=35.50000
   C -0.232858026E+01 -0.102949604E+00 -0.251557343E-02
   C  0.247505169E+01  0.823851040E-01  0.101606540E-01
   H -0.125577499E+02  0.118067410E+01 -0.840899434E+00
   H  0.125805877E+02 -0.260104234E+00  0.327134052E+00
     4
 # iter = 36000  time[fs]=36.00000
   C -0.240526360E+01 -0.106681542E+00 -0.132560286E-02
   C  0.255409506E+01  0.850979029E-01  0.107608901E-01
   H -0.129135416E+02  0.121501025E+01 -0.863959265E+00
   H  0.129319217E+02 -0.268185944E+00  0.337332568E+00
     4
 # iter = 36500  time[fs]=36.50000
   C -0.248253954E+01 -0.110459674E+00 -0.155766094E-03
   C  0.263368705E+01  0.878117488E-01  0.113407666E-01
   H -0.132699481E+02  0.124928187E+01 -0.887170694E+00
   H  0.132836602E+02 -0.276399355E+00  0.347430618E+00
     4
 # iter = 37000  time[fs]=37.00000
   C -0.256034514E+01 -0.114254294E+00  0.102227498E-02
   C  0.271382278E+01  0.905550839E-01  0.119298538E-01
   H -0.136267835E+02  0.128364627E+01 -0.910372022E+00
   H  0.136359363E+02 -0.284583725E+00  0.357587415E+00
     4
 # iter = 37500  time[fs]=37.50000
   C -0.263864155E+01 -0.118057065E+00  0.221558582E-02
   C  0.279447783E+01  0.933340542E-01  0.125353471E-01
   H -0.139839842E+02  0.131814056E+01 -0.933522039E+00
   H  0.139887648E+02 -0.292698799E+00  0.367841792E+00
     4
 # iter = 38000  time[fs]=38.00000
   C -0.271741007E+01 -0.121877329E+00  0.341364089E-02
   C  0.287561180E+01  0.961363767E-01  0.131459407E-01
   H -0.143415878E+02  0.135270252E+01 -0.956679179E+00
   H  0.143420624E+02 -0.300803963E+00  0.378133043E+00
     4
 # iter = 38500  time[fs]=38.50000
   C -0.279663284E+01 -0.125723044E+00  0.460738306E-02
   C  0.295718817E+01  0.989514149E-01  0.137519089E-01
   H -0.146996254E+02  0.138727850E+01 -0.979893594E+00
   H  0.146957562E+02 -0.308950248E+00  0.388408906E+00
     4
 # iter = 39000  time[fs]=39.00000
   C -0.287628461E+01 -0.129592769E+00  0.579722540E-02
   C  0.303918250E+01  0.101778602E+00  0.143535343E-01
   H -0.150580757E+02  0.142186865E+01 -0.100316185E+01
   H  0.150498284E+02 -0.317135001E+00  0.398670886E+00
     4
 # iter = 39500  time[fs]=39.50000
   C -0.295633781E+01 -0.133480963E+00  0.698775155E-02
   C  0.312157665E+01  0.104621846E+00  0.149555183E-01
   H -0.154168949E+02  0.145649692E+01 -0.102645694E+01
   H  0.154042861E+02 -0.325331919E+00  0.408944216E+00
     4
 # iter = 40000  time[fs]=40.00000
   C -0.303676901E+01 -0.137384527E+00  0.818116344E-02
   C  0.320435167E+01  0.107482618E+00  0.155600725E-01
   H -0.157760541E+02  0.149117396E+01 -0.104976536E+01
   H  0.157591244E+02 -0.333528183E+00  0.419240709E+00
     4
 # iter = 40500  time[fs]=40.50000
   C -0.311755945E+01 -0.141303583E+00  0.937650398E-02
   C  0.328748688E+01  0.110359123E+00  0.161660964E-01
   H -0.161355432E+02  0.152589265E+01 -0.107309157E+01
   H  0.161143216E+02 -0.341728868E+00  0.429554351E+00
     4
 # iter = 41000  time[fs]=41.00000
   C -0.319869230E+01 -0.145238804E+00  0.105723143E-01
   C  0.337096244E+01  0.113249098E+00  0.167719753E-01
   H -0.164953560E+02  0.156064319E+01 -0.109644288E+01
   H  0.164698542E+02 -0.349941891E+00  0.439876344E+00
     4
 # iter = 41500  time[fs]=41.50000
   C -0.328015084E+01 -0.149189753E+00  0.117682966E-01
   C  0.345476108E+01  0.116151555E+00  0.173773312E-01
   H -0.168554806E+02  0.159542243E+01 -0.111982008E+01
   H  0.168257061E+02 -0.358168585E+00  0.450204524E+00
     4
 # iter = 42000  time[fs]=42.00000
   C -0.336191875E+01 -0.153155252E+00  0.129649409E-01
   C  0.353886749E+01  0.119066387E+00  0.179826268E-01
   H -0.172159014E+02  0.163023182E+01 -0.114321951E+01
   H  0.171818670E+02 -0.366405823E+00  0.460541239E+00
     4
 # iter = 42500  time[fs]=42.50000
   C -0.344398090E+01 -0.157134282E+00  0.141626171E-01
   C  0.362326734E+01  0.121993404E+00  0.185882082E-01
   H -0.175766044E+02  0.166507223E+01 -0.116663825E+01
   H  0.175383262E+02 -0.374651160E+00  0.470888198E+00
     4
 # iter = 43000  time[fs]=43.00000
   C -0.352632352E+01 -0.161126256E+00  0.153613027E-01
   C  0.370794685E+01  0.124932040E+00  0.191940156E-01
   H -0.179375782E+02  0.169994236E+01 -0.119007564E+01
   H  0.178950719E+02 -0.382904381E+00  0.481244925E+00
     4
 # iter = 43500  time[fs]=43.50000
   C -0.360893388E+01 -0.165130765E+00  0.165608345E-01
   C  0.379289303E+01  0.127881621E+00  0.197998480E-01
   H -0.182988133E+02  0.173484023E+01 -0.121353182E+01
   H  0.182520921E+02 -0.391166071E+00  0.491610179E+00
     4
 # iter = 44000  time[fs]=44.00000
   C -0.369180002E+01 -0.169147341E+00  0.177611402E-01
   C  0.387809378E+01  0.130841601E+00  0.204056063E-01
   H -0.186602999E+02  0.176976443E+01 -0.123700646E+01
   H  0.186093760E+02 -0.399436308E+00  0.501983263E+00
     4
 # iter = 44500  time[fs]=44.50000
   C -0.377491059E+01 -0.173175450E+00  0.189622441E-01
   C  0.396353787E+01  0.133811566E+00  0.210112983E-01
   H -0.190220283E+02  0.180471415E+01 -0.126049874E+01
   H  0.189669137E+02 -0.407714629E+00  0.512364055E+00
     4
 # iter = 45000  time[fs]=45.00000
   C -0.385825498E+01 -0.177214580E+00  0.201641785E-01
   C  0.404921479E+01  0.136791140E+00  0.216169447E-01
   H -0.193839894E+02  0.183968870E+01 -0.128400778E+01
   H  0.193246962E+02 -0.416000534E+00  0.522752501E+00
     4
 # iter = 45500  time[fs]=45.50000
   C -0.394182322E+01 -0.181264279E+00  0.213669416E-01
   C  0.413511463E+01  0.139779936E+00  0.222225343E-01
   H -0.197461747E+02  0.187468726E+01 -0.130753295E+01
   H  0.196827147E+02 -0.424293724E+00  0.533148375E+00
     4
 # iter = 46000  time[fs]=46.00000
   C -0.402560599E+01 -0.185324137E+00  0.225705121E-01
   C  0.422122805E+01  0.142777570E+00  0.228280383E-01
   H -0.201085763E+02  0.190970894E+01 -0.133107374E+01
   H  0.200409608E+02 -0.432594016E+00  0.543551360E+00
     4
 # iter = 46500  time[fs]=46.50000
   C -0.410959448E+01 -0.189393768E+00  0.237748717E-01
   C  0.430754628E+01  0.145783684E+00  0.234334343E-01
   H -0.204711864E+02  0.194475290E+01 -0.135462966E+01
   H  0.203994265E+02 -0.440901221E+00  0.553961170E+00
     4
 # iter = 47000  time[fs]=47.00000
   C -0.419378040E+01 -0.193472796E+00  0.249800098E-01
   C  0.439406107E+01  0.148797948E+00  0.240387104E-01
   H -0.208339981E+02  0.197981840E+01 -0.137820020E+01
   H  0.207581041E+02 -0.449215113E+00  0.564377583E+00
     4
 # iter = 47500  time[fs]=47.50000
   C -0.427815595E+01 -0.197560866E+00  0.261859179E-01
   C  0.448076461E+01  0.151820054E+00  0.246438587E-01
   H -0.211970043E+02  0.201490476E+01 -0.140178485E+01
   H  0.211169867E+02 -0.457535464E+00  0.574800397E+00
     4
 # iter = 48000  time[fs]=48.00000
   C -0.436271374E+01 -0.201657642E+00  0.273925852E-01
   C  0.456764956E+01  0.154849707E+00  0.252488711E-01
   H -0.215601987E+02  0.205001130E+01 -0.142538315E+01
   H  0.214760674E+02 -0.465862064E+00  0.585229414E+00
     4
 # iter = 48500  time[fs]=48.50000
   C -0.444744680E+01 -0.205762807E+00  0.285999991E-01
   C  0.465470897E+01  0.157886629E+00  0.258537389E-01
   H -0.219235749E+02  0.208513738E+01 -0.144899466E+01
   H  0.218353398E+02 -0.474194724E+00  0.595664433E+00
     4
 # iter = 49000  time[fs]=49.00000
   C -0.453234854E+01 -0.209876064E+00  0.298081466E-01
   C  0.474193627E+01  0.160930553E+00  0.264584546E-01
   H -0.222871272E+02  0.212028240E+01 -0.147261896E+01
   H  0.221947976E+02 -0.482533263E+00  0.606105265E+00
     4
 # iter = 49500  time[fs]=49.50000
   C -0.461741272E+01 -0.213997126E+00  0.310170154E-01
   C  0.482932525E+01  0.163981229E+00  0.270630120E-01
   H -0.226508499E+02  0.215544576E+01 -0.149625566E+01
   H  0.225544350E+02 -0.490877506E+00  0.616551730E+00
     4
 # iter = 50000  time[fs]=50.00000
   C -0.470263342E+01 -0.218125724E+00  0.322265930E-01
   C  0.491687001E+01  0.167038419E+00  0.276674063E-01
   H -0.230147377E+02  0.219062691E+01 -0.151990438E+01
   H  0.229142464E+02 -0.499227285E+00  0.627003658E+00
     4
 # iter = 50500  time[fs]=50.50000
   C -0.478800505E+01 -0.222261600E+00  0.334368671E-01
   C  0.500456497E+01  0.170101898E+00  0.282716333E-01
   H -0.233787855E+02  0.222582531E+01 -0.154356474E+01
   H  0.232742265E+02 -0.507582438E+00  0.637460889E+00
     4
 # iter = 51000  time[fs]=51.00000
   C -0.487352229E+01 -0.226404511E+00  0.346478254E-01
   C  0.509240484E+01  0.173171450E+00  0.288756894E-01
   H -0.237429884E+02  0.226104047E+01 -0.156723641E+01
   H  0.236343701E+02 -0.515942812E+00  0.647923264E+00
     4
 # iter = 51500  time[fs]=51.50000
   C -0.495918007E+01 -0.230554224E+00  0.358594554E-01
   C  0.518038457E+01  0.176246872E+00  0.294795718E-01
   H -0.241073418E+02  0.229627189E+01 -0.159091905E+01
   H  0.239946725E+02 -0.524308260E+00  0.658390636E+00
     4
 # iter = 52000  time[fs]=52.00000
   C -0.504497361E+01 -0.234710519E+00  0.370717449E-01
   C  0.526849938E+01  0.179327969E+00  0.300832780E-01
   H -0.244718412E+02  0.233151912E+01 -0.161461234E+01
   H  0.243551289E+02 -0.532678641E+00  0.668862863E+00
     4
 # iter = 52500  time[fs]=52.50000
   C -0.513089834E+01 -0.238873183E+00  0.382846819E-01
   C  0.535674473E+01  0.182414557E+00  0.306868062E-01
   H -0.248364824E+02  0.236678169E+01 -0.163831599E+01
   H  0.247157349E+02 -0.541053819E+00  0.679339806E+00
     4
 # iter = 53000  time[fs]=53.00000
   C -0.521694991E+01 -0.243042016E+00  0.394982543E-01
   C  0.544511629E+01  0.185506459E+00  0.312901550E-01
   H -0.252012613E+02  0.240205920E+01 -0.166202969E+01
   H  0.250764862E+02 -0.549433666E+00  0.689821336E+00
     4
 # iter = 53500  time[fs]=53.50000
   C -0.530312417E+01 -0.247216826E+00  0.407124505E-01
   C  0.553360993E+01  0.188603506E+00  0.318933235E-01
   H -0.255661741E+02  0.243735122E+01 -0.168575318E+01
   H  0.254373788E+02 -0.557818056E+00  0.700307327E+00
     4
 # iter = 54000  time[fs]=54.00000
   C -0.538941719E+01 -0.251397430E+00  0.419272587E-01
   C  0.562222172E+01  0.191705539E+00  0.324963109E-01
   H -0.259312169E+02  0.247265737E+01 -0.170948618E+01
   H  0.257984086E+02 -0.566206870E+00  0.710797659E+00
     4
 # iter = 54500  time[fs]=54.50000
   C -0.547582520E+01 -0.255583652E+00  0.431426677E-01
   C  0.571094792E+01  0.194812403E+00  0.330991170E-01
   H -0.262963862E+02  0.250797727E+01 -0.173322843E+01
   H  0.261595720E+02 -0.574599993E+00  0.721292216E+00
     4
 # iter = 55000  time[fs]=55.00000
   C -0.556234460E+01 -0.259775326E+00  0.443586661E-01
   C  0.579978493E+01  0.197923953E+00  0.337017416E-01
   H -0.266616787E+02  0.254331056E+01 -0.175697970E+01
   H  0.265208654E+02 -0.582997316E+00  0.731790887E+00
     4
 # iter = 55500  time[fs]=55.50000
   C -0.564897196E+01 -0.263972290E+00  0.455752429E-01
   C  0.588872935E+01  0.201040048E+00  0.343041850E-01
   H -0.270270908E+02  0.257865689E+01 -0.178073974E+01
   H  0.268822852E+02 -0.591398731E+00  0.742293564E+00
     4
 # iter = 56000  time[fs]=56.00000
   C -0.573570401E+01 -0.268174392E+00  0.467923874E-01
   C  0.597777791E+01  0.204160554E+00  0.349064475E-01
   H -0.273926196E+02  0.261401592E+01 -0.180450833E+01
   H  0.272438282E+02 -0.599804136E+00  0.752800147E+00
     4
 # iter = 56500  time[fs]=56.50000
   C -0.582253760E+01 -0.272381484E+00  0.480100889E-01
   C  0.606692748E+01  0.207285343E+00  0.355085298E-01
   H -0.277582620E+02  0.264938734E+01 -0.182828524E+01
   H  0.276054911E+02 -0.608213433E+00  0.763310535E+00
     4
 # iter = 57000  time[fs]=57.00000
   C -0.590946974E+01 -0.276593427E+00  0.492283371E-01
   C  0.615617507E+01  0.210414292E+00  0.361104327E-01
   H -0.281240150E+02  0.268477083E+01 -0.185207027E+01
   H  0.279672709E+02 -0.616626527E+00  0.773824634E+00
     4
 # iter = 57500  time[fs]=57.50000
   C -0.599649755E+01 -0.280810083E+00  0.504471217E-01
   C  0.624551783E+01  0.213547283E+00  0.367121569E-01
   H -0.284898758E+02  0.272016610E+01 -0.187586321E+01
   H  0.283291646E+02 -0.625043326E+00  0.784342352E+00
     4
 # iter = 58000  time[fs]=58.00000
   C -0.608361828E+01 -0.285031325E+00  0.516664329E-01
   C  0.633495302E+01  0.216684203E+00  0.373137037E-01
   H -0.288558417E+02  0.275557286E+01 -0.189966388E+01
   H  0.286911694E+02 -0.633463743E+00  0.794863601E+00
     4
 # iter = 58500  time[fs]=58.50000
   C -0.617082929E+01 -0.289257028E+00  0.528862608E-01
   C  0.642447799E+01  0.219824944E+00  0.379150741E-01
   H -0.292219101E+02  0.279099083E+01 -0.192347207E+01
   H  0.290532825E+02 -0.641887693E+00  0.805388296E+00
     4
 # iter = 59000  time[fs]=59.00000
   C -0.625812805E+01 -0.293487071E+00  0.541065959E-01
   C  0.651409025E+01  0.222969402E+00  0.385162695E-01
   H -0.295880785E+02  0.282641974E+01 -0.194728762E+01
   H  0.294155013E+02 -0.650315092E+00  0.815916355E+00
     4
 # iter = 59500  time[fs]=59.50000
   C -0.634551213E+01 -0.297721341E+00  0.553274290E-01
   C  0.660378736E+01  0.226117476E+00  0.391172912E-01
   H -0.299543445E+02  0.286185934E+01 -0.197111034E+01
   H  0.297778232E+02 -0.658745863E+00  0.826447699E+00
     4
 # iter = 60000  time[fs]=60.00000
   C -0.643297920E+01 -0.301959727E+00  0.565487508E-01
   C  0.669356700E+01  0.229269071E+00  0.397181405E-01
   H -0.303207057E+02  0.289730938E+01 -0.199494006E+01
   H  0.301402458E+02 -0.667179929E+00  0.836982251E+00
     4
 # iter = 60500  time[fs]=60.50000
   C -0.652052703E+01 -0.306202123E+00  0.577705524E-01
   C  0.678342696E+01  0.232424094E+00  0.403188192E-01
   H -0.306871599E+02  0.293276962E+01 -0.201877663E+01
   H  0.305027667E+02 -0.675617215E+00  0.847519939E+00
     4
 # iter = 61000  time[fs]=61.00000
   C -0.660815345E+01 -0.310448426E+00  0.589928253E-01
   C  0.687336508E+01  0.235582456E+00  0.409193286E-01
   H -0.310537048E+02  0.296823983E+01 -0.204261989E+01
   H  0.308653836E+02 -0.684057650E+00  0.858060690E+00
     4
 # iter = 61500  time[fs]=61.50000
   C -0.669585640E+01 -0.314698539E+00  0.602155607E-01
   C  0.696337931E+01  0.238744072E+00  0.415196703E-01
   H -0.314203385E+02  0.300371978E+01 -0.206646968E+01
   H  0.312280943E+02 -0.692501165E+00  0.868604435E+00
     4
 # iter = 62000  time[fs]=62.00000
   C -0.678363390E+01 -0.318952365E+00  0.614387504E-01
   C  0.705346766E+01  0.241908860E+00  0.421198461E-01
   H -0.317870588E+02  0.303920925E+01 -0.209032586E+01
   H  0.315908966E+02 -0.700947693E+00  0.879151109E+00
     4
 # iter = 62500  time[fs]=62.50000
   C -0.687148402E+01 -0.323209815E+00  0.626623863E-01
   C  0.714362823E+01  0.245076740E+00  0.427198577E-01
   H -0.321538639E+02  0.307470805E+01 -0.211418829E+01
   H  0.319537886E+02 -0.709397170E+00  0.889700647E+00
     4
 # iter = 63000  time[fs]=63.00000
   C -0.695940492E+01 -0.327470800E+00  0.638864604E-01
   C  0.723385918E+01  0.248247636E+00  0.433197066E-01
   H -0.325207518E+02  0.311021595E+01 -0.213805682E+01
   H  0.323167682E+02 -0.717849532E+00  0.900252987E+00
     4
 # iter = 63500  time[fs]=63.50000
   C -0.704739484E+01 -0.331735235E+00  0.651109649E-01
   C  0.732415875E+01  0.251421475E+00  0.439193947E-01
   H -0.328877206E+02  0.314573278E+01 -0.216193134E+01
   H  0.326798334E+02 -0.726304720E+00  0.910808068E+00
     4
 # iter = 64000  time[fs]=64.00000
   C -0.713545204E+01 -0.336003038E+00  0.663358923E-01
   C  0.741452523E+01  0.254598184E+00  0.445189237E-01
   H -0.332547687E+02  0.318125833E+01 -0.218581170E+01
   H  0.330429824E+02 -0.734762674E+00  0.921365832E+00
     4
 # iter = 64500  time[fs]=64.50000
   C -0.722357489E+01 -0.340274130E+00  0.675612352E-01
   C  0.750495699E+01  0.257777697E+00  0.451182953E-01
   H -0.336218942E+02  0.321679243E+01 -0.220969778E+01
   H  0.334062135E+02 -0.743223337E+00  0.931926223E+00
     4
 # iter = 65000  time[fs]=65.00000
   C -0.731176180E+01 -0.344548434E+00  0.687869862E-01
   C  0.759545243E+01  0.260959945E+00  0.457175114E-01
   H -0.339890956E+02  0.325233490E+01 -0.223358947E+01
   H  0.337695248E+02 -0.751686655E+00  0.942489186E+00
     4
 # iter = 65500  time[fs]=65.50000
   C -0.740001122E+01 -0.348825878E+00  0.700131385E-01
   C  0.768601003E+01  0.264144867E+00  0.463165736E-01
   H -0.343563713E+02  0.328788556E+01 -0.225748664E+01
   H  0.341329147E+02 -0.760152573E+00  0.953054668E+00
     4
 # iter = 66000  time[fs]=66.00000
   C -0.748832169E+01 -0.353106389E+00  0.712396849E-01
   C  0.777662831E+01  0.267332399E+00  0.469154838E-01
   H -0.347237196E+02  0.332344425E+01 -0.228138919E+01
   H  0.344963814E+02 -0.768621040E+00  0.963622617E+00
     4
 # iter = 66500  time[fs]=66.50000
   C -0.757669176E+01 -0.357389898E+00  0.724666188E-01
   C  0.786730585E+01  0.270522483E+00  0.475142437E-01
   H -0.350911391E+02  0.335901081E+01 -0.230529700E+01
   H  0.348599235E+02 -0.777092005E+00  0.974192985E+00
     4
 # iter = 67000  time[fs]=67.00000
   C -0.766512006E+01 -0.361676340E+00  0.736939336E-01
   C  0.795804128E+01  0.273715061E+00  0.481128551E-01
   H -0.354586283E+02  0.339458507E+01 -0.232920998E+01
   H  0.352235394E+02 -0.785565420E+00  0.984765721E+00
     4
 # iter = 67500  time[fs]=67.50000
   C -0.775360524E+01 -0.365965649E+00  0.749216229E-01
   C  0.804883327E+01  0.276910077E+00  0.487113198E-01
   H -0.358261858E+02  0.343016689E+01 -0.235312800E+01
   H  0.355872276E+02 -0.794041237E+00  0.995340780E+00
     4
 # iter = 68000  time[fs]=68.00000
   C -0.784214603E+01 -0.370257763E+00  0.761496803E-01
   C  0.813968053E+01  0.280107476E+00  0.493096395E-01
   H -0.361938102E+02  0.346575611E+01 -0.237705098E+01
   H  0.359509866E+02 -0.802519409E+00  0.100591812E+01
     4
 # iter = 68500  time[fs]=68.50000
   C -0.793074117E+01 -0.374552621E+00  0.773780997E-01
   C  0.823058182E+01  0.283307208E+00  0.499078160E-01
   H -0.365615001E+02  0.350135260E+01 -0.240097882E+01
   H  0.363148151E+02 -0.810999892E+00  0.101649769E+01
     4
 # iter = 69000  time[fs]=69.00000
   C -0.801938945E+01 -0.378850166E+00  0.786068751E-01
   C  0.832153594E+01  0.286509221E+00  0.505058510E-01
   H -0.369292544E+02  0.353695621E+01 -0.242491142E+01
   H  0.366787116E+02 -0.819482643E+00  0.102707944E+01
     4
 # iter = 69500  time[fs]=69.50000
   C -0.810808971E+01 -0.383150340E+00  0.798360006E-01
   C  0.841254172E+01  0.289713467E+00  0.511037462E-01
   H -0.372970717E+02  0.357256681E+01 -0.244884870E+01
   H  0.370426749E+02 -0.827967619E+00  0.103766335E+01
     4
 # iter = 70000  time[fs]=70.00000
   C -0.819684081E+01 -0.387453089E+00  0.810654704E-01
   C  0.850359804E+01  0.292919898E+00  0.517015033E-01
   H -0.376649508E+02  0.360818426E+01 -0.247279056E+01
   H  0.374067036E+02 -0.836454779E+00  0.104824936E+01
     4
 # iter = 70500  time[fs]=70.50000
   C -0.828564167E+01 -0.391758359E+00  0.822952791E-01
   C  0.859470382E+01  0.296128468E+00  0.522991240E-01
   H -0.380328905E+02  0.364380845E+01 -0.249673691E+01
   H  0.377707966E+02 -0.844944083E+00  0.105883745E+01
     4
 # iter = 71000  time[fs]=71.00000
   C -0.837449121E+01 -0.396066099E+00  0.835254210E-01
   C  0.868585799E+01  0.299339133E+00  0.528966100E-01
   H -0.384008897E+02  0.367943923E+01 -0.252068768E+01
   H  0.381349525E+02 -0.853435492E+00  0.106942756E+01
     4
 # iter = 71500  time[fs]=71.50000
   C -0.846338841E+01 -0.400376258E+00  0.847558908E-01
   C  0.877705954E+01  0.302551850E+00  0.534939630E-01
   H -0.387689472E+02  0.371507650E+01 -0.254464277E+01
   H  0.384991702E+02 -0.861928968E+00  0.108001966E+01
     4
 # iter = 72000  time[fs]=72.00000
   C -0.855233228E+01 -0.404688788E+00  0.859866833E-01
   C  0.886830747E+01  0.305766576E+00  0.540911846E-01
   H -0.391370620E+02  0.375072013E+01 -0.256860212E+01
   H  0.388634486E+02 -0.870424475E+00  0.109061373E+01
     4
 # iter = 72500  time[fs]=72.50000
   C -0.864132185E+01 -0.409003642E+00  0.872177934E-01
   C  0.895960082E+01  0.308983272E+00  0.546882764E-01
   H -0.395052330E+02  0.378637001E+01 -0.259256565E+01
   H  0.392277865E+02 -0.878921976E+00  0.110120971E+01
     4
 # iter = 73000  time[fs]=73.00000
   C -0.873035619E+01 -0.413320775E+00  0.884492159E-01
   C  0.905093866E+01  0.312201898E+00  0.552852401E-01
   H -0.398734592E+02  0.382202603E+01 -0.261653327E+01
   H  0.395921829E+02 -0.887421437E+00  0.111180758E+01
     4
 # iter = 73500  time[fs]=73.50000
   C -0.881943438E+01 -0.417640140E+00  0.896809462E-01
   C  0.914232009E+01  0.315422415E+00  0.558820771E-01
   H -0.402417396E+02  0.385768808E+01 -0.264050492E+01
   H  0.399566367E+02 -0.895922823E+00  0.112240730E+01
     4
 # iter = 74000  time[fs]=74.00000
   C -0.890855554E+01 -0.421961697E+00  0.909129792E-01
   C  0.923374423E+01  0.318644787E+00  0.564787892E-01
   H -0.406100731E+02  0.389335606E+01 -0.266448053E+01
   H  0.403211469E+02 -0.904426102E+00  0.113300884E+01
     4
 # iter = 74500  time[fs]=74.50000
   C -0.899771882E+01 -0.426285401E+00  0.921453104E-01
   C  0.932521023E+01  0.321868977E+00  0.570753778E-01
   H -0.409784589E+02  0.392902985E+01 -0.268846002E+01
   H  0.406857124E+02 -0.912931241E+00  0.114361218E+01
     4
 # iter = 75000  time[fs]=75.00000
   C -0.908692339E+01 -0.430611214E+00  0.933779352E-01
   C  0.941671725E+01  0.325094951E+00  0.576718444E-01
   H -0.413468961E+02  0.396470936E+01 -0.271244332E+01
   H  0.410503323E+02 -0.921438208E+00  0.115421727E+01
     4
 # iter = 75500  time[fs]=75.50000
   C -0.917616843E+01 -0.434939095E+00  0.946108491E-01
   C  0.950826451E+01  0.328322674E+00  0.582681907E-01
   H -0.417153836E+02  0.400039450E+01 -0.273643038E+01
   H  0.414150056E+02 -0.929946974E+00  0.116482409E+01
     4
 # iter = 76000  time[fs]=76.00000
   C -0.926545318E+01 -0.439269005E+00  0.958440476E-01
   C  0.959985122E+01  0.331552114E+00  0.588644179E-01
   H -0.420839208E+02  0.403608516E+01 -0.276042113E+01
   H  0.417797315E+02 -0.938457507E+00  0.117543260E+01
     4
 # iter = 76500  time[fs]=76.50000
   C -0.935477686E+01 -0.443600907E+00  0.970775266E-01
   C  0.969147662E+01  0.334783237E+00  0.594605278E-01
   H -0.424525066E+02  0.407178126E+01 -0.278441550E+01
   H  0.421445090E+02 -0.946969779E+00  0.118604279E+01
     4
 # iter = 77000  time[fs]=77.00000
   C -0.944413873E+01 -0.447934766E+00  0.983112817E-01
   C  0.978313997E+01  0.338016014E+00  0.600565216E-01
   H -0.428211403E+02  0.410748270E+01 -0.280841344E+01
   H  0.425093372E+02 -0.955483762E+00  0.119665462E+01
     4
 # iter = 77500  time[fs]=77.50000
   C -0.953353808E+01 -0.452270544E+00  0.995453090E-01
   C  0.987484057E+01  0.341250413E+00  0.606524008E-01
   H -0.431898210E+02  0.414318939E+01 -0.283241489E+01
   H  0.428742153E+02 -0.963999427E+00  0.120726807E+01
     4
 # iter = 78000  time[fs]=78.00000
   C -0.962297420E+01 -0.456608208E+00  0.100779604E+00
   C  0.996657770E+01  0.344486405E+00  0.612481668E-01
   H -0.435585481E+02  0.417890126E+01 -0.285641978E+01
   H  0.432391425E+02 -0.972516748E+00  0.121788311E+01
     4
 # iter = 78500  time[fs]=78.50000
   C -0.971244642E+01 -0.460947724E+00  0.102014164E+00
   C  0.100583507E+02  0.347723961E+00  0.618438210E-01
   H -0.439273206E+02  0.421461821E+01 -0.288042806E+01
   H  0.436041178E+02 -0.981035698E+00  0.122849970E+01
     4
 # iter = 79000  time[fs]=79.00000
   C -0.980195407E+01 -0.465289059E+00  0.103248983E+00
   C  0.101501589E+02  0.350963054E+00  0.624393648E-01
   H -0.442961378E+02  0.425034016E+01 -0.290443967E+01
   H  0.439691407E+02 -0.989556252E+00  0.123911784E+01
     4
 # iter = 79500  time[fs]=79.50000
   C -0.989149651E+01 -0.469632182E+00  0.104484059E+00
   C  0.102420017E+02  0.354203655E+00  0.630347996E-01
   H -0.446649991E+02  0.428606704E+01 -0.292845457E+01
   H  0.443342101E+02 -0.998078383E+00  0.124973749E+01
     4
 # iter = 80000  time[fs]=80.00000
   C -0.998107310E+01 -0.473977062E+00  0.105719388E+00
   C  0.103338784E+02  0.357445738E+00  0.636301266E-01
   H -0.450339037E+02  0.432179876E+01 -0.295247270E+01
   H  0.446993255E+02 -0.100660207E+01  0.126035863E+01
