     4
 # iter = 25000  time[fs]=25.00000
   C -0.967813190E+00 -0.111743815E-01 -0.295874806E-01
   C  0.102733715E+01 -0.600827544E-01  0.565915373E-01
   H -0.523346899E+01  0.249210816E+00  0.156892412E+00
   H  0.536432428E+01  0.316089952E+00 -0.561124986E+00
     4
 # iter = 25500  time[fs]=25.50000
   C -0.101476510E+01 -0.133304430E-01 -0.315215132E-01
   C  0.107217677E+01 -0.647861006E-01  0.587110485E-01
   H -0.557642877E+01  0.256715073E+00  0.160892636E+00
   H  0.567193034E+01  0.329076247E+00 -0.606012833E+00
     4
 # iter = 26000  time[fs]=26.00000
   C -0.106704343E+01 -0.161584055E-01 -0.344304051E-01
   C  0.112038554E+01 -0.708085877E-01  0.598578829E-01
   H -0.592750137E+01  0.258952343E+00  0.159592227E+00
   H  0.597674691E+01  0.336832414E+00 -0.656619229E+00
     4
 # iter = 26500  time[fs]=26.50000
   C -0.112193664E+01 -0.173590916E-01 -0.359887336E-01
   C  0.117510066E+01 -0.745937824E-01  0.635578562E-01
   H -0.627029145E+01  0.271986641E+00  0.169060028E+00
   H  0.629460306E+01  0.355436590E+00 -0.696818401E+00
     4
 # iter = 27000  time[fs]=27.00000
   C -0.117894648E+01 -0.168273062E-01 -0.360662538E-01
   C  0.123611157E+01 -0.759550206E-01  0.699687537E-01
   H -0.660374684E+01  0.296600475E+00  0.190082361E+00
   H  0.662606021E+01  0.385669692E+00 -0.725787299E+00
     4
 # iter = 27500  time[fs]=27.50000
   C -0.123943126E+01 -0.162889038E-01 -0.363653550E-01
   C  0.130042190E+01 -0.775189050E-01  0.764371256E-01
   H -0.693962075E+01  0.320819214E+00  0.210687622E+00
   H  0.695893465E+01  0.415542713E+00 -0.755477370E+00
     4
 # iter = 28000  time[fs]=28.00000
   C -0.130427907E+01 -0.169667513E-01 -0.380874508E-01
   C  0.136583854E+01 -0.811418644E-01  0.810821802E-01
   H -0.728619692E+01  0.336168788E+00  0.222404297E+00
   H  0.728457402E+01  0.436570887E+00 -0.794341023E+00
     4
 # iter = 28500  time[fs]=28.50000
   C -0.137270612E+01 -0.183769777E-01 -0.407293596E-01
   C  0.143282176E+01 -0.860614669E-01  0.846445768E-01
   H -0.763989324E+01  0.346062442E+00  0.228647879E+00
   H  0.760625107E+01  0.452168768E+00 -0.838936411E+00
     4
 # iter = 29000  time[fs]=29.00000
   C -0.144324616E+01 -0.193214892E-01 -0.430756527E-01
   C  0.150295835E+01 -0.904205020E-01  0.889620717E-01
   H -0.799217532E+01  0.358885521E+00  0.237805671E+00
   H  0.793223553E+01  0.470728111E+00 -0.880848301E+00
     4
 # iter = 29500  time[fs]=29.50000
   C -0.151524795E+01 -0.193898129E-01 -0.447002603E-01
   C  0.157665117E+01 -0.935736157E-01  0.946625395E-01
   H -0.834002186E+01  0.377530187E+00  0.252771489E+00
   H  0.826531245E+01  0.495142292E+00 -0.917162381E+00
     4
 # iter = 30000  time[fs]=30.00000
   C -0.158908338E+01 -0.191698235E-01 -0.461770385E-01
   C  0.165279305E+01 -0.964108141E-01  0.100840260E+00
   H -0.868739047E+01  0.397927247E+00  0.269477535E+00
   H  0.860130977E+01  0.521336698E+00 -0.951934308E+00
     4
 # iter = 30500  time[fs]=30.50000
   C -0.166521432E+01 -0.193162047E-01 -0.481481315E-01
   C  0.173019619E+01 -0.999261569E-01  0.106487116E+00
   H -0.903872066E+01  0.415539030E+00  0.283387336E+00
   H  0.893559706E+01  0.544767865E+00 -0.989690553E+00
     4
 # iter = 31000  time[fs]=31.00000
   C -0.174348232E+01 -0.198418611E-01 -0.506152685E-01
   C  0.180867901E+01 -0.104128930E+00  0.111581306E+00
   H -0.939399151E+01  0.430298511E+00  0.294434925E+00
   H  0.926802901E+01  0.565367373E+00 -0.103048447E+01
     4
 # iter = 31500  time[fs]=31.50000
   C -0.182331417E+01 -0.203259650E-01 -0.531476598E-01
   C  0.188874419E+01 -0.108363183E+00  0.116767620E+00
   H -0.975017029E+01  0.445159301E+00  0.305574851E+00
   H  0.960149257E+01  0.586090444E+00 -0.107134743E+01
     4
 # iter = 32000  time[fs]=32.00000
   C -0.190431392E+01 -0.205084989E-01 -0.554763824E-01
   C  0.197066275E+01 -0.112221157E+00  0.122443835E+00
   H -0.101053560E+02  0.461951533E+00  0.318638070E+00
   H  0.993775711E+01  0.608767854E+00 -0.111043656E+01
     4
 # iter = 32500  time[fs]=32.50000
   C -0.198647398E+01 -0.205035080E-01 -0.577075026E-01
   C  0.205414448E+01 -0.115870821E+00  0.128433024E+00
   H -0.104602648E+02  0.479895662E+00  0.332845759E+00
   H  0.102759856E+02  0.632618298E+00 -0.114852210E+01
     4
 # iter = 33000  time[fs]=33.00000
   C -0.206991758E+01 -0.205431103E-01 -0.600659834E-01
   C  0.213872975E+01 -0.119662359E+00  0.134376951E+00
   H -0.108164440E+02  0.497387374E+00  0.346594239E+00
   H  0.106145207E+02  0.656034979E+00 -0.118720078E+01
     4
 # iter = 33500  time[fs]=33.50000
   C -0.215461652E+01 -0.206966625E-01 -0.626147608E-01
   C  0.222421979E+01 -0.123696503E+00  0.140167655E+00
   H -0.111743131E+02  0.513955598E+00  0.359413006E+00
   H  0.109528440E+02  0.678545481E+00 -0.122693583E+01
     4
 # iter = 34000  time[fs]=34.00000
   C -0.224038709E+01 -0.208679862E-01 -0.652518860E-01
   C  0.231067969E+01 -0.127820195E+00  0.145951682E+00
   H -0.115331433E+02  0.530281966E+00  0.371984201E+00
   H  0.112915954E+02  0.700831242E+00 -0.126703744E+01
     4
 # iter = 34500  time[fs]=34.50000
   C -0.232705636E+01 -0.209628858E-01 -0.678779652E-01
   C  0.239817975E+01 -0.131883974E+00  0.151872617E+00
   H -0.118922251E+02  0.547033054E+00  0.384974852E+00
   H  0.116314031E+02  0.723558691E+00 -0.130683151E+01
     4
 # iter = 35000  time[fs]=35.00000
   C -0.241455636E+01 -0.209844139E-01 -0.704913564E-01
   C  0.248664813E+01 -0.135888313E+00  0.157924672E+00
   H -0.122515318E+02  0.564196371E+00  0.398372877E+00
   H  0.119722193E+02  0.746714601E+00 -0.134632422E+01
     4
 # iter = 35500  time[fs]=35.50000
   C -0.250287905E+01 -0.209887091E-01 -0.731439503E-01
   C  0.257593786E+01 -0.139915686E+00  0.164020550E+00
   H -0.126114112E+02  0.581388410E+00  0.411795135E+00
   H  0.123136272E+02  0.769914421E+00 -0.138589358E+01
     4
 # iter = 36000  time[fs]=36.00000
   C -0.259199735E+01 -0.210068018E-01 -0.758629261E-01
   C  0.266594628E+01 -0.144010337E+00  0.170111626E+00
   H -0.129720395E+02  0.598399941E+00  0.425032727E+00
   H  0.126553874E+02  0.792948088E+00 -0.142574364E+01
     4
 # iter = 36500  time[fs]=36.50000
   C -0.268184658E+01 -0.210267439E-01 -0.786328378E-01
   C  0.275664191E+01 -0.148150780E+00  0.176215400E+00
   H -0.133332966E+02  0.615320687E+00  0.438175676E+00
   H  0.129975618E+02  0.815904808E+00 -0.146577963E+01
     4
 # iter = 37000  time[fs]=37.00000
   C -0.277235690E+01 -0.210266246E-01 -0.814285906E-01
   C  0.284801307E+01 -0.152300501E+00  0.182364748E+00
   H -0.136949962E+02  0.632309204E+00  0.451382810E+00
   H  0.133402836E+02  0.838942723E+00 -0.150583822E+01
     4
 # iter = 37500  time[fs]=37.50000
   C -0.286347986E+01 -0.210016960E-01 -0.842425323E-01
   C  0.294002574E+01 -0.156449623E+00  0.188566220E+00
   H -0.140570740E+02  0.649403824E+00  0.464692706E+00
   H  0.136835674E+02  0.862099670E+00 -0.154587678E+01
     4
 # iter = 38000  time[fs]=38.00000
   C -0.295518504E+01 -0.209613976E-01 -0.870814478E-01
   C  0.303262768E+01 -0.160610302E+00  0.194804616E+00
   H -0.144195672E+02  0.666543468E+00  0.478044513E+00
   H  0.140273299E+02  0.885314014E+00 -0.158595247E+01
     4
 # iter = 38500  time[fs]=38.50000
   C -0.304744410E+01 -0.209138923E-01 -0.899510695E-01
   C  0.312577183E+01 -0.164792934E+00  0.201066742E+00
   H -0.147825062E+02  0.683675527E+00  0.491385825E+00
   H  0.143714981E+02  0.908532624E+00 -0.162611423E+01
     4
 # iter = 39000  time[fs]=39.00000
   C -0.314022400E+01 -0.208595797E-01 -0.928495666E-01
   C  0.321942594E+01 -0.168996163E+00  0.207351385E+00
   H -0.151458692E+02  0.700801135E+00  0.504717966E+00
   H  0.147160539E+02  0.931756193E+00 -0.166635748E+01
     4
 # iter = 39500  time[fs]=39.50000
   C -0.323349097E+01 -0.207954062E-01 -0.957718360E-01
   C  0.331356563E+01 -0.173213487E+00  0.213662678E+00
   H -0.155096121E+02  0.717945157E+00  0.518065973E+00
   H  0.150610045E+02  0.955009187E+00 -0.170665409E+01
     4
 # iter = 40000  time[fs]=40.00000
   C -0.332721559E+01 -0.207201933E-01 -0.987148114E-01
   C  0.340816599E+01 -0.177441432E+00  0.220001907E+00
   H -0.158737055E+02  0.735119077E+00  0.531441487E+00
   H  0.154063447E+02  0.978302703E+00 -0.174698954E+01
     4
 # iter = 40500  time[fs]=40.50000
   C -0.342137314E+01 -0.206352739E-01 -0.101678085E+00
   C  0.350320033E+01 -0.181680516E+00  0.226366535E+00
   H -0.162381389E+02  0.752316586E+00  0.544838346E+00
   H  0.157520527E+02  0.100163005E+01 -0.178736732E+01
     4
 # iter = 41000  time[fs]=41.00000
   C -0.351594127E+01 -0.205423415E-01 -0.104661742E+00
   C  0.359864330E+01 -0.185931930E+00  0.232753500E+00
   H -0.166029059E+02  0.769528615E+00  0.558247616E+00
   H  0.160981048E+02  0.102498179E+01 -0.182779383E+01
     4
 # iter = 41500  time[fs]=41.50000
   C -0.361089847E+01 -0.204421042E-01 -0.107665001E+00
   C  0.369447276E+01 -0.190195456E+00  0.239161283E+00
   H -0.169679940E+02  0.786752742E+00  0.571666998E+00
   H  0.164444850E+02  0.104835517E+01 -0.186826899E+01
     4
 # iter = 42000  time[fs]=42.00000
   C -0.370622417E+01 -0.203345928E-01 -0.110686514E+00
   C  0.379066919E+01 -0.194469932E+00  0.245589434E+00
   H -0.173333875E+02  0.803991068E+00  0.585098707E+00
   H  0.167911824E+02  0.107175196E+01 -0.190878835E+01
     4
 # iter = 42500  time[fs]=42.50000
   C -0.380189936E+01 -0.202199010E-01 -0.113725093E+00
   C  0.388721436E+01 -0.198754380E+00  0.252037429E+00
   H -0.176990719E+02  0.821245071E+00  0.598544329E+00
   H  0.171381864E+02  0.109517333E+01 -0.194934820E+01
     4
 # iter = 43000  time[fs]=43.00000
   C -0.389790667E+01 -0.200984105E-01 -0.116779927E+00
   C  0.398409088E+01 -0.203048346E+00  0.258504324E+00
   H -0.180650357E+02  0.838514059E+00  0.612003268E+00
   H  0.174854851E+02  0.111861832E+01 -0.198994714E+01
     4
 # iter = 43500  time[fs]=43.50000
   C -0.399423005E+01 -0.199705889E-01 -0.119850377E+00
   C  0.408128240E+01 -0.207351579E+00  0.264989066E+00
   H -0.184312689E+02  0.855796588E+00  0.625474174E+00
   H  0.178330663E+02  0.114208518E+01 -0.203058464E+01
     4
 # iter = 44000  time[fs]=44.00000
   C -0.409085449E+01 -0.198368050E-01 -0.122935776E+00
   C  0.417877380E+01 -0.211663743E+00  0.271490771E+00
   H -0.187977616E+02  0.873091772E+00  0.638956243E+00
   H  0.181809188E+02  0.116557277E+01 -0.207125970E+01
     4
 # iter = 44500  time[fs]=44.50000
   C -0.418776590E+01 -0.196973263E-01 -0.126035426E+00
   C  0.427655106E+01 -0.215984408E+00  0.278008728E+00
   H -0.191645038E+02  0.890399307E+00  0.652449252E+00
   H  0.185290330E+02  0.118908054E+01 -0.211197087E+01
     4
 # iter = 45000  time[fs]=45.00000
   C -0.428495109E+01 -0.195523925E-01 -0.129148665E+00
   C  0.437460113E+01 -0.220313155E+00  0.284542287E+00
   H -0.195314863E+02  0.907718968E+00  0.665953049E+00
   H  0.188773994E+02  0.121260802E+01 -0.215271667E+01
     4
 # iter = 45500  time[fs]=45.50000
   C -0.438239777E+01 -0.194022525E-01 -0.132274895E+00
   C  0.447291175E+01 -0.224649631E+00  0.291090799E+00
   H -0.198987001E+02  0.925050369E+00  0.679467317E+00
   H  0.192260092E+02  0.123615459E+01 -0.219349591E+01
     4
 # iter = 46000  time[fs]=46.00000
   C -0.448009443E+01 -0.192471536E-01 -0.135413573E+00
   C  0.457147139E+01 -0.228993526E+00  0.297653631E+00
   H -0.202661373E+02  0.942393039E+00  0.692991648E+00
   H  0.195748537E+02  0.125971957E+01 -0.223430755E+01
     4
 # iter = 46500  time[fs]=46.50000
   C -0.457803027E+01 -0.190873245E-01 -0.138564183E+00
   C  0.467026928E+01 -0.233344546E+00  0.304230192E+00
   H -0.206337899E+02  0.959746549E+00  0.706525676E+00
   H  0.199239248E+02  0.128330231E+01 -0.227515057E+01
     4
 # iter = 47000  time[fs]=47.00000
   C -0.467619515E+01 -0.189229736E-01 -0.141726236E+00
   C  0.476929530E+01 -0.237702404E+00  0.310819936E+00
   H -0.210016506E+02  0.977110539E+00  0.720069093E+00
   H  0.202732149E+02  0.130690225E+01 -0.231602396E+01
     4
 # iter = 47500  time[fs]=47.50000
   C -0.477457954E+01 -0.187542941E-01 -0.144899269E+00
   C  0.486853994E+01 -0.242066827E+00  0.317422350E+00
   H -0.213697124E+02  0.994484677E+00  0.733621624E+00
   H  0.206227167E+02  0.133051887E+01 -0.235692676E+01
     4
 # iter = 48000  time[fs]=48.00000
   C -0.487317446E+01 -0.185814692E-01 -0.148082846E+00
   C  0.496799425E+01 -0.246437559E+00  0.324036949E+00
   H -0.217379686E+02  0.101186864E+01  0.747182993E+00
   H  0.209724232E+02  0.135415167E+01 -0.239785805E+01
     4
 # iter = 48500  time[fs]=48.50000
   C -0.497197147E+01 -0.184046720E-01 -0.151276557E+00
   C  0.506764980E+01 -0.250814361E+00  0.330663272E+00
   H -0.221064128E+02  0.102926211E+01  0.760752930E+00
   H  0.213223279E+02  0.137780015E+01 -0.243881697E+01
     4
 # iter = 49000  time[fs]=49.00000
   C -0.507096259E+01 -0.182240658E-01 -0.154480017E+00
   C  0.516749864E+01 -0.255197006E+00  0.337300883E+00
   H -0.224750389E+02  0.104666479E+01  0.774331176E+00
   H  0.216724244E+02  0.140146383E+01 -0.247980268E+01
     4
 # iter = 49500  time[fs]=49.50000
   C -0.517014030E+01 -0.180398041E-01 -0.157692859E+00
   C  0.526753327E+01 -0.259585281E+00  0.343949370E+00
   H -0.228438413E+02  0.106407639E+01  0.787917488E+00
   H  0.220227067E+02  0.142514227E+01 -0.252081439E+01
     4
 # iter = 50000  time[fs]=50.00000
   C -0.526949750E+01 -0.178520314E-01 -0.160914738E+00
   C  0.536774661E+01 -0.263978982E+00  0.350608345E+00
   H -0.232128144E+02  0.108149663E+01  0.801511630E+00
   H  0.223731692E+02  0.144883505E+01 -0.256185135E+01
     4
 # iter = 50500  time[fs]=50.50000
   C -0.536902746E+01 -0.176608841E-01 -0.164145324E+00
   C  0.546813194E+01 -0.268377917E+00  0.357277438E+00
   H -0.235819529E+02  0.109892527E+01  0.815113382E+00
   H  0.227238064E+02  0.147254175E+01 -0.260291282E+01
     4
 # iter = 51000  time[fs]=51.00000
   C -0.546872382E+01 -0.174664915E-01 -0.167384308E+00
   C  0.556868292E+01 -0.272781903E+00  0.363956297E+00
   H -0.239512520E+02  0.111636205E+01  0.828722529E+00
   H  0.230746129E+02  0.149626198E+01 -0.264399813E+01
     4
 # iter = 51500  time[fs]=51.50000
   C -0.556858055E+01 -0.172689755E-01 -0.170631395E+00
   C  0.566939354E+01 -0.277190767E+00  0.370644590E+00
   H -0.243207067E+02  0.113380673E+01  0.842338865E+00
   H  0.234255840E+02  0.151999536E+01 -0.268510659E+01
     4
 # iter = 52000  time[fs]=52.00000
   C -0.566859194E+01 -0.170684519E-01 -0.173886304E+00
   C  0.577025811E+01 -0.281604345E+00  0.377342000E+00
   H -0.246903126E+02  0.115125909E+01  0.855962194E+00
   H  0.237767147E+02  0.154374154E+01 -0.272623758E+01
     4
 # iter = 52500  time[fs]=52.50000
   C -0.576875256E+01 -0.168650301E-01 -0.177148771E+00
   C  0.587127122E+01 -0.286022481E+00  0.384048225E+00
   H -0.250600652E+02  0.116871890E+01  0.869592328E+00
   H  0.241280006E+02  0.156750017E+01 -0.276739048E+01
     4
 # iter = 53000  time[fs]=53.00000
   C -0.586905727E+01 -0.166588139E-01 -0.180418541E+00
   C  0.597242772E+01 -0.290445024E+00  0.390762980E+00
   H -0.254299603E+02  0.118618597E+01  0.883229084E+00
   H  0.244794372E+02  0.159127092E+01 -0.280856470E+01
     4
 # iter = 53500  time[fs]=53.50000
   C -0.596950115E+01 -0.164499020E-01 -0.183695375E+00
   C  0.607372274E+01 -0.294871834E+00  0.397485991E+00
   H -0.257999941E+02  0.120366008E+01  0.896872291E+00
   H  0.248310203E+02  0.161505346E+01 -0.284975969E+01
     4
 # iter = 54000  time[fs]=54.00000
   C -0.607007956E+01 -0.162383881E-01 -0.186979043E+00
   C  0.617515163E+01 -0.299302775E+00  0.404216998E+00
   H -0.261701625E+02  0.122114106E+01  0.910521779E+00
   H  0.251827459E+02  0.163884749E+01 -0.289097490E+01
     4
 # iter = 54500  time[fs]=54.50000
   C -0.617078806E+01 -0.160243611E-01 -0.190269326E+00
   C  0.627670998E+01 -0.303737718E+00  0.410955751E+00
   H -0.265404619E+02  0.123862871E+01  0.924177390E+00
   H  0.255346103E+02  0.166265272E+01 -0.293220981E+01
     4
 # iter = 55000  time[fs]=55.00000
   C -0.627162243E+01 -0.158079057E-01 -0.193566016E+00
   C  0.637839357E+01 -0.308176541E+00  0.417702014E+00
   H -0.269108889E+02  0.125612285E+01  0.937838967E+00
   H  0.258866095E+02  0.168646887E+01 -0.297346391E+01
     4
 # iter = 55500  time[fs]=55.50000
   C -0.637257863E+01 -0.155891026E-01 -0.196868915E+00
   C  0.648019838E+01 -0.312619125E+00  0.424455561E+00
   H -0.272814399E+02  0.127362333E+01  0.951506363E+00
   H  0.262387402E+02  0.171029566E+01 -0.301473674E+01
     4
 # iter = 56000  time[fs]=56.00000
   C -0.647365282E+01 -0.153680285E-01 -0.200177832E+00
   C  0.658212060E+01 -0.317065360E+00  0.431216174E+00
   H -0.276521117E+02  0.129112997E+01  0.965179434E+00
   H  0.265909988E+02  0.173413282E+01 -0.305602782E+01
     4
 # iter = 56500  time[fs]=56.50000
   C -0.657484134E+01 -0.151447566E-01 -0.203492586E+00
   C  0.668415655E+01 -0.321515136E+00  0.437983646E+00
   H -0.280229012E+02  0.130864262E+01  0.978858043E+00
   H  0.269433822E+02  0.175798011E+01 -0.309733670E+01
     4
 # iter = 57000  time[fs]=57.00000
   C -0.667614069E+01 -0.149193569E-01 -0.206813003E+00
   C  0.678630276E+01 -0.325968352E+00  0.444757780E+00
   H -0.283938054E+02  0.132616113E+01  0.992542055E+00
   H  0.272958870E+02  0.178183728E+01 -0.313866296E+01
     4
 # iter = 57500  time[fs]=57.50000
   C -0.677754751E+01 -0.146918961E-01 -0.210138917E+00
   C  0.688855589E+01 -0.330424909E+00  0.451538384E+00
   H -0.287648214E+02  0.134368535E+01  0.100623134E+01
   H  0.276485103E+02  0.180570410E+01 -0.318000619E+01
     4
 # iter = 58000  time[fs]=58.00000
   C -0.687905860E+01 -0.144624377E-01 -0.213470169E+00
   C  0.699091273E+01 -0.334884713E+00  0.458325278E+00
   H -0.291359463E+02  0.136121514E+01  0.101992578E+01
   H  0.280012492E+02  0.182958034E+01 -0.322136598E+01
     4
 # iter = 58500  time[fs]=58.50000
   C -0.698067089E+01 -0.142310426E-01 -0.216806608E+00
   C  0.709337025E+01 -0.339347673E+00  0.465118285E+00
   H -0.295071775E+02  0.137875037E+01  0.103362526E+01
   H  0.283541008E+02  0.185346578E+01 -0.326274194E+01
     4
 # iter = 59000  time[fs]=59.00000
   C -0.708238146E+01 -0.139977692E-01 -0.220148086E+00
   C  0.719592551E+01 -0.343813704E+00  0.471917240E+00
   H -0.298785124E+02  0.139629091E+01  0.104732965E+01
   H  0.287070623E+02  0.187736020E+01 -0.330413371E+01
     4
 # iter = 59500  time[fs]=59.50000
   C -0.718418748E+01 -0.137626731E-01 -0.223494463E+00
   C  0.729857572E+01 -0.348282720E+00  0.478721981E+00
   H -0.302499485E+02  0.141383663E+01  0.106103885E+01
   H  0.290601312E+02  0.190126342E+01 -0.334554092E+01
     4
 # iter = 60000  time[fs]=60.00000
   C -0.728608626E+01 -0.135258077E-01 -0.226845606E+00
   C  0.740131818E+01 -0.352754644E+00  0.485532353E+00
   H -0.306214833E+02  0.143138740E+01  0.107475274E+01
   H  0.294133050E+02  0.192517522E+01 -0.338696322E+01
     4
 # iter = 60500  time[fs]=60.50000
   C -0.738807522E+01 -0.132872240E-01 -0.230201386E+00
   C  0.750415032E+01 -0.357229397E+00  0.492348209E+00
   H -0.309931146E+02  0.144894313E+01  0.108847124E+01
   H  0.297665811E+02  0.194909542E+01 -0.342840028E+01
     4
 # iter = 61000  time[fs]=61.00000
   C -0.749015188E+01 -0.130469711E-01 -0.233561678E+00
   C  0.760706968E+01 -0.361706907E+00  0.499169406E+00
   H -0.313648401E+02  0.146650368E+01  0.110219422E+01
   H  0.301199572E+02  0.197302383E+01 -0.346985178E+01
     4
 # iter = 61500  time[fs]=61.50000
   C -0.759231384E+01 -0.128050959E-01 -0.236926363E+00
   C  0.771007387E+01 -0.366187102E+00  0.505995806E+00
   H -0.317366577E+02  0.148406895E+01  0.111592160E+01
   H  0.304734311E+02  0.199696028E+01 -0.351131739E+01
     4
 # iter = 62000  time[fs]=62.00000
   C -0.769455883E+01 -0.125616436E-01 -0.240295327E+00
   C  0.781316062E+01 -0.370669914E+00  0.512827277E+00
   H -0.321085652E+02  0.150163884E+01  0.112965329E+01
   H  0.308270004E+02  0.202090459E+01 -0.355279682E+01
     4
 # iter = 62500  time[fs]=62.50000
   C -0.779688464E+01 -0.123166574E-01 -0.243668459E+00
   C  0.791632773E+01 -0.375155277E+00  0.519663693E+00
   H -0.324805606E+02  0.151921325E+01  0.114338918E+01
   H  0.311806632E+02  0.204485660E+01 -0.359428977E+01
     4
 # iter = 63000  time[fs]=63.00000
   C -0.789928916E+01 -0.120701789E-01 -0.247045655E+00
   C  0.801957310E+01 -0.379643129E+00  0.526504931E+00
   H -0.328526420E+02  0.153679207E+01  0.115712920E+01
   H  0.315344174E+02  0.206881614E+01 -0.363579596E+01
     4
 # iter = 63500  time[fs]=63.50000
   C -0.800177034E+01 -0.118222480E-01 -0.250426810E+00
   C  0.812289471E+01 -0.384133407E+00  0.533350873E+00
   H -0.332248075E+02  0.155437521E+01  0.117087326E+01
   H  0.318882608E+02  0.209278305E+01 -0.367731510E+01
     4
 # iter = 64000  time[fs]=64.00000
   C -0.810432624E+01 -0.115729032E-01 -0.253811828E+00
   C  0.822629060E+01 -0.388626054E+00  0.540201405E+00
   H -0.335970552E+02  0.157196258E+01  0.118462127E+01
   H  0.322421917E+02  0.211675719E+01 -0.371884693E+01
     4
 # iter = 64500  time[fs]=64.50000
   C -0.820695497E+01 -0.113221814E-01 -0.257200614E+00
   C  0.832975889E+01 -0.393121013E+00  0.547056418E+00
   H -0.339693834E+02  0.158955409E+01  0.119837315E+01
   H  0.325962081E+02  0.214073841E+01 -0.376039120E+01
     4
 # iter = 65000  time[fs]=65.00000
   C -0.830965470E+01 -0.110701182E-01 -0.260593075E+00
   C  0.843329777E+01 -0.397618228E+00  0.553915805E+00
   H -0.343417903E+02  0.160714965E+01  0.121212884E+01
   H  0.329503083E+02  0.216472656E+01 -0.380194765E+01
     4
 # iter = 65500  time[fs]=65.50000
   C -0.841242370E+01 -0.108167478E-01 -0.263989124E+00
   C  0.853690551E+01 -0.402117648E+00  0.560779465E+00
   H -0.347142744E+02  0.162474918E+01  0.122588824E+01
   H  0.333044904E+02  0.218872151E+01 -0.384351603E+01
     4
 # iter = 66000  time[fs]=66.00000
   C -0.851526026E+01 -0.105621033E-01 -0.267388676E+00
   C  0.864058042E+01 -0.406619221E+00  0.567647298E+00
   H -0.350868339E+02  0.164235259E+01  0.123965129E+01
   H  0.336587529E+02  0.221272312E+01 -0.388509611E+01
     4
 # iter = 66500  time[fs]=66.50000
   C -0.861816276E+01 -0.103062162E-01 -0.270791649E+00
   C  0.874432087E+01 -0.411122898E+00  0.574519210E+00
   H -0.354594674E+02  0.165995982E+01  0.125341791E+01
   H  0.340130939E+02  0.223673126E+01 -0.392668766E+01
     4
 # iter = 67000  time[fs]=67.00000
   C -0.872112963E+01 -0.100491174E-01 -0.274197963E+00
   C  0.884812531E+01 -0.415628631E+00  0.581395108E+00
   H -0.358321733E+02  0.167757077E+01  0.126718805E+01
   H  0.343675120E+02  0.226074580E+01 -0.396829046E+01
     4
 # iter = 67500  time[fs]=67.50000
   C -0.882415936E+01 -0.979083636E-02 -0.277607543E+00
   C  0.895199223E+01 -0.420136375E+00  0.588274904E+00
   H -0.362049501E+02  0.169518538E+01  0.128096162E+01
   H  0.347220056E+02  0.228476663E+01 -0.400990428E+01
     4
 # iter = 68000  time[fs]=68.00000
   C -0.892725047E+01 -0.953140155E-02 -0.281020312E+00
   C  0.905592015E+01 -0.424646085E+00  0.595158511E+00
   H -0.365777965E+02  0.171280358E+01  0.129473857E+01
   H  0.350765732E+02  0.230879362E+01 -0.405152893E+01
     4
 # iter = 68500  time[fs]=68.50000
   C -0.903040155E+01 -0.927084049E-02 -0.284436202E+00
   C  0.915990769E+01 -0.429157718E+00  0.602045846E+00
   H -0.369507110E+02  0.173042529E+01  0.130851883E+01
   H  0.354312134E+02  0.233282665E+01 -0.409316419E+01
     4
 # iter = 69000  time[fs]=69.00000
   C -0.913361124E+01 -0.900917976E-02 -0.287855141E+00
   C  0.926395347E+01 -0.433671233E+00  0.608936827E+00
   H -0.373236924E+02  0.174805046E+01  0.132230234E+01
   H  0.357859246E+02  0.235686562E+01 -0.413480986E+01
     4
 # iter = 69500  time[fs]=69.50000
   C -0.923687821E+01 -0.874644499E-02 -0.291277063E+00
   C  0.936805618E+01 -0.438186588E+00  0.615831379E+00
   H -0.376967393E+02  0.176567900E+01  0.133608903E+01
   H  0.361407057E+02  0.238091041E+01 -0.417646576E+01
     4
 # iter = 70000  time[fs]=70.00000
   C -0.934020118E+01 -0.848266099E-02 -0.294701904E+00
   C  0.947221454E+01 -0.442703746E+00  0.622729423E+00
   H -0.380698504E+02  0.178331086E+01  0.134987886E+01
   H  0.364955551E+02  0.240496091E+01 -0.421813169E+01
     4
 # iter = 70500  time[fs]=70.50000
   C -0.944357892E+01 -0.821785172E-02 -0.298129600E+00
   C  0.957642734E+01 -0.447222667E+00  0.629630888E+00
   H -0.384430245E+02  0.180094597E+01  0.136367177E+01
   H  0.368504716E+02  0.242901703E+01 -0.425980748E+01
     4
 # iter = 71000  time[fs]=71.00000
   C -0.954701022E+01 -0.795204033E-02 -0.301560090E+00
   C  0.968069336E+01 -0.451743317E+00  0.636535702E+00
   H -0.388162605E+02  0.181858428E+01  0.137746769E+01
   H  0.372054540E+02  0.245307866E+01 -0.430149294E+01
     4
 # iter = 71500  time[fs]=71.50000
   C -0.965049394E+01 -0.768524925E-02 -0.304993317E+00
   C  0.978501147E+01 -0.456265658E+00  0.643443797E+00
   H -0.391895572E+02  0.183622573E+01  0.139126658E+01
   H  0.375605010E+02  0.247714571E+01 -0.434318790E+01
     4
 # iter = 72000  time[fs]=72.00000
   C -0.975402894E+01 -0.741750015E-02 -0.308429223E+00
   C  0.988938053E+01 -0.460789658E+00  0.650355106E+00
   H -0.395629134E+02  0.185387025E+01  0.140506839E+01
   H  0.379156114E+02  0.250121807E+01 -0.438489219E+01
     4
 # iter = 72500  time[fs]=72.50000
   C -0.985761414E+01 -0.714881402E-02 -0.311867752E+00
   C  0.999379948E+01 -0.465315281E+00  0.657269563E+00
   H -0.399363281E+02  0.187151780E+01  0.141887305E+01
   H  0.382707841E+02  0.252529566E+01 -0.442660566E+01
     4
 # iter = 73000  time[fs]=73.00000
   C -0.996124849E+01 -0.687921119E-02 -0.315308851E+00
   C  0.100982673E+02 -0.469842497E+00  0.664187107E+00
   H -0.403098001E+02  0.188916832E+01  0.143268053E+01
   H  0.386260180E+02  0.254937838E+01 -0.446832813E+01
     4
 # iter = 73500  time[fs]=73.50000
   C -0.100649310E+02 -0.660871134E-02 -0.318752467E+00
   C  0.102027829E+02 -0.474371273E+00  0.671107676E+00
   H -0.406833285E+02  0.190682175E+01  0.144649078E+01
   H  0.389813119E+02  0.257346614E+01 -0.451005946E+01
     4
 # iter = 74000  time[fs]=74.00000
   C -0.101686606E+02 -0.633733353E-02 -0.322198552E+00
   C  0.103073453E+02 -0.478901579E+00  0.678031211E+00
   H -0.410569123E+02  0.192447805E+01  0.146030374E+01
   H  0.393366648E+02  0.259755887E+01 -0.455179948E+01
     4
 # iter = 74500  time[fs]=74.50000
   C -0.102724363E+02 -0.606509625E-02 -0.325647054E+00
   C  0.104119536E+02 -0.483433385E+00  0.684957655E+00
   H -0.414305504E+02  0.194213716E+01  0.147411937E+01
   H  0.396920757E+02  0.262165647E+01 -0.459354807E+01
     4
 # iter = 75000  time[fs]=75.00000
   C -0.103762574E+02 -0.579201741E-02 -0.329097928E+00
   C  0.105166068E+02 -0.487966663E+00  0.691886952E+00
   H -0.418042419E+02  0.195979904E+01  0.148793764E+01
   H  0.400475434E+02  0.264575886E+01 -0.463530506E+01
     4
 # iter = 75500  time[fs]=75.50000
   C -0.104801227E+02 -0.551811439E-02 -0.332551126E+00
   C  0.106213041E+02 -0.492501384E+00  0.698819047E+00
   H -0.421779859E+02  0.197746363E+01  0.150175848E+01
   H  0.404030671E+02  0.266986596E+01 -0.467707033E+01
     4
 # iter = 76000  time[fs]=76.00000
   C -0.105840315E+02 -0.524340403E-02 -0.336006604E+00
   C  0.107260446E+02 -0.497037521E+00  0.705753888E+00
   H -0.425517815E+02  0.199513090E+01  0.151558187E+01
   H  0.407586458E+02  0.269397771E+01 -0.471884372E+01
     4
 # iter = 76500  time[fs]=76.50000
   C -0.106879829E+02 -0.496790270E-02 -0.339464318E+00
   C  0.108308274E+02 -0.501575049E+00  0.712691424E+00
   H -0.429256278E+02  0.201280080E+01  0.152940776E+01
   H  0.411142785E+02  0.271809401E+01 -0.476062512E+01
     4
 # iter = 77000  time[fs]=77.00000
   C -0.107919761E+02 -0.469162625E-02 -0.342924226E+00
   C  0.109356517E+02 -0.506113941E+00  0.719631604E+00
   H -0.432995238E+02  0.203047328E+01  0.154323610E+01
   H  0.414699644E+02  0.274221479E+01 -0.480241439E+01
     4
 # iter = 77500  time[fs]=77.50000
   C -0.108960103E+02 -0.441459009E-02 -0.346386287E+00
   C  0.110405167E+02 -0.510654171E+00  0.726574381E+00
   H -0.436734689E+02  0.204814830E+01  0.155706687E+01
   H  0.418257025E+02  0.276634000E+01 -0.484421140E+01
     4
 # iter = 78000  time[fs]=78.00000
   C -0.110000846E+02 -0.413680920E-02 -0.349850460E+00
   C  0.111454216E+02 -0.515195717E+00  0.733519706E+00
   H -0.440474621E+02  0.206582582E+01  0.157090001E+01
   H  0.421814919E+02  0.279046954E+01 -0.488601603E+01
     4
 # iter = 78500  time[fs]=78.50000
   C -0.111041984E+02 -0.385829809E-02 -0.353316708E+00
   C  0.112503657E+02 -0.519738554E+00  0.740467535E+00
   H -0.444215027E+02  0.208350579E+01  0.158473550E+01
   H  0.425373319E+02  0.281460336E+01 -0.492782815E+01
     4
 # iter = 79000  time[fs]=79.00000
   C -0.112083509E+02 -0.357907089E-02 -0.356784990E+00
   C  0.113553482E+02 -0.524282659E+00  0.747417823E+00
   H -0.447955899E+02  0.210118819E+01  0.159857330E+01
   H  0.428932216E+02  0.283874138E+01 -0.496964766E+01
     4
 # iter = 79500  time[fs]=79.50000
   C -0.113125413E+02 -0.329914133E-02 -0.360255272E+00
   C  0.114603685E+02 -0.528828010E+00  0.754370525E+00
   H -0.451697229E+02  0.211887296E+01  0.161241337E+01
   H  0.432491601E+02  0.286288355E+01 -0.501147443E+01
     4
 # iter = 80000  time[fs]=80.00000
   C -0.114167691E+02 -0.301852274E-02 -0.363727517E+00
   C  0.115654257E+02 -0.533374584E+00  0.761325600E+00
   H -0.455439010E+02  0.213656008E+01  0.162625567E+01
   H  0.436051468E+02  0.288702979E+01 -0.505330835E+01
