     4
 # iter = 25000  time[fs]=25.00000
   C -0.994603488E+00  0.653479404E-01  0.480131979E-02
   C  0.102062258E+01  0.373772557E-01 -0.174088243E-01
   H -0.533475578E+01 -0.475124976E+00 -0.182095566E-01
   H  0.537488278E+01 -0.241066582E+00  0.480307768E+00
     4
 # iter = 25500  time[fs]=25.50000
   C -0.104234832E+01  0.668930711E-01  0.335468440E-02
   C  0.106279546E+01  0.379802642E-01 -0.203575559E-01
   H -0.567501359E+01 -0.514885642E+00 -0.287586885E-01
   H  0.568660780E+01 -0.265429270E+00  0.501892678E+00
     4
 # iter = 26000  time[fs]=26.00000
   C -0.109303493E+01  0.672858742E-01  0.727785194E-03
   C  0.110596194E+01  0.378216170E-01 -0.240921578E-01
   H -0.602327880E+01 -0.560314027E+00 -0.447334377E-01
   H  0.599554088E+01 -0.295333905E+00  0.518319348E+00
     4
 # iter = 26500  time[fs]=26.50000
   C -0.114295702E+01  0.700860382E-01  0.483919211E-03
   C  0.115221334E+01  0.391380535E-01 -0.263738754E-01
   H -0.636317192E+01 -0.595298610E+00 -0.500507947E-01
   H  0.631750877E+01 -0.314671430E+00  0.545657864E+00
     4
 # iter = 27000  time[fs]=27.00000
   C -0.119180892E+01  0.754663113E-01  0.279881100E-02
   C  0.120153044E+01  0.420406295E-01 -0.270898217E-01
   H -0.669365385E+01 -0.619018965E+00 -0.439133089E-01
   H  0.665306946E+01 -0.322633435E+00  0.584681920E+00
     4
 # iter = 27500  time[fs]=27.50000
   C -0.124212507E+01  0.807721508E-01  0.502038993E-02
   C  0.125213344E+01  0.448660136E-01 -0.279016553E-01
   H -0.702648894E+01 -0.643419233E+00 -0.382837888E-01
   H  0.699003528E+01 -0.331184375E+00  0.623395988E+00
     4
 # iter = 28000  time[fs]=28.00000
   C -0.129567502E+01  0.841248085E-01  0.527201006E-02
   C  0.130273939E+01  0.464374228E-01 -0.299846972E-01
   H -0.736996959E+01 -0.676947203E+00 -0.416260956E-01
   H  0.731975065E+01 -0.348787900E+00  0.653309720E+00
     4
 # iter = 28500  time[fs]=28.50000
   C -0.135160334E+01  0.862799568E-01  0.431116226E-02
   C  0.135372639E+01  0.472308258E-01 -0.328617325E-01
   H -0.772051983E+01 -0.716165863E+00 -0.505176188E-01
   H  0.764548638E+01 -0.372011666E+00  0.677833088E+00
     4
 # iter = 29000  time[fs]=29.00000
   C -0.140796165E+01  0.890951762E-01  0.399699812E-02
   C  0.140617211E+01  0.484134326E-01 -0.353644623E-01
   H -0.806960982E+01 -0.752668670E+00 -0.565645952E-01
   H  0.797551099E+01 -0.392448622E+00  0.705354002E+00
     4
 # iter = 29500  time[fs]=29.50000
   C -0.146402748E+01  0.932107404E-01  0.497113978E-02
   C  0.146039912E+01  0.503886560E-01 -0.370884833E-01
   H -0.841422220E+01 -0.783545224E+00 -0.568676648E-01
   H  0.831260843E+01 -0.407191796E+00  0.738762402E+00
     4
 # iter = 30000  time[fs]=30.00000
   C -0.152062897E+01  0.977242657E-01  0.633236192E-02
   C  0.151577018E+01  0.525919847E-01 -0.385973920E-01
   H -0.875831813E+01 -0.812849153E+00 -0.554899433E-01
   H  0.865260550E+01 -0.420303557E+00  0.773980537E+00
     4
 # iter = 30500  time[fs]=30.50000
   C -0.157870495E+01  0.101629582E+00  0.707549965E-02
   C  0.157158962E+01  0.543936353E-01 -0.405201386E-01
   H -0.910634023E+01 -0.845104480E+00 -0.569637851E-01
   H  0.899087087E+01 -0.436316416E+00  0.806462155E+00
     4
 # iter = 31000  time[fs]=31.00000
   C -0.163820953E+01  0.104911275E+00  0.718602257E-02
   C  0.162778890E+01  0.557851999E-01 -0.428643806E-01
   H -0.945827006E+01 -0.880365896E+00 -0.613513676E-01
   H  0.932725868E+01 -0.455289077E+00  0.836136446E+00
     4
 # iter = 31500  time[fs]=31.50000
   C -0.169843284E+01  0.108223361E+00  0.731872323E-02
   C  0.168472455E+01  0.571781072E-01 -0.452180114E-01
   H -0.981107691E+01 -0.915668605E+00 -0.656946521E-01
   H  0.966465560E+01 -0.474257665E+00  0.865956569E+00
     4
 # iter = 32000  time[fs]=32.00000
   C -0.175891895E+01  0.111970925E+00  0.787937306E-02
   C  0.174260175E+01  0.588275650E-01 -0.473252020E-01
   H -0.101628615E+02 -0.949172470E+00 -0.681595471E-01
   H  0.100048309E+02 -0.491383615E+00  0.897751459E+00
     4
 # iter = 32500  time[fs]=32.50000
   C -0.181979470E+01  0.115980773E+00  0.869538282E-02
   C  0.180126741E+01  0.606259645E-01 -0.492929879E-01
   H -0.105143417E+02 -0.981648137E+00 -0.695220959E-01
   H  0.103469474E+02 -0.507441164E+00  0.930738130E+00
     4
 # iter = 33000  time[fs]=33.00000
   C -0.188137378E+01  0.119896968E+00  0.941135270E-02
   C  0.186045773E+01  0.623509813E-01 -0.513431634E-01
   H -0.108670664E+02 -0.101469194E+01 -0.713834799E-01
   H  0.106893478E+02 -0.524030678E+00  0.963308268E+00
     4
 # iter = 33500  time[fs]=33.50000
   C -0.194372228E+01  0.123614733E+00  0.992298371E-02
   C  0.192006986E+01  0.639377477E-01 -0.535401084E-01
   H -0.112214561E+02 -0.104876769E+01 -0.742119100E-01
   H  0.110315139E+02 -0.541618723E+00  0.994988105E+00
     4
 # iter = 34000  time[fs]=34.00000
   C -0.200665406E+01  0.127284760E+00  0.103813971E-01
   C  0.198016431E+01  0.654815707E-01 -0.557880667E-01
   H -0.115767833E+02 -0.108318712E+01 -0.773231267E-01
   H  0.113740855E+02 -0.559518529E+00  0.102645788E+01
     4
 # iter = 34500  time[fs]=34.50000
   C -0.206998922E+01  0.131054432E+00  0.109343604E-01
   C  0.204080230E+01  0.670756263E-01 -0.579934466E-01
   H -0.119323397E+02 -0.111727759E+01 -0.800481539E-01
   H  0.117176914E+02 -0.577058789E+00  0.105838296E+01
     4
 # iter = 35000  time[fs]=35.00000
   C -0.213370097E+01  0.134920672E+00  0.115791437E-01
   C  0.210195323E+01  0.687186671E-01 -0.601571096E-01
   H -0.122880993E+02 -0.115104609E+01 -0.823972993E-01
   H  0.120622837E+02 -0.594248258E+00  0.109074911E+01
     4
 # iter = 35500  time[fs]=35.50000
   C -0.219784710E+01  0.138798207E+00  0.122307874E-01
   C  0.216353728E+01  0.703578397E-01 -0.623315502E-01
   H -0.126444110E+02 -0.118487108E+01 -0.847520768E-01
   H  0.124074462E+02 -0.611467366E+00  0.112317091E+01
     4
 # iter = 36000  time[fs]=36.00000
   C -0.226244892E+01  0.142640406E+00  0.128429426E-01
   C  0.222550090E+01  0.719644786E-01 -0.645450999E-01
   H -0.130014517E+02 -0.121895716E+01 -0.873198799E-01
   H  0.127529396E+02 -0.628922379E+00  0.115543747E+01
     4
 # iter = 36500  time[fs]=36.50000
   C -0.232746341E+01  0.146466902E+00  0.134355011E-01
   C  0.228783399E+01  0.735514386E-01 -0.667845930E-01
   H -0.133591022E+02 -0.125321032E+01 -0.900092907E-01
   H  0.130988264E+02 -0.646520580E+00  0.118763726E+01
     4
 # iter = 37000  time[fs]=37.00000
   C -0.239283406E+01  0.150312601E+00  0.140436029E-01
   C  0.235053773E+01  0.751411152E-01 -0.690273439E-01
   H -0.137171767E+02 -0.128746808E+01 -0.926601844E-01
   H  0.134452400E+02 -0.664100578E+00  0.121992775E+01
     4
 # iter = 37500  time[fs]=37.50000
   C -0.245853258E+01  0.154185782E+00  0.146757412E-01
   C  0.241359813E+01  0.767391696E-01 -0.712674202E-01
   H -0.140756117E+02 -0.132168845E+01 -0.952327810E-01
   H  0.137921954E+02 -0.681621520E+00  0.125234618E+01
     4
 # iter = 38000  time[fs]=38.00000
   C -0.252455416E+01  0.158072709E+00  0.153183767E-01
   C  0.247698880E+01  0.783374237E-01 -0.735127464E-01
   H -0.144344450E+02 -0.135592914E+01 -0.977868159E-01
   H  0.141396098E+02 -0.699142238E+00  0.128483033E+01
     4
 # iter = 38500  time[fs]=38.50000
   C -0.259089343E+01  0.161961537E+00  0.159598433E-01
   C  0.254068582E+01  0.799288548E-01 -0.757701074E-01
   H -0.147937075E+02 -0.139023962E+01 -0.100373653E+00
   H  0.144874104E+02 -0.716713255E+00  0.131732657E+01
     4
 # iter = 39000  time[fs]=39.00000
   C -0.265753431E+01  0.165852343E+00  0.166003834E-01
   C  0.260467390E+01  0.815138909E-01 -0.780388523E-01
   H -0.151533781E+02 -0.142461584E+01 -0.102990994E+00
   H  0.148355797E+02 -0.734331443E+00  0.134983511E+01
     4
 # iter = 39500  time[fs]=39.50000
   C -0.272445655E+01  0.169750472E+00  0.172454956E-01
   C  0.266894212E+01  0.830962400E-01 -0.803150635E-01
   H -0.155134131E+02 -0.145903023E+01 -0.105612893E+00
   H  0.151841251E+02 -0.751970061E+00  0.138237998E+01
     4
 # iter = 40000  time[fs]=40.00000
   C -0.279164388E+01  0.173658316E+00  0.178977125E-01
   C  0.273347868E+01  0.846777348E-01 -0.825967116E-01
   H -0.158737837E+02 -0.149346878E+01 -0.108226855E+00
   H  0.155330420E+02 -0.769615886E+00  0.141497188E+01
     4
 # iter = 40500  time[fs]=40.50000
   C -0.285908488E+01  0.177574334E+00  0.185556229E-01
   C  0.279827021E+01  0.862577198E-01 -0.848842666E-01
   H -0.162344798E+02 -0.152793541E+01 -0.110838243E+00
   H  0.158823088E+02 -0.787273613E+00  0.144760373E+01
     4
 # iter = 41000  time[fs]=41.00000
   C -0.292676956E+01  0.181496383E+00  0.192172038E-01
   C  0.286330376E+01  0.878351427E-01 -0.871786065E-01
   H -0.165954954E+02 -0.156243700E+01 -0.113455240E+00
   H  0.162319023E+02 -0.804950806E+00  0.148026577E+01
     4
 # iter = 41500  time[fs]=41.50000
   C -0.299468728E+01  0.185423798E+00  0.198819044E-01
   C  0.292856808E+01  0.894098617E-01 -0.894797081E-01
   H -0.169568185E+02 -0.159697387E+01 -0.116079437E+00
   H  0.165818068E+02 -0.822648469E+00  0.151295491E+01
     4
 # iter = 42000  time[fs]=42.00000
   C -0.306282706E+01  0.189356927E+00  0.205501757E-01
   C  0.299405321E+01  0.909823521E-01 -0.917869407E-01
   H -0.173184337E+02 -0.163154200E+01 -0.118707955E+00
   H  0.169320119E+02 -0.840363168E+00  0.154567264E+01
     4
 # iter = 42500  time[fs]=42.50000
   C -0.313117874E+01  0.193295987E+00  0.212223315E-01
   C  0.305974977E+01  0.925529921E-01 -0.940997792E-01
   H -0.176803270E+02 -0.166613806E+01 -0.121338580E+00
   H  0.172825073E+02 -0.858092170E+00  0.157841985E+01
     4
 # iter = 43000  time[fs]=43.00000
   C -0.319973324E+01  0.197240718E+00  0.218982040E-01
   C  0.312564866E+01  0.941218478E-01 -0.964180183E-01
   H -0.180424872E+02 -0.170076103E+01 -0.123971316E+00
   H  0.176332814E+02 -0.875834991E+00  0.161119530E+01
     4
 # iter = 43500  time[fs]=43.50000
   C -0.326848217E+01  0.201190703E+00  0.225774596E-01
   C  0.319174122E+01  0.956888721E-01 -0.987415737E-01
   H -0.184049047E+02 -0.173541072E+01 -0.126606952E+00
   H  0.179843223E+02 -0.893591962E+00  0.164399703E+01
     4
 # iter = 44000  time[fs]=44.00000
   C -0.333741758E+01  0.205145652E+00  0.232598881E-01
   C  0.325801936E+01  0.972540864E-01 -0.101070299E+00
   H -0.187675699E+02 -0.177008651E+01 -0.129245763E+00
   H  0.183356194E+02 -0.911362924E+00  0.167682368E+01
     4
 # iter = 44500  time[fs]=44.50000
   C -0.340653184E+01  0.209105410E+00  0.239454088E-01
   C  0.332447554E+01  0.988175849E-01 -0.103403982E+00
   H -0.191304732E+02 -0.180478723E+01 -0.131887470E+00
   H  0.186871632E+02 -0.929147192E+00  0.170967447E+01
     4
 # iter = 45000  time[fs]=45.00000
   C -0.347581775E+01  0.213069844E+00  0.246339589E-01
   C  0.339110266E+01  0.100379466E+00 -0.105742412E+00
   H -0.194936055E+02 -0.183951176E+01 -0.134531748E+00
   H  0.190389446E+02 -0.946944053E+00  0.174254875E+01
     4
 # iter = 45500  time[fs]=45.50000
   C -0.354526854E+01  0.217038790E+00  0.253254400E-01
   C  0.345789401E+01  0.101939798E+00 -0.108085414E+00
   H -0.198569583E+02 -0.187425919E+01 -0.137178465E+00
   H  0.193909552E+02 -0.964753011E+00  0.177544572E+01
     4
 # iter = 46000  time[fs]=46.00000
   C -0.361487785E+01  0.221012070E+00  0.260197355E-01
   C  0.352484322E+01  0.103498631E+00 -0.110432835E+00
   H -0.202205238E+02 -0.190902877E+01 -0.139827599E+00
   H  0.197431865E+02 -0.982573697E+00  0.180836452E+01
     4
 # iter = 46500  time[fs]=46.50000
   C -0.368463968E+01  0.224989519E+00  0.267167385E-01
   C  0.359194427E+01  0.105056016E+00 -0.112784530E+00
   H -0.205842945E+02 -0.194381976E+01 -0.142479109E+00
   H  0.200956308E+02 -0.100040575E+01  0.184130435E+01
     4
 # iter = 47000  time[fs]=47.00000
   C -0.375454831E+01  0.228970989E+00  0.274163575E-01
   C  0.365919150E+01  0.106612007E+00 -0.115140352E+00
   H -0.209482633E+02 -0.197863142E+01 -0.145132914E+00
   H  0.204482807E+02 -0.101824876E+01  0.187426451E+01
     4
 # iter = 47500  time[fs]=47.50000
   C -0.382459834E+01  0.232956346E+00  0.281185081E-01
   C  0.372657951E+01  0.108166656E+00 -0.117500160E+00
   H -0.213124233E+02 -0.201346305E+01 -0.147788921E+00
   H  0.208011292E+02 -0.103610236E+01  0.190724432E+01
     4
 # iter = 48000  time[fs]=48.00000
   C -0.389478467E+01  0.236945458E+00  0.288231079E-01
   C  0.379410322E+01  0.109720013E+00 -0.119863823E+00
   H -0.216767681E+02 -0.204831397E+01 -0.150447053E+00
   H  0.211541697E+02 -0.105396618E+01  0.194024314E+01
     4
 # iter = 48500  time[fs]=48.50000
   C -0.396510242E+01  0.240938197E+00  0.295300765E-01
   C  0.386175777E+01  0.111272123E+00 -0.122231214E+00
   H -0.220412915E+02 -0.208318354E+01 -0.153107244E+00
   H  0.215073959E+02 -0.107183990E+01  0.197326036E+01
     4
 # iter = 49000  time[fs]=49.00000
   C -0.403554699E+01  0.244934444E+00  0.302393367E-01
   C  0.392953859E+01  0.112823029E+00 -0.124602215E+00
   H -0.224059879E+02 -0.211807119E+01 -0.155769433E+00
   H  0.218608016E+02 -0.108972319E+01  0.200629540E+01
     4
 # iter = 49500  time[fs]=49.50000
   C -0.410611401E+01  0.248934083E+00  0.309508159E-01
   C  0.399744131E+01  0.114372773E+00 -0.126976712E+00
   H -0.227708516E+02 -0.215297632E+01 -0.158433559E+00
   H  0.222143812E+02 -0.110761575E+01  0.203934768E+01
     4
 # iter = 50000  time[fs]=50.00000
   C -0.417679931E+01  0.252937005E+00  0.316644446E-01
   C  0.406546178E+01  0.115921393E+00 -0.129354595E+00
   H -0.231358773E+02 -0.218789840E+01 -0.161099561E+00
   H  0.225681292E+02 -0.112551730E+01  0.207241668E+01
     4
 # iter = 50500  time[fs]=50.50000
   C -0.424759893E+01  0.256943107E+00  0.323801566E-01
   C  0.413359606E+01  0.117468929E+00 -0.131735761E+00
   H -0.235010600E+02 -0.222283690E+01 -0.163767382E+00
   H  0.229220404E+02 -0.114342756E+01  0.210550190E+01
     4
 # iter = 51000  time[fs]=51.00000
   C -0.431850910E+01  0.260952289E+00  0.330978883E-01
   C  0.420184038E+01  0.119015414E+00 -0.134120110E+00
   H -0.238663949E+02 -0.225779133E+01 -0.166436969E+00
   H  0.232761097E+02 -0.116134626E+01  0.213860284E+01
     4
 # iter = 51500  time[fs]=51.50000
   C -0.438952622E+01  0.264964458E+00  0.338175790E-01
   C  0.427019116E+01  0.120560885E+00 -0.136507546E+00
   H -0.242318774E+02 -0.229276121E+01 -0.169108271E+00
   H  0.236303326E+02 -0.117927315E+01  0.217171904E+01
     4
 # iter = 52000  time[fs]=52.00000
   C -0.446064687E+01  0.268979521E+00  0.345391706E-01
   C  0.433864500E+01  0.122105373E+00 -0.138897980E+00
   H -0.245975031E+02 -0.232774609E+01 -0.171781237E+00
   H  0.239847043E+02 -0.119720799E+01  0.220485005E+01
     4
 # iter = 52500  time[fs]=52.50000
   C -0.453186777E+01  0.272997394E+00  0.352626072E-01
   C  0.440719863E+01  0.123648909E+00 -0.141291323E+00
   H -0.249632679E+02 -0.236274553E+01 -0.174455822E+00
   H  0.243392206E+02 -0.121515056E+01  0.223799546E+01
     4
 # iter = 53000  time[fs]=53.00000
   C -0.460318581E+01  0.277017992E+00  0.359878356E-01
   C  0.447584895E+01  0.125191522E+00 -0.143687492E+00
   H -0.253291676E+02 -0.239775912E+01 -0.177131978E+00
   H  0.246938773E+02 -0.123310062E+01  0.227115485E+01
     4
 # iter = 53500  time[fs]=53.50000
   C -0.467459800E+01  0.281041237E+00  0.367148046E-01
   C  0.454459298E+01  0.126733243E+00 -0.146086407E+00
   H -0.256951985E+02 -0.243278646E+01 -0.179809664E+00
   H  0.250486705E+02 -0.125105798E+01  0.230432784E+01
     4
 # iter = 54000  time[fs]=54.00000
   C -0.474610150E+01  0.285067052E+00  0.374434652E-01
   C  0.461342789E+01  0.128274097E+00 -0.148487991E+00
   H -0.260613568E+02 -0.246782717E+01 -0.182488838E+00
   H  0.254035962E+02 -0.126902242E+01  0.233751405E+01
     4
 # iter = 54500  time[fs]=54.50000
   C -0.481769357E+01  0.289095366E+00  0.381737701E-01
   C  0.468235095E+01  0.129814111E+00 -0.150892171E+00
   H -0.264276391E+02 -0.250288088E+01 -0.185169459E+00
   H  0.257586508E+02 -0.128699376E+01  0.237071312E+01
     4
 # iter = 55000  time[fs]=55.00000
   C -0.488937160E+01  0.293126108E+00  0.389056742E-01
   C  0.475135958E+01  0.131353310E+00 -0.153298876E+00
   H -0.267940419E+02 -0.253794724E+01 -0.187851489E+00
   H  0.261138308E+02 -0.130497180E+01  0.240392470E+01
     4
 # iter = 55500  time[fs]=55.50000
   C -0.496113310E+01  0.297159212E+00  0.396391341E-01
   C  0.482045127E+01  0.132891717E+00 -0.155708037E+00
   H -0.271605620E+02 -0.257302591E+01 -0.190534892E+00
   H  0.264691329E+02 -0.132295636E+01  0.243714847E+01
     4
 # iter = 56000  time[fs]=56.00000
   C -0.503297566E+01  0.301194613E+00  0.403741080E-01
   C  0.488962364E+01  0.134429355E+00 -0.158119590E+00
   H -0.275271962E+02 -0.260811656E+01 -0.193219632E+00
   H  0.268245538E+02 -0.134094729E+01  0.247038411E+01
     4
 # iter = 56500  time[fs]=56.50000
   C -0.510489700E+01  0.305232249E+00  0.411105558E-01
   C  0.495887442E+01  0.135966247E+00 -0.160533472E+00
   H -0.278939417E+02 -0.264321890E+01 -0.195905674E+00
   H  0.271800904E+02 -0.135894440E+01  0.250363131E+01
     4
 # iter = 57000  time[fs]=57.00000
   C -0.517689491E+01  0.309272062E+00  0.418484388E-01
   C  0.502820139E+01  0.137502413E+00 -0.162949623E+00
   H -0.282607954E+02 -0.267833261E+01 -0.198592987E+00
   H  0.275357396E+02 -0.137694754E+01  0.253688978E+01
     4
 # iter = 57500  time[fs]=57.50000
   C -0.524896728E+01  0.313313993E+00  0.425877199E-01
   C  0.509760246E+01  0.139037874E+00 -0.165367983E+00
   H -0.286277546E+02 -0.271345741E+01 -0.201281538E+00
   H  0.278914987E+02 -0.139495656E+01  0.257015924E+01
     4
 # iter = 58000  time[fs]=58.00000
   C -0.532111208E+01  0.317357990E+00  0.433283633E-01
   C  0.516707561E+01  0.140572649E+00 -0.167788499E+00
   H -0.289948167E+02 -0.274859302E+01 -0.203971298E+00
   H  0.282473648E+02 -0.141297132E+01  0.260343940E+01
     4
 # iter = 58500  time[fs]=58.50000
   C -0.539332735E+01  0.321403998E+00  0.440703346E-01
   C  0.523661889E+01  0.142106757E+00 -0.170211114E+00
   H -0.293619790E+02 -0.278373918E+01 -0.206662236E+00
   H  0.286033353E+02 -0.143099166E+01  0.263673002E+01
     4
 # iter = 59000  time[fs]=59.00000
   C -0.546561123E+01  0.325451966E+00  0.448136005E-01
   C  0.530623045E+01  0.143640216E+00 -0.172635778E+00
   H -0.297292391E+02 -0.281889562E+01 -0.209354325E+00
   H  0.289594077E+02 -0.144901746E+01  0.267003084E+01
     4
 # iter = 59500  time[fs]=59.50000
   C -0.553796190E+01  0.329501847E+00  0.455581290E-01
   C  0.537590848E+01  0.145173042E+00 -0.175062440E+00
   H -0.300965947E+02 -0.285406210E+01 -0.212047537E+00
   H  0.293155793E+02 -0.146704857E+01  0.270334160E+01
     4
 # iter = 60000  time[fs]=60.00000
   C -0.561037765E+01  0.333553593E+00  0.463038893E-01
   C  0.544565125E+01  0.146705253E+00 -0.177491053E+00
   H -0.304640433E+02 -0.288923838E+01 -0.214741846E+00
   H  0.296718479E+02 -0.148508488E+01  0.273666209E+01
     4
 # iter = 60500  time[fs]=60.50000
   C -0.568285680E+01  0.337607158E+00  0.470508516E-01
   C  0.551545711E+01  0.148236865E+00 -0.179921569E+00
   H -0.308315828E+02 -0.292442423E+01 -0.217437227E+00
   H  0.300282111E+02 -0.150312627E+01  0.276999206E+01
     4
 # iter = 61000  time[fs]=61.00000
   C -0.575539774E+01  0.341662499E+00  0.477989872E-01
   C  0.558532446E+01  0.149767893E+00 -0.182353944E+00
   H -0.311992111E+02 -0.295961943E+01 -0.220133655E+00
   H  0.303846668E+02 -0.152117260E+01  0.280333131E+01
     4
 # iter = 61500  time[fs]=61.50000
   C -0.582799892E+01  0.345719573E+00  0.485482683E-01
   C  0.565525176E+01  0.151298351E+00 -0.184788134E+00
   H -0.315669260E+02 -0.299482375E+01 -0.222831107E+00
   H  0.307412127E+02 -0.153922378E+01  0.283667961E+01
     4
 # iter = 62000  time[fs]=62.00000
   C -0.590065886E+01  0.349778340E+00  0.492986681E-01
   C  0.572523752E+01  0.152828255E+00 -0.187224097E+00
   H -0.319347257E+02 -0.303003700E+01 -0.225529559E+00
   H  0.310978469E+02 -0.155727969E+01  0.287003677E+01
     4
 # iter = 62500  time[fs]=62.50000
   C -0.597337611E+01  0.353838760E+00  0.500501607E-01
   C  0.579528030E+01  0.154357617E+00 -0.189661792E+00
   H -0.323026081E+02 -0.306525897E+01 -0.228228990E+00
   H  0.314545672E+02 -0.157534021E+01  0.290340259E+01
     4
 # iter = 63000  time[fs]=63.00000
   C -0.604614929E+01  0.357900795E+00  0.508027211E-01
   C  0.586537873E+01  0.155886452E+00 -0.192101182E+00
   H -0.326705714E+02 -0.310048947E+01 -0.230929378E+00
   H  0.318113718E+02 -0.159340526E+01  0.293677687E+01
     4
 # iter = 63500  time[fs]=63.50000
   C -0.611897707E+01  0.361964409E+00  0.515563252E-01
   C  0.593553148E+01  0.157414772E+00 -0.194542226E+00
   H -0.330386138E+02 -0.313572831E+01 -0.233630702E+00
   H  0.321682588E+02 -0.161147473E+01  0.297015943E+01
     4
 # iter = 64000  time[fs]=64.00000
   C -0.619185813E+01  0.366029565E+00  0.523109494E-01
   C  0.600573726E+01  0.158942589E+00 -0.196984890E+00
   H -0.334067335E+02 -0.317097531E+01 -0.236332943E+00
   H  0.325252264E+02 -0.162954852E+01  0.300355009E+01
     4
 # iter = 64500  time[fs]=64.50000
   C -0.626479125E+01  0.370096230E+00  0.530665713E-01
   C  0.607599482E+01  0.160469915E+00 -0.199429137E+00
   H -0.337749290E+02 -0.320623029E+01 -0.239036081E+00
   H  0.328822728E+02 -0.164762654E+01  0.303694868E+01
     4
 # iter = 65000  time[fs]=65.00000
   C -0.633777522E+01  0.374164369E+00  0.538231687E-01
   C  0.614630297E+01  0.161996763E+00 -0.201874934E+00
   H -0.341431984E+02 -0.324149308E+01 -0.241740097E+00
   H  0.332393963E+02 -0.166570871E+01  0.307035504E+01
     4
 # iter = 65500  time[fs]=65.50000
   C -0.641080886E+01  0.378233952E+00  0.545807207E-01
   C  0.621666055E+01  0.163523142E+00 -0.204322246E+00
   H -0.345115404E+02 -0.327676353E+01 -0.244444972E+00
   H  0.335965954E+02 -0.168379492E+01  0.310376898E+01
     4
 # iter = 66000  time[fs]=66.00000
   C -0.648389106E+01  0.382304947E+00  0.553392065E-01
   C  0.628706644E+01  0.165049064E+00 -0.206771042E+00
   H -0.348799532E+02 -0.331204145E+01 -0.247150690E+00
   H  0.339538684E+02 -0.170188511E+01  0.313719037E+01
     4
 # iter = 66500  time[fs]=66.50000
   C -0.655702073E+01  0.386377323E+00  0.560986064E-01
   C  0.635751954E+01  0.166574540E+00 -0.209221291E+00
   H -0.352484356E+02 -0.334732672E+01 -0.249857234E+00
   H  0.343112137E+02 -0.171997918E+01  0.317061905E+01
     4
 # iter = 67000  time[fs]=67.00000
   C -0.663019681E+01  0.390451052E+00  0.568589009E-01
   C  0.642801882E+01  0.168099579E+00 -0.211672962E+00
   H -0.356169859E+02 -0.338261916E+01 -0.252564585E+00
   H  0.346686299E+02 -0.173807705E+01  0.320405486E+01
     4
 # iter = 67500  time[fs]=67.50000
   C -0.670341828E+01  0.394526105E+00  0.576200715E-01
   C  0.649856326E+01  0.169624191E+00 -0.214126026E+00
   H -0.359856029E+02 -0.341791865E+01 -0.255272730E+00
   H  0.350261156E+02 -0.175617866E+01  0.323749768E+01
     4
 # iter = 68000  time[fs]=68.00000
   C -0.677668415E+01  0.398602455E+00  0.583821000E-01
   C  0.656915188E+01  0.171148386E+00 -0.216580454E+00
   H -0.363542851E+02 -0.345322503E+01 -0.257981651E+00
   H  0.353836692E+02 -0.177428392E+01  0.327094734E+01
     4
 # iter = 68500  time[fs]=68.50000
   C -0.684999348E+01  0.402680075E+00  0.591449689E-01
   C  0.663978372E+01  0.172672172E+00 -0.219036219E+00
   H -0.367230313E+02 -0.348853817E+01 -0.260691334E+00
   H  0.357412896E+02 -0.179239276E+01  0.330440373E+01
     4
 # iter = 69000  time[fs]=69.00000
   C -0.692334533E+01  0.406758939E+00  0.599086609E-01
   C  0.671045787E+01  0.174195559E+00 -0.221493295E+00
   H -0.370918402E+02 -0.352385794E+01 -0.263401763E+00
   H  0.360989753E+02 -0.181050511E+01  0.333786671E+01
     4
 # iter = 69500  time[fs]=69.50000
   C -0.699673881E+01  0.410839023E+00  0.606731598E-01
   C  0.678117343E+01  0.175718555E+00 -0.223951654E+00
   H -0.374607106E+02 -0.355918421E+01 -0.266112926E+00
   H  0.364567250E+02 -0.182862091E+01  0.337133615E+01
     4
 # iter = 70000  time[fs]=70.00000
   C -0.707017305E+01  0.414920301E+00  0.614384492E-01
   C  0.685192953E+01  0.177241169E+00 -0.226411273E+00
   H -0.378296412E+02 -0.359451685E+01 -0.268824807E+00
   H  0.368145376E+02 -0.184674008E+01  0.340481193E+01
     4
 # iter = 70500  time[fs]=70.50000
   C -0.714364721E+01  0.419002751E+00  0.622045137E-01
   C  0.692272534E+01  0.178763408E+00 -0.228872126E+00
   H -0.381986310E+02 -0.362985575E+01 -0.271537394E+00
   H  0.371724118E+02 -0.186486257E+01  0.343829393E+01
     4
 # iter = 71000  time[fs]=71.00000
   C -0.721716046E+01  0.423086349E+00  0.629713381E-01
   C  0.699356005E+01  0.180285280E+00 -0.231334190E+00
   H -0.385676787E+02 -0.366520077E+01 -0.274250672E+00
   H  0.375303464E+02 -0.188298830E+01  0.347178203E+01
     4
 # iter = 71500  time[fs]=71.50000
   C -0.729071202E+01  0.427171074E+00  0.637389077E-01
   C  0.706443286E+01  0.181806794E+00 -0.233797441E+00
   H -0.389367833E+02 -0.370055182E+01 -0.276964630E+00
   H  0.378883403E+02 -0.190111722E+01  0.350527612E+01
     4
 # iter = 72000  time[fs]=72.00000
   C -0.736430111E+01  0.431256903E+00  0.645072082E-01
   C  0.713534301E+01  0.183327956E+00 -0.236261858E+00
   H -0.393059437E+02 -0.373590877E+01 -0.279679255E+00
   H  0.382463924E+02 -0.191924928E+01  0.353877608E+01
     4
 # iter = 72500  time[fs]=72.50000
   C -0.743792699E+01  0.435343816E+00  0.652762256E-01
   C  0.720628975E+01  0.184848773E+00 -0.238727417E+00
   H -0.396751589E+02 -0.377127152E+01 -0.282394534E+00
   H  0.386045015E+02 -0.193738440E+01  0.357228182E+01
     4
 # iter = 73000  time[fs]=73.00000
   C -0.751158894E+01  0.439431792E+00  0.660459465E-01
   C  0.727727236E+01  0.186369253E+00 -0.241194099E+00
   H -0.400444279E+02 -0.380663996E+01 -0.285110457E+00
   H  0.389626668E+02 -0.195552254E+01  0.360579322E+01
     4
 # iter = 73500  time[fs]=73.50000
   C -0.758528624E+01  0.443520812E+00  0.668163576E-01
   C  0.734829015E+01  0.187889402E+00 -0.243661882E+00
   H -0.404137496E+02 -0.384201399E+01 -0.287827012E+00
   H  0.393208871E+02 -0.197366364E+01  0.363931018E+01
     4
 # iter = 74000  time[fs]=74.00000
   C -0.765901822E+01  0.447610855E+00  0.675874463E-01
   C  0.741934242E+01  0.189409226E+00 -0.246130746E+00
   H -0.407831232E+02 -0.387739351E+01 -0.290544186E+00
   H  0.396791614E+02 -0.199180765E+01  0.367283261E+01
     4
 # iter = 74500  time[fs]=74.50000
   C -0.773278421E+01  0.451701904E+00  0.683592001E-01
   C  0.749042853E+01  0.190928733E+00 -0.248600672E+00
   H -0.411525477E+02 -0.391277842E+01 -0.293261971E+00
   H  0.400374888E+02 -0.200995451E+01  0.370636040E+01
     4
 # iter = 75000  time[fs]=75.00000
   C -0.780658356E+01  0.455793940E+00  0.691316068E-01
   C  0.756154782E+01  0.192447927E+00 -0.251071640E+00
   H -0.415220221E+02 -0.394816863E+01 -0.295980355E+00
   H  0.403958683E+02 -0.202810418E+01  0.373989347E+01
     4
 # iter = 75500  time[fs]=75.50000
   C -0.788041565E+01  0.459886946E+00  0.699046547E-01
   C  0.763269967E+01  0.193966816E+00 -0.253543632E+00
   H -0.418915457E+02 -0.398356404E+01 -0.298699327E+00
   H  0.407542990E+02 -0.204625660E+01  0.377343172E+01
     4
 # iter = 76000  time[fs]=76.00000
   C -0.795427986E+01  0.463980903E+00  0.706783324E-01
   C  0.770388347E+01  0.195485405E+00 -0.256016630E+00
   H -0.422611176E+02 -0.401896457E+01 -0.301418878E+00
   H  0.411127801E+02 -0.206441174E+01  0.380697507E+01
     4
 # iter = 76500  time[fs]=76.50000
   C -0.802817559E+01  0.468075795E+00  0.714526285E-01
   C  0.777509863E+01  0.197003700E+00 -0.258490617E+00
   H -0.426307368E+02 -0.405437013E+01 -0.304138998E+00
   H  0.414713106E+02 -0.208256954E+01  0.384052342E+01
     4
 # iter = 77000  time[fs]=77.00000
   C -0.810210228E+01  0.472171606E+00  0.722275323E-01
   C  0.784634457E+01  0.198521706E+00 -0.260965575E+00
   H -0.430004027E+02 -0.408978063E+01 -0.306859678E+00
   H  0.418298897E+02 -0.210072995E+01  0.387407670E+01
     4
 # iter = 77500  time[fs]=77.50000
   C -0.817605936E+01  0.476268320E+00  0.730030332E-01
   C  0.791762074E+01  0.200039428E+00 -0.263441487E+00
   H -0.433701144E+02 -0.412519598E+01 -0.309580908E+00
   H  0.421885166E+02 -0.211889294E+01  0.390763481E+01
     4
 # iter = 78000  time[fs]=78.00000
   C -0.825004627E+01  0.480365921E+00  0.737791208E-01
   C  0.798892659E+01  0.201556872E+00 -0.265918337E+00
   H -0.437398711E+02 -0.416061612E+01 -0.312302679E+00
   H  0.425471905E+02 -0.213705845E+01  0.394119768E+01
     4
 # iter = 78500  time[fs]=78.50000
   C -0.832406250E+01  0.484464394E+00  0.745557850E-01
   C  0.806026159E+01  0.203074044E+00 -0.268396110E+00
   H -0.441096722E+02 -0.419604095E+01 -0.315024982E+00
   H  0.429059105E+02 -0.215522646E+01  0.397476524E+01
     4
 # iter = 79000  time[fs]=79.00000
   C -0.839810751E+01  0.488563724E+00  0.753330160E-01
   C  0.813162521E+01  0.204590946E+00 -0.270874790E+00
   H -0.444795168E+02 -0.423147040E+01 -0.317747809E+00
   H  0.432646760E+02 -0.217339691E+01  0.400833740E+01
     4
 # iter = 79500  time[fs]=79.50000
   C -0.847218080E+01  0.492663897E+00  0.761108043E-01
   C  0.820301697E+01  0.206107586E+00 -0.273354361E+00
   H -0.448494042E+02 -0.426690440E+01 -0.320471151E+00
   H  0.436234862E+02 -0.219156977E+01  0.404191408E+01
     4
 # iter = 80000  time[fs]=80.00000
   C -0.854628188E+01  0.496764898E+00  0.768891405E-01
   C  0.827443636E+01  0.207623967E+00 -0.275834809E+00
   H -0.452193337E+02 -0.430234287E+01 -0.323195000E+00
   H  0.439823403E+02 -0.220974500E+01  0.407549522E+01
