     4
 # iter = 25000  time[fs]=25.00000
   C -0.102242970E+01 -0.267410814E-01 -0.469294120E-01
   C  0.986710508E+00 -0.232574120E-01  0.708233562E-01
   H -0.529870120E+01  0.394023550E+00  0.645709904E+00
   H  0.529933109E+01  0.339436706E+00 -0.392839776E+00
     4
 # iter = 25500  time[fs]=25.50000
   C -0.107223247E+01 -0.299592812E-01 -0.512172852E-01
   C  0.102730432E+01 -0.266708280E-01  0.740777021E-01
   H -0.563837207E+01  0.410507551E+00  0.679902170E+00
   H  0.560865701E+01  0.352268907E+00 -0.429744780E+00
     4
 # iter = 26000  time[fs]=26.00000
   C -0.112623770E+01 -0.341364245E-01 -0.566587658E-01
   C  0.107014310E+01 -0.311117836E-01  0.765223577E-01
   H -0.598606831E+01  0.421792763E+00  0.709041189E+00
   H  0.591523143E+01  0.359870943E+00 -0.472303717E+00
     4
 # iter = 26500  time[fs]=26.50000
   C -0.118137526E+01 -0.364780895E-01 -0.604459335E-01
   C  0.111797660E+01 -0.335494355E-01  0.811724992E-01
   H -0.632540535E+01  0.443942287E+00  0.749174017E+00
   H  0.623487462E+01  0.378320126E+00 -0.504397204E+00
     4
 # iter = 27000  time[fs]=27.00000
   C -0.123724703E+01 -0.368439871E-01 -0.624254726E-01
   C  0.117069449E+01 -0.338331593E-01  0.881637154E-01
   H -0.665534231E+01  0.477732616E+00  0.801063957E+00
   H  0.656814029E+01  0.408396637E+00 -0.525207763E+00
     4
 # iter = 27500  time[fs]=27.50000
   C -0.129568990E+01 -0.373093315E-01 -0.646602084E-01
   C  0.122580323E+01 -0.342165985E-01  0.952281121E-01
   H -0.698764485E+01  0.511178852E+00  0.852715168E+00
   H  0.690283794E+01  0.438110766E+00 -0.546691822E+00
     4
 # iter = 28000  time[fs]=28.00000
   C -0.135795444E+01 -0.393421922E-01 -0.686065560E-01
   C  0.128148952E+01 -0.362942080E-01  0.100757979E+00
   H -0.733060621E+01  0.535798817E+00  0.895636035E+00
   H  0.723030980E+01  0.458977204E+00 -0.577306041E+00
     4
 # iter = 28500  time[fs]=28.50000
   C -0.142324885E+01 -0.423474906E-01 -0.736585688E-01
   C  0.133819979E+01 -0.394209978E-01  0.105386124E+00
   H -0.768064855E+01  0.555003053E+00  0.933228737E+00
   H  0.755382463E+01  0.474410194E+00 -0.613612043E+00
     4
 # iter = 29000  time[fs]=29.00000
   C -0.148993768E+01 -0.448673667E-01 -0.783483235E-01
   C  0.139733614E+01 -0.420154049E-01  0.110682936E+00
   H -0.802923915E+01  0.577176718E+00  0.973871037E+00
   H  0.788164916E+01  0.492801325E+00 -0.647197512E+00
     4
 # iter = 29500  time[fs]=29.50000
   C -0.155735653E+01 -0.463977425E-01 -0.821624740E-01
   C  0.145928320E+01 -0.435309971E-01  0.117184578E+00
   H -0.837335953E+01  0.605209999E+00  0.102044668E+01
   H  0.821656587E+01  0.517043809E+00 -0.675150772E+00
     4
 # iter = 30000  time[fs]=30.00000
   C -0.162606526E+01 -0.476431285E-01 -0.857970265E-01
   C  0.152313005E+01 -0.447330564E-01  0.124116339E+00
   H -0.871697185E+01  0.635029299E+00  0.106887645E+01
   H  0.855440047E+01  0.543062834E+00 -0.701529942E+00
     4
 # iter = 30500  time[fs]=30.50000
   C -0.169671972E+01 -0.493895938E-01 -0.900302657E-01
   C  0.158789194E+01 -0.464752921E-01  0.130615895E+00
   H -0.906451985E+01  0.662092657E+00  0.111461342E+01
   H  0.889052071E+01  0.566314780E+00 -0.730863706E+00
     4
 # iter = 31000  time[fs]=31.00000
   C -0.176921312E+01 -0.516474357E-01 -0.948653743E-01
   C  0.165343943E+01 -0.487692865E-01  0.136663819E+00
   H -0.941598478E+01  0.686330822E+00  0.115758390E+01
   H  0.922477986E+01  0.586731159E+00 -0.763207337E+00
     4
 # iter = 31500  time[fs]=31.50000
   C -0.184292638E+01 -0.539028133E-01 -0.997820151E-01
   C  0.172022382E+01 -0.510576450E-01  0.142810367E+00
   H -0.976833471E+01  0.710696622E+00  0.120073667E+01
   H  0.956006383E+01  0.607267197E+00 -0.795593871E+00
     4
 # iter = 32000  time[fs]=32.00000
   C -0.191744590E+01 -0.558369943E-01 -0.104455527E+00
   C  0.178849521E+01 -0.529947121E-01  0.149394686E+00
   H -0.101196696E+02  0.737019153E+00  0.124589722E+01
   H  0.989814113E+01  0.629753681E+00 -0.826181942E+00
     4
 # iter = 32500  time[fs]=32.50000
   C -0.199282043E+01 -0.575842936E-01 -0.109014814E+00
   C  0.185802134E+01 -0.547265558E-01  0.156264765E+00
   H -0.104707074E+02  0.764516958E+00  0.129228084E+01
   H  0.102381740E+02  0.653409301E+00 -0.855743227E+00
     4
 # iter = 33000  time[fs]=33.00000
   C -0.206925022E+01 -0.594222782E-01 -0.113732505E+00
   C  0.192842289E+01 -0.565547006E-01  0.163113654E+00
   H -0.108229973E+02  0.791583631E+00  0.133827817E+01
   H  0.105785046E+02  0.676627261E+00 -0.885875751E+00
     4
 # iter = 33500  time[fs]=33.50000
   C -0.214674633E+01 -0.614319249E-01 -0.118685061E+00
   C  0.199954138E+01 -0.585672455E-01  0.169848300E+00
   H -0.111769600E+02  0.817746593E+00  0.138341398E+01
   H  0.109186140E+02  0.698935170E+00 -0.917043932E+00
     4
 # iter = 34000  time[fs]=34.00000
   C -0.222512645E+01 -0.634942259E-01 -0.123749349E+00
   C  0.207144206E+01 -0.606351866E-01  0.176593178E+00
   H -0.115318674E+02  0.843686552E+00  0.142836651E+01
   H  0.112591418E+02  0.721014518E+00 -0.948559028E+00
     4
 # iter = 34500  time[fs]=34.50000
   C -0.230421680E+01 -0.654928475E-01 -0.128805257E+00
   C  0.214419322E+01 -0.626324032E-01  0.183470267E+00
   H -0.118870108E+02  0.870069256E+00  0.147379928E+01
   H  0.116007161E+02  0.743531794E+00 -0.979747922E+00
     4
 # iter = 35000  time[fs]=35.00000
   C -0.238396673E+01 -0.674293659E-01 -0.133850899E+00
   C  0.221774041E+01 -0.645607454E-01  0.190473916E+00
   H -0.122423643E+02  0.896881203E+00  0.151969674E+01
   H  0.119432887E+02  0.766473824E+00 -0.101061769E+01
     4
 # iter = 35500  time[fs]=35.50000
   C -0.246439471E+01 -0.693697998E-01 -0.138949118E+00
   C  0.229196398E+01 -0.664919981E-01  0.197528855E+00
   H -0.125982763E+02  0.923737811E+00  0.156567241E+01
   H  0.122864430E+02  0.789456116E+00 -0.104154722E+01
     4
 # iter = 36000  time[fs]=36.00000
   C -0.254549317E+01 -0.713499685E-01 -0.144132815E+00
   C  0.236678127E+01 -0.684651511E-01  0.204592888E+00
   H -0.129549241E+02  0.950428918E+00  0.161151440E+01
   H  0.126299393E+02  0.812268665E+00 -0.107274133E+01
     4
 # iter = 36500  time[fs]=36.50000
   C -0.262720644E+01 -0.733538486E-01 -0.149383281E+00
   C  0.244216965E+01 -0.704629076E-01  0.211680363E+00
   H -0.133121881E+02  0.977043500E+00  0.165731009E+01
   H  0.129738397E+02  0.835000744E+00 -0.110410598E+01
     4
 # iter = 37000  time[fs]=37.00000
   C -0.270947029E+01 -0.753535062E-01 -0.154670108E+00
   C  0.251812282E+01 -0.724550318E-01  0.218818796E+00
   H -0.136698824E+02  0.100373945E+01  0.170321588E+01
   H  0.133182773E+02  0.857810567E+00 -0.113547852E+01
     4
 # iter = 37500  time[fs]=37.50000
   C -0.279224441E+01 -0.773419040E-01 -0.159983979E+00
   C  0.259461482E+01 -0.744339625E-01  0.226013241E+00
   H -0.140279432E+02  0.103055445E+01  0.174926807E+01
   H  0.136632667E+02  0.880736038E+00 -0.116681695E+01
     4
 # iter = 38000  time[fs]=38.00000
   C -0.287550845E+01 -0.793292860E-01 -0.165333028E+00
   C  0.267160368E+01 -0.764108891E-01  0.233250188E+00
   H -0.143864083E+02  0.105742677E+01  0.179540366E+01
   H  0.140087248E+02  0.903715591E+00 -0.119817902E+01
     4
 # iter = 38500  time[fs]=38.50000
   C -0.295924309E+01 -0.813244530E-01 -0.170724106E+00
   C  0.274905145E+01 -0.783954276E-01  0.240517874E+00
   H -0.147453085E+02  0.108430321E+01  0.184156824E+01
   H  0.143545787E+02  0.926696165E+00 -0.122961423E+01
     4
 # iter = 39000  time[fs]=39.00000
   C -0.304342188E+01 -0.833269019E-01 -0.176154904E+00
   C  0.282693249E+01 -0.803870887E-01  0.247814797E+00
   H -0.151046223E+02  0.111118435E+01  0.188776131E+01
   H  0.147008103E+02  0.949678521E+00 -0.126111851E+01
     4
 # iter = 39500  time[fs]=39.50000
   C -0.312801627E+01 -0.853320333E-01 -0.181619145E+00
   C  0.290522764E+01 -0.823809310E-01  0.255144053E+00
   H -0.154643063E+02  0.113809458E+01  0.193400620E+01
   H  0.150474271E+02  0.972687193E+00 -0.129266423E+01
     4
 # iter = 40000  time[fs]=40.00000
   C -0.321300186E+01 -0.873375888E-01 -0.187113014E+00
   C  0.298391699E+01 -0.843745500E-01  0.262506326E+00
   H -0.158243312E+02  0.116504491E+01  0.198031295E+01
   H  0.153944239E+02  0.995733347E+00 -0.132423732E+01
     4
 # iter = 40500  time[fs]=40.50000
   C -0.329835899E+01 -0.893444160E-01 -0.192635911E+00
   C  0.306297894E+01 -0.863689081E-01  0.269899057E+00
   H -0.161846869E+02  0.119202859E+01  0.202667391E+01
   H  0.157417790E+02  0.101881036E+01 -0.135584170E+01
     4
 # iter = 41000  time[fs]=41.00000
   C -0.338406998E+01 -0.913538571E-01 -0.198187829E+00
   C  0.314239282E+01 -0.883655013E-01  0.277319259E+00
   H -0.165453673E+02  0.121903613E+01  0.207307873E+01
   H  0.160894690E+02  0.104190886E+01 -0.138748419E+01
     4
 # iter = 41500  time[fs]=41.50000
   C -0.347011736E+01 -0.933661159E-01 -0.203767713E+00
   C  0.322214059E+01 -0.903645862E-01  0.284765285E+00
   H -0.169063603E+02  0.124606473E+01  0.211952382E+01
   H  0.164374778E+02  0.106502615E+01 -0.141916508E+01
     4
 # iter = 42000  time[fs]=42.00000
   C -0.355648413E+01 -0.953806250E-01 -0.209373822E+00
   C  0.330220626E+01 -0.923655797E-01  0.292236418E+00
   H -0.172676504E+02  0.127311613E+01  0.216601015E+01
   H  0.167857950E+02  0.108816407E+01 -0.145088029E+01
     4
 # iter = 42500  time[fs]=42.50000
   C -0.364315452E+01 -0.973969369E-01 -0.215004610E+00
   C  0.338257488E+01 -0.943680259E-01  0.299731899E+00
   H -0.176292234E+02  0.130019147E+01  0.221253815E+01
   H  0.171344100E+02  0.111132386E+01 -0.148262646E+01
     4
 # iter = 43000  time[fs]=43.00000
   C -0.373011420E+01 -0.994149929E-01 -0.220658990E+00
   C  0.346323208E+01 -0.963718885E-01  0.307250625E+00
   H -0.179910680E+02  0.132728972E+01  0.225910614E+01
   H  0.174833110E+02  0.113450460E+01 -0.151440251E+01
     4
 # iter = 43500  time[fs]=43.50000
   C -0.381734991E+01 -0.101434874E+00 -0.226336081E+00
   C  0.354416433E+01 -0.983772815E-01  0.314791415E+00
   H -0.183531746E+02  0.135440914E+01  0.230571174E+01
   H  0.178324859E+02  0.115770463E+01 -0.154620822E+01
     4
 # iter = 44000  time[fs]=44.00000
   C -0.390484917E+01 -0.103456576E+00 -0.232034973E+00
   C  0.362535904E+01 -0.100384223E+00  0.322353247E+00
   H -0.187155334E+02  0.138154857E+01  0.235235317E+01
   H  0.181819240E+02  0.118092284E+01 -0.157804289E+01
     4
 # iter = 44500  time[fs]=44.50000
   C -0.399260021E+01 -0.105480002E+00 -0.237754722E+00
   C  0.370680452E+01 -0.102392629E+00  0.329935264E+00
   H -0.190781346E+02  0.140870742E+01  0.239902931E+01
   H  0.185316154E+02  0.120415874E+01 -0.160990534E+01
     4
 # iter = 45000  time[fs]=45.00000
   C -0.408059197E+01 -0.107505047E+00 -0.243494427E+00
   C  0.378848984E+01 -0.104402408E+00  0.337536671E+00
   H -0.194409692E+02  0.143588522E+01  0.244573912E+01
   H  0.188815511E+02  0.122741193E+01 -0.164179437E+01
     4
 # iter = 45500  time[fs]=45.50000
   C -0.416881412E+01 -0.109531646E+00 -0.249253268E+00
   C  0.387040470E+01 -0.106413506E+00  0.345156685E+00
   H -0.198040286E+02  0.146308134E+01  0.249248148E+01
   H  0.192317222E+02  0.125068183E+01 -0.167370903E+01
     4
 # iter = 46000  time[fs]=46.00000
   C -0.425725695E+01 -0.111559753E+00 -0.255030495E+00
   C  0.395253941E+01 -0.108425892E+00  0.352794553E+00
   H -0.201673048E+02  0.149029507E+01  0.253925521E+01
   H  0.195821204E+02  0.127396781E+01 -0.170564852E+01
     4
 # iter = 46500  time[fs]=46.50000
   C -0.434591134E+01 -0.113589322E+00 -0.260825393E+00
   C  0.403488484E+01 -0.110439531E+00  0.360449563E+00
   H -0.205307902E+02  0.151752577E+01  0.258605919E+01
   H  0.199327376E+02  0.129726929E+01 -0.173761206E+01
     4
 # iter = 47000  time[fs]=47.00000
   C -0.443476870E+01 -0.115620303E+00 -0.266637282E+00
   C  0.411743244E+01 -0.112454385E+00  0.368121056E+00
   H -0.208944776E+02  0.154477287E+01  0.263289243E+01
   H  0.202835664E+02  0.132058574E+01 -0.176959886E+01
     4
 # iter = 47500  time[fs]=47.50000
   C -0.452382091E+01 -0.117652643E+00 -0.272465516E+00
   C  0.420017411E+01 -0.114470410E+00  0.375808408E+00
   H -0.212583601E+02  0.157203585E+01  0.267975399E+01
   H  0.206345996E+02  0.134391671E+01 -0.180160817E+01
     4
 # iter = 48000  time[fs]=48.00000
   C -0.461306032E+01 -0.119686297E+00 -0.278309484E+00
   C  0.428310224E+01 -0.116487570E+00  0.383511029E+00
   H -0.216224312E+02  0.159931420E+01  0.272664296E+01
   H  0.209858303E+02  0.136726171E+01 -0.183363926E+01
     4
 # iter = 48500  time[fs]=48.50000
   C -0.470247973E+01 -0.121721221E+00 -0.284168612E+00
   C  0.436620964E+01 -0.118505830E+00  0.391228359E+00
   H -0.219866847E+02  0.162660741E+01  0.277355847E+01
   H  0.213372523E+02  0.139062031E+01 -0.186569146E+01
     4
 # iter = 49000  time[fs]=49.00000
   C -0.479207229E+01 -0.123757374E+00 -0.290042354E+00
   C  0.444948948E+01 -0.120525159E+00  0.398959865E+00
   H -0.223511147E+02  0.165391503E+01  0.282049969E+01
   H  0.216888592E+02  0.141399209E+01 -0.189776413E+01
     4
 # iter = 49500  time[fs]=49.50000
   C -0.488183156E+01 -0.125794718E+00 -0.295930192E+00
   C  0.453293534E+01 -0.122545523E+00  0.406705045E+00
   H -0.227157156E+02  0.168123659E+01  0.286746582E+01
   H  0.220406453E+02  0.143737662E+01 -0.192985665E+01
     4
 # iter = 50000  time[fs]=50.00000
   C -0.497175142E+01 -0.127833215E+00 -0.301831636E+00
   C  0.461654111E+01 -0.124566894E+00  0.414463421E+00
   H -0.230804820E+02  0.170857168E+01  0.291445613E+01
   H  0.223926049E+02  0.146077354E+01 -0.196196844E+01
     4
 # iter = 50500  time[fs]=50.50000
   C -0.506182606E+01 -0.129872828E+00 -0.307746216E+00
   C  0.470030103E+01 -0.126589242E+00  0.422234539E+00
   H -0.234454088E+02  0.173591988E+01  0.296146989E+01
   H  0.227447327E+02  0.148418246E+01 -0.199409892E+01
     4
 # iter = 51000  time[fs]=51.00000
   C -0.515205000E+01 -0.131913525E+00 -0.313673491E+00
   C  0.478420961E+01 -0.128612539E+00  0.430017967E+00
   H -0.238104911E+02  0.176328082E+01  0.300850641E+01
   H  0.230970236E+02  0.150760304E+01 -0.202624756E+01
     4
 # iter = 51500  time[fs]=51.50000
   C -0.524241801E+01 -0.133955273E+00 -0.319613038E+00
   C  0.486826164E+01 -0.130636758E+00  0.437813295E+00
   H -0.241757242E+02  0.179065411E+01  0.305556503E+01
   H  0.234494728E+02  0.153103494E+01 -0.205841385E+01
     4
 # iter = 52000  time[fs]=52.00000
   C -0.533292514E+01 -0.135998040E+00 -0.325564454E+00
   C  0.495245219E+01 -0.132661874E+00  0.445620132E+00
   H -0.245411038E+02  0.181803940E+01  0.310264512E+01
   H  0.238020755E+02  0.155447784E+01 -0.209059729E+01
     4
 # iter = 52500  time[fs]=52.50000
   C -0.542356667E+01 -0.138041797E+00 -0.331527356E+00
   C  0.503677656E+01 -0.134687862E+00  0.453438107E+00
   H -0.249066255E+02  0.184543636E+01  0.314974609E+01
   H  0.241548275E+02  0.157793143E+01 -0.212279740E+01
     4
 # iter = 53000  time[fs]=53.00000
   C -0.551433811E+01 -0.140086516E+00 -0.337501379E+00
   C  0.512123027E+01 -0.136714699E+00  0.461266863E+00
   H -0.252722853E+02  0.187284465E+01  0.319686735E+01
   H  0.245077243E+02  0.160139541E+01 -0.215501373E+01
     4
 # iter = 53500  time[fs]=53.50000
   C -0.560523519E+01 -0.142132169E+00 -0.343486175E+00
   C  0.520580906E+01 -0.138742363E+00  0.469106062E+00
   H -0.256380792E+02  0.190026396E+01  0.324400835E+01
   H  0.248607619E+02  0.162486949E+01 -0.218724585E+01
     4
 # iter = 54000  time[fs]=54.00000
   C -0.569625384E+01 -0.144178730E+00 -0.349481411E+00
   C  0.529050889E+01 -0.140770831E+00  0.476955381E+00
   H -0.260040035E+02  0.192769399E+01  0.329116855E+01
   H  0.252139364E+02  0.164835341E+01 -0.221949334E+01
     4
 # iter = 54500  time[fs]=54.50000
   C -0.578739017E+01 -0.146226175E+00 -0.355486769E+00
   C  0.537532588E+01 -0.142800082E+00  0.484814511E+00
   H -0.263700547E+02  0.195513445E+01  0.333834745E+01
   H  0.255672440E+02  0.167184690E+01 -0.225175580E+01
     4
 # iter = 55000  time[fs]=55.00000
   C -0.587864050E+01 -0.148274480E+00 -0.361501944E+00
   C  0.546025634E+01 -0.144830097E+00  0.492683157E+00
   H -0.267362292E+02  0.198258507E+01  0.338554456E+01
   H  0.259206812E+02  0.169534971E+01 -0.228403283E+01
     4
 # iter = 55500  time[fs]=55.50000
   C -0.597000127E+01 -0.150323620E+00 -0.367526646E+00
   C  0.554529674E+01 -0.146860857E+00  0.500561036E+00
   H -0.271025238E+02  0.201004557E+01  0.343275939E+01
   H  0.262742444E+02  0.171886160E+01 -0.231632407E+01
     4
 # iter = 56000  time[fs]=56.00000
   C -0.606146910E+01 -0.152373576E+00 -0.373560598E+00
   C  0.563044373E+01 -0.148892342E+00  0.508447878E+00
   H -0.274689353E+02  0.203751572E+01  0.347999151E+01
   H  0.266279304E+02  0.174238233E+01 -0.234862916E+01
     4
 # iter = 56500  time[fs]=56.50000
   C -0.615304078E+01 -0.154424324E+00 -0.379603532E+00
   C  0.571569408E+01 -0.150924534E+00  0.516343424E+00
   H -0.278354607E+02  0.206499525E+01  0.352724047E+01
   H  0.269817360E+02  0.176591168E+01 -0.238094775E+01
     4
 # iter = 57000  time[fs]=57.00000
   C -0.624471321E+01 -0.156475845E+00 -0.385655192E+00
   C  0.580104471E+01 -0.152957417E+00  0.524247426E+00
   H -0.282020969E+02  0.209248393E+01  0.357450586E+01
   H  0.273356580E+02  0.178944945E+01 -0.241327951E+01
     4
 # iter = 57500  time[fs]=57.50000
   C -0.633648342E+01 -0.158528120E+00 -0.391715335E+00
   C  0.588649268E+01 -0.154990974E+00  0.532159646E+00
   H -0.285688413E+02  0.211998154E+01  0.362178727E+01
   H  0.276896936E+02  0.181299541E+01 -0.244562413E+01
     4
 # iter = 58000  time[fs]=58.00000
   C -0.642834860E+01 -0.160581129E+00 -0.397783726E+00
   C  0.597203516E+01 -0.157025189E+00  0.540079857E+00
   H -0.289356909E+02  0.214748786E+01  0.366908430E+01
   H  0.280438399E+02  0.183654937E+01 -0.247798130E+01
     4
 # iter = 58500  time[fs]=58.50000
   C -0.652030602E+01 -0.162634854E+00 -0.403860138E+00
   C  0.605766945E+01 -0.159060045E+00  0.548007839E+00
   H -0.293026434E+02  0.217500267E+01  0.371639660E+01
   H  0.283980941E+02  0.186011114E+01 -0.251035071E+01
     4
 # iter = 59000  time[fs]=59.00000
   C -0.661235308E+01 -0.164689278E+00 -0.409944355E+00
   C  0.614339296E+01 -0.161095529E+00  0.555943382E+00
   H -0.296696960E+02  0.220252577E+01  0.376372378E+01
   H  0.287524537E+02  0.188368053E+01 -0.254273209E+01
     4
 # iter = 59500  time[fs]=59.50000
   C -0.670448729E+01 -0.166744384E+00 -0.416036170E+00
   C  0.622920320E+01 -0.163131626E+00  0.563886284E+00
   H -0.300368465E+02  0.223005697E+01  0.381106551E+01
   H  0.291069160E+02  0.190725736E+01 -0.257512515E+01
     4
 # iter = 60000  time[fs]=60.00000
   C -0.679670624E+01 -0.168800156E+00 -0.422135382E+00
   C  0.631509779E+01 -0.165168322E+00  0.571836352E+00
   H -0.304040924E+02  0.225759607E+01  0.385842144E+01
   H  0.294614786E+02  0.193084146E+01 -0.260752963E+01
     4
 # iter = 60500  time[fs]=60.50000
   C -0.688900764E+01 -0.170856577E+00 -0.428241800E+00
   C  0.640107442E+01 -0.167205602E+00  0.579793398E+00
   H -0.307714315E+02  0.228514289E+01  0.390579125E+01
   H  0.298161392E+02  0.195443266E+01 -0.263994526E+01
     4
 # iter = 61000  time[fs]=61.00000
   C -0.698138928E+01 -0.172913634E+00 -0.434355237E+00
   C  0.648713091E+01 -0.169243455E+00  0.587757243E+00
   H -0.311388616E+02  0.231269726E+01  0.395317463E+01
   H  0.301708955E+02  0.197803080E+01 -0.267237181E+01
     4
 # iter = 61500  time[fs]=61.50000
   C -0.707384904E+01 -0.174971311E+00 -0.440475517E+00
   C  0.657326512E+01 -0.171281868E+00  0.595727713E+00
   H -0.315063806E+02  0.234025900E+01  0.400057127E+01
   H  0.305257452E+02  0.200163573E+01 -0.270480903E+01
     4
 # iter = 62000  time[fs]=62.00000
   C -0.716638486E+01 -0.177029594E+00 -0.446602467E+00
   C  0.665947504E+01 -0.173320828E+00  0.603704644E+00
   H -0.318739865E+02  0.236782795E+01  0.404798088E+01
   H  0.308806862E+02  0.202524729E+01 -0.273725668E+01
     4
 # iter = 62500  time[fs]=62.50000
   C -0.725899478E+01 -0.179088469E+00 -0.452735923E+00
   C  0.674575869E+01 -0.175360324E+00  0.611687873E+00
   H -0.322416773E+02  0.239540395E+01  0.409540317E+01
   H  0.312357166E+02  0.204886534E+01 -0.276971454E+01
     4
 # iter = 63000  time[fs]=63.00000
   C -0.735167692E+01 -0.181147924E+00 -0.458875725E+00
   C  0.683211420E+01 -0.177400344E+00  0.619677247E+00
   H -0.326094511E+02  0.242298685E+01  0.414283787E+01
   H  0.315908342E+02  0.207248974E+01 -0.280218239E+01
     4
 # iter = 63500  time[fs]=63.50000
   C -0.744442945E+01 -0.183207946E+00 -0.465021719E+00
   C  0.691853975E+01 -0.179440877E+00  0.627672617E+00
   H -0.329773061E+02  0.245057649E+01  0.419028471E+01
   H  0.319460371E+02  0.209612035E+01 -0.283466002E+01
     4
 # iter = 64000  time[fs]=64.00000
   C -0.753725060E+01 -0.185268522E+00 -0.471173757E+00
   C  0.700503359E+01 -0.181481913E+00  0.635673838E+00
   H -0.333452404E+02  0.247817274E+01  0.423774344E+01
   H  0.323013236E+02  0.211975703E+01 -0.286714723E+01
     4
 # iter = 64500  time[fs]=64.50000
   C -0.763013870E+01 -0.187329640E+00 -0.477331697E+00
   C  0.709159404E+01 -0.183523440E+00  0.643680773E+00
   H -0.337132525E+02  0.250577545E+01  0.428521380E+01
   H  0.326566917E+02  0.214339967E+01 -0.289964381E+01
     4
 # iter = 65000  time[fs]=65.00000
   C -0.772309211E+01 -0.189391290E+00 -0.483495400E+00
   C  0.717821946E+01 -0.185565450E+00  0.651693287E+00
   H -0.340813406E+02  0.253338448E+01  0.433269555E+01
   H  0.330121398E+02  0.216704814E+01 -0.293214958E+01
     4
 # iter = 65500  time[fs]=65.50000
   C -0.781610925E+01 -0.191453459E+00 -0.489664733E+00
   C  0.726490830E+01 -0.187607931E+00  0.659711250E+00
   H -0.344495030E+02  0.256099971E+01  0.438018847E+01
   H  0.333676662E+02  0.219070231E+01 -0.296466434E+01
     4
 # iter = 66000  time[fs]=66.00000
   C -0.790918860E+01 -0.193516136E+00 -0.495839568E+00
   C  0.735165904E+01 -0.189650875E+00  0.667734539E+00
   H -0.348177383E+02  0.258862101E+01  0.442769231E+01
   H  0.337232691E+02  0.221436207E+01 -0.299718792E+01
     4
 # iter = 66500  time[fs]=66.50000
   C -0.800232871E+01 -0.195579313E+00 -0.502019779E+00
   C  0.743847022E+01 -0.191694273E+00  0.675763031E+00
   H -0.351860449E+02  0.261624825E+01  0.447520687E+01
   H  0.340789471E+02  0.223802731E+01 -0.302972014E+01
     4
 # iter = 67000  time[fs]=67.00000
   C -0.809552815E+01 -0.197642977E+00 -0.508205246E+00
   C  0.752534043E+01 -0.193738115E+00  0.683796611E+00
   H -0.355544214E+02  0.264388132E+01  0.452273193E+01
   H  0.344346987E+02  0.226169792E+01 -0.306226084E+01
     4
 # iter = 67500  time[fs]=67.50000
   C -0.818878555E+01 -0.199707120E+00 -0.514395853E+00
   C  0.761226831E+01 -0.195782393E+00  0.691835165E+00
   H -0.359228663E+02  0.267152009E+01  0.457026727E+01
   H  0.347905222E+02  0.228537378E+01 -0.309480983E+01
     4
 # iter = 68000  time[fs]=68.00000
   C -0.828209960E+01 -0.201771732E+00 -0.520591487E+00
   C  0.769925254E+01 -0.197827098E+00  0.699878584E+00
   H -0.362913783E+02  0.269916447E+01  0.461781271E+01
   H  0.351464162E+02  0.230905481E+01 -0.312736697E+01
     4
 # iter = 68500  time[fs]=68.50000
   C -0.837546901E+01 -0.203836804E+00 -0.526792039E+00
   C  0.778629185E+01 -0.199872223E+00  0.707926763E+00
   H -0.366599560E+02  0.272681433E+01  0.466536804E+01
   H  0.355023795E+02  0.233274090E+01 -0.315993210E+01
     4
 # iter = 69000  time[fs]=69.00000
   C -0.846889255E+01 -0.205902326E+00 -0.532997403E+00
   C  0.787338501E+01 -0.201917759E+00  0.715979598E+00
   H -0.370285982E+02  0.275446957E+01  0.471293307E+01
   H  0.358584105E+02  0.235643194E+01 -0.319250507E+01
     4
 # iter = 69500  time[fs]=69.50000
   C -0.856236903E+01 -0.207968289E+00 -0.539207478E+00
   C  0.796053082E+01 -0.203963698E+00  0.724036991E+00
   H -0.373973035E+02  0.278213009E+01  0.476050763E+01
   H  0.362145080E+02  0.238012786E+01 -0.322508572E+01
     4
 # iter = 70000  time[fs]=70.00000
   C -0.865589727E+01 -0.210034686E+00 -0.545422164E+00
   C  0.804772813E+01 -0.206010034E+00  0.732098846E+00
   H -0.377660707E+02  0.280979578E+01  0.480809152E+01
   H  0.365706707E+02  0.240382855E+01 -0.325767393E+01
     4
 # iter = 70500  time[fs]=70.50000
   C -0.874947617E+01 -0.212101509E+00 -0.551641365E+00
   C  0.813497584E+01 -0.208056758E+00  0.740165069E+00
   H -0.381348987E+02  0.283746656E+01  0.485568458E+01
   H  0.369268973E+02  0.242753392E+01 -0.329026954E+01
     4
 # iter = 71000  time[fs]=71.00000
   C -0.884310464E+01 -0.214168748E+00 -0.557864988E+00
   C  0.822227285E+01 -0.210103863E+00  0.748235570E+00
   H -0.385037863E+02  0.286514232E+01  0.490328664E+01
   H  0.372831867E+02  0.245124389E+01 -0.332287242E+01
     4
 # iter = 71500  time[fs]=71.50000
   C -0.893678163E+01 -0.216236396E+00 -0.564092943E+00
   C  0.830961812E+01 -0.212151344E+00  0.756310263E+00
   H -0.388727324E+02  0.289282298E+01  0.495089753E+01
   H  0.376395376E+02  0.247495838E+01 -0.335548244E+01
     4
 # iter = 72000  time[fs]=72.00000
   C -0.903050611E+01 -0.218304447E+00 -0.570325141E+00
   C  0.839701064E+01 -0.214199192E+00  0.764389061E+00
   H -0.392417359E+02  0.292050844E+01  0.499851709E+01
   H  0.379959489E+02  0.249867730E+01 -0.338809948E+01
     4
 # iter = 72500  time[fs]=72.50000
   C -0.912427710E+01 -0.220372891E+00 -0.576561499E+00
   C  0.848444942E+01 -0.216247402E+00  0.772471882E+00
   H -0.396107957E+02  0.294819862E+01  0.504614517E+01
   H  0.383524196E+02  0.252240057E+01 -0.342072340E+01
     4
 # iter = 73000  time[fs]=73.00000
   C -0.921809365E+01 -0.222441723E+00 -0.582801934E+00
   C  0.857193351E+01 -0.218295967E+00  0.780558647E+00
   H -0.399799107E+02  0.297589343E+01  0.509378161E+01
   H  0.387089484E+02  0.254612811E+01 -0.345335409E+01
     4
 # iter = 73500  time[fs]=73.50000
   C -0.931195482E+01 -0.224510935E+00 -0.589046365E+00
   C  0.865946198E+01 -0.220344881E+00  0.788649277E+00
   H -0.403490801E+02  0.300359279E+01  0.514142627E+01
   H  0.390655344E+02  0.256985986E+01 -0.348599143E+01
     4
 # iter = 74000  time[fs]=74.00000
   C -0.940585971E+01 -0.226580521E+00 -0.595294715E+00
   C  0.874703394E+01 -0.222394138E+00  0.796743699E+00
   H -0.407183028E+02  0.303129661E+01  0.518907901E+01
   H  0.394221765E+02  0.259359573E+01 -0.351863530E+01
     4
 # iter = 74500  time[fs]=74.50000
   C -0.949980744E+01 -0.228650473E+00 -0.601546908E+00
   C  0.883464852E+01 -0.224443731E+00  0.804841837E+00
   H -0.410875778E+02  0.305900484E+01  0.523673967E+01
   H  0.397788737E+02  0.261733565E+01 -0.355128559E+01
     4
 # iter = 75000  time[fs]=75.00000
   C -0.959379718E+01 -0.230720786E+00 -0.607802871E+00
   C  0.892230487E+01 -0.226493656E+00  0.812943621E+00
   H -0.414569043E+02  0.308671737E+01  0.528440814E+01
   H  0.401356251E+02  0.264107956E+01 -0.358394219E+01
     4
 # iter = 75500  time[fs]=75.50000
   C -0.968782809E+01 -0.232791452E+00 -0.614062533E+00
   C  0.901000217E+01 -0.228543906E+00  0.821048983E+00
   H -0.418262813E+02  0.311443415E+01  0.533208426E+01
   H  0.404924297E+02  0.266482738E+01 -0.361660500E+01
     4
 # iter = 76000  time[fs]=76.00000
   C -0.978189937E+01 -0.234862467E+00 -0.620325824E+00
   C  0.909773962E+01 -0.230594476E+00  0.829157854E+00
   H -0.421957080E+02  0.314215509E+01  0.537976792E+01
   H  0.408492866E+02  0.268857905E+01 -0.364927391E+01
     4
 # iter = 76500  time[fs]=76.50000
   C -0.987601024E+01 -0.236933825E+00 -0.626592676E+00
   C  0.918551645E+01 -0.232645361E+00  0.837270169E+00
   H -0.425651835E+02  0.316988014E+01  0.542745899E+01
   H  0.412061949E+02  0.271233451E+01 -0.368194882E+01
     4
 # iter = 77000  time[fs]=77.00000
   C -0.997015995E+01 -0.239005518E+00 -0.632863024E+00
   C  0.927333190E+01 -0.234696556E+00  0.845385865E+00
   H -0.429347069E+02  0.319760921E+01  0.547515734E+01
   H  0.415631538E+02  0.273609369E+01 -0.371462962E+01
     4
 # iter = 77500  time[fs]=77.50000
   C -0.100643478E+02 -0.241077542E+00 -0.639136805E+00
   C  0.936118525E+01 -0.236748055E+00  0.853504880E+00
   H -0.433042775E+02  0.322534225E+01  0.552286286E+01
   H  0.419201622E+02  0.275985653E+01 -0.374731624E+01
     4
 # iter = 78000  time[fs]=78.00000
   C -0.101585730E+02 -0.243149891E+00 -0.645413956E+00
   C  0.944907578E+01 -0.238799853E+00  0.861627154E+00
   H -0.436738945E+02  0.325307918E+01  0.557057542E+01
   H  0.422772195E+02  0.278362296E+01 -0.378000856E+01
     4
 # iter = 78500  time[fs]=78.50000
   C -0.102528349E+02 -0.245222560E+00 -0.651694416E+00
   C  0.953700280E+01 -0.240851947E+00  0.869752628E+00
   H -0.440435570E+02  0.328081995E+01  0.561829492E+01
   H  0.426343249E+02  0.280739294E+01 -0.381270650E+01
     4
 # iter = 79000  time[fs]=79.00000
   C -0.103471328E+02 -0.247295544E+00 -0.657978127E+00
   C  0.962496564E+01 -0.242904330E+00  0.877881245E+00
   H -0.444132644E+02  0.330856448E+01  0.566602123E+01
   H  0.429914774E+02  0.283116640E+01 -0.384540997E+01
     4
 # iter = 79500  time[fs]=79.50000
   C -0.104414661E+02 -0.249368837E+00 -0.664265032E+00
   C  0.971296364E+01 -0.244956999E+00  0.886012949E+00
   H -0.447830159E+02  0.333631273E+01  0.571375426E+01
   H  0.433486764E+02  0.285494329E+01 -0.387811888E+01
     4
 # iter = 80000  time[fs]=80.00000
   C -0.105358340E+02 -0.251442435E+00 -0.670555074E+00
   C  0.980099617E+01 -0.247009949E+00  0.894147687E+00
   H -0.451528108E+02  0.336406463E+01  0.576149390E+01
   H  0.437059211E+02  0.287872356E+01 -0.391083315E+01
