     4
 # iter = 25000  time[fs]=25.00000
   C -0.104442494E+01  0.289064717E-01  0.750508812E-02
   C  0.937363140E+00 -0.854396485E-04 -0.269303383E-01
   H -0.533304785E+01 -0.489564829E+00 -0.465446805E+00
   H  0.527358024E+01 -0.181651762E+00 -0.216083337E+00
     4
 # iter = 25500  time[fs]=25.50000
   C -0.109520610E+01  0.305179984E-01  0.850029526E-02
   C  0.974673491E+00 -0.462049806E-03 -0.278852230E-01
   H -0.567447045E+01 -0.527125363E+00 -0.502335618E+00
   H  0.558105540E+01 -0.198561234E+00 -0.235717684E+00
     4
 # iter = 26000  time[fs]=26.00000
   C -0.115101783E+01  0.314075234E-01  0.878351532E-02
   C  0.101507013E+01 -0.202806345E-02 -0.300409579E-01
   H -0.602393648E+01 -0.570353056E+00 -0.544867708E+00
   H  0.588580622E+01 -0.220965879E+00 -0.260853901E+00
     4
 # iter = 26500  time[fs]=26.50000
   C -0.120910026E+01  0.339655339E-01  0.107439721E-01
   C  0.106157098E+01 -0.139734614E-02 -0.300098700E-01
   H -0.636505299E+01 -0.603128174E+00 -0.576926748E+00
   H  0.620365093E+01 -0.232760263E+00 -0.275386449E+00
     4
 # iter = 27000  time[fs]=27.00000
   C -0.126898929E+01  0.383039256E-01  0.144924265E-01
   C  0.111399763E+01  0.160135025E-02 -0.276193702E-01
   H -0.669677795E+01 -0.624630100E+00 -0.597694784E+00
   H  0.653514187E+01 -0.233139777E+00 -0.278510528E+00
     4
 # iter = 27500  time[fs]=27.50000
   C -0.133214491E+01  0.426327203E-01  0.182378965E-01
   C  0.116951106E+01  0.445544243E-02 -0.253808833E-01
   H -0.703088111E+01 -0.646809417E+00 -0.619124511E+00
   H  0.686808760E+01 -0.234072766E+00 -0.282194232E+00
     4
 # iter = 28000  time[fs]=28.00000
   C -0.139953300E+01  0.456841344E-01  0.207117312E-01
   C  0.122603544E+01  0.538807861E-02 -0.250702689E-01
   H -0.737565873E+01 -0.678118600E+00 -0.649670168E+00
   H  0.719382954E+01 -0.244026244E+00 -0.294904306E+00
     4
 # iter = 28500  time[fs]=28.50000
   C -0.147037676E+01  0.479628565E-01  0.224178797E-01
   C  0.128402337E+01  0.512217889E-02 -0.259637616E-01
   H -0.772753211E+01 -0.715119241E+00 -0.685894876E+00
   H  0.751563571E+01 -0.259570452E+00 -0.313210730E+00
     4
 # iter = 29000  time[fs]=29.00000
   C -0.154318527E+01  0.507151647E-01  0.246019890E-01
   C  0.134499962E+01  0.542596607E-02 -0.262924186E-01
   H -0.807796597E+01 -0.749400842E+00 -0.719389459E+00
   H  0.784177215E+01 -0.272300452E+00 -0.328708314E+00
     4
 # iter = 29500  time[fs]=29.50000
   C -0.161731009E+01  0.543689688E-01  0.276914267E-01
   C  0.140935726E+01  0.691178905E-02 -0.254432766E-01
   H -0.842394065E+01 -0.778051853E+00 -0.747243482E+00
   H  0.817502071E+01 -0.279311296E+00 -0.338491861E+00
     4
 # iter = 30000  time[fs]=30.00000
   C -0.169316194E+01  0.583149449E-01  0.310764016E-01
   C  0.147604681E+01  0.872735318E-02 -0.242681050E-01
   H -0.876941900E+01 -0.805128298E+00 -0.773513911E+00
   H  0.851120643E+01 -0.284667368E+00 -0.346625507E+00
     4
 # iter = 30500  time[fs]=30.50000
   C -0.177124167E+01  0.618741933E-01  0.340776130E-01
   C  0.154394042E+01  0.992144954E-02 -0.237176640E-01
   H -0.911884567E+01 -0.835156806E+00 -0.802728186E+00
   H  0.884569642E+01 -0.292903021E+00 -0.357643368E+00
     4
 # iter = 31000  time[fs]=31.00000
   C -0.185140274E+01  0.650343164E-01  0.366823198E-01
   C  0.161286905E+01  0.104828830E-01 -0.238027644E-01
   H -0.947220181E+01 -0.868192347E+00 -0.834941993E+00
   H  0.917834342E+01 -0.304078503E+00 -0.371605466E+00
     4
 # iter = 31500  time[fs]=31.50000
   C -0.193306520E+01  0.682333219E-01  0.393282350E-01
   C  0.168331549E+01  0.110355182E-01 -0.238992115E-01
   H -0.982645467E+01 -0.901268830E+00 -0.867189872E+00
   H  0.951203280E+01 -0.315231242E+00 -0.385549021E+00
     4
 # iter = 32000  time[fs]=32.00000
   C -0.201583109E+01  0.717420384E-01  0.422859331E-01
   C  0.175554072E+01  0.119666439E-01 -0.236194322E-01
   H -0.101797036E+02 -0.932545370E+00 -0.897631496E+00
   H  0.984853261E+01 -0.324523874E+00 -0.397636473E+00
     4
 # iter = 32500  time[fs]=32.50000
   C -0.209970420E+01  0.754426102E-01  0.454373377E-01
   C  0.182926955E+01  0.131143947E-01 -0.231250463E-01
   H -0.105326663E+02 -0.962793189E+00 -0.927038577E+00
   H  0.101870046E+02 -0.332731788E+00 -0.408643024E+00
     4
 # iter = 33000  time[fs]=33.00000
   C -0.218482264E+01  0.790944393E-01  0.485416593E-01
   C  0.190406472E+01  0.141432131E-01 -0.227513982E-01
   H -0.108868920E+02 -0.993609598E+00 -0.957008862E+00
   H  0.105257902E+02 -0.341456425E+00 -0.420169936E+00
     4
 # iter = 33500  time[fs]=33.50000
   C -0.227116592E+01  0.826259324E-01  0.515271377E-01
   C  0.197973742E+01  0.149557238E-01 -0.225956776E-01
   H -0.112428014E+02 -0.102545878E+01 -0.988006926E+00
   H  0.108643703E+02 -0.351165303E+00 -0.432684562E+00
     4
 # iter = 34000  time[fs]=34.00000
   C -0.235855085E+01  0.861373917E-01  0.544939298E-01
   C  0.205635030E+01  0.156968488E-01 -0.225128011E-01
   H -0.115996659E+02 -0.105765225E+01 -0.101934462E+01
   H  0.112033838E+02 -0.361172494E+00 -0.445500818E+00
     4
 # iter = 34500  time[fs]=34.50000
   C -0.244680451E+01  0.897270023E-01  0.575400928E-01
   C  0.213397074E+01  0.165081979E-01 -0.223610171E-01
   H -0.119567766E+02 -0.108951711E+01 -0.105034938E+01
   H  0.115434586E+02 -0.370807462E+00 -0.457948022E+00
     4
 # iter = 35000  time[fs]=35.00000
   C -0.253586219E+01  0.933918762E-01  0.606626267E-01
   C  0.221253030E+01  0.173884163E-01 -0.221415561E-01
   H -0.123141071E+02 -0.112106045E+01 -0.108102856E+01
   H  0.118845460E+02 -0.380079682E+00 -0.470035511E+00
     4
 # iter = 35500  time[fs]=35.50000
   C -0.262572074E+01  0.970739377E-01  0.638033567E-01
   C  0.229188873E+01  0.182579938E-01 -0.219338185E-01
   H -0.126720058E+02 -0.115266099E+01 -0.111176116E+01
   H  0.122262288E+02 -0.389370257E+00 -0.482144260E+00
     4
 # iter = 36000  time[fs]=36.00000
   C -0.271635664E+01  0.100741160E+00  0.669301687E-01
   C  0.237194793E+01  0.190739755E-01 -0.217806624E-01
   H -0.130306497E+02 -0.118452352E+01 -0.114275217E+01
   H  0.125682670E+02 -0.398886071E+00 -0.494481028E+00
     4
 # iter = 36500  time[fs]=36.50000
   C -0.280770678E+01  0.104406135E+00  0.700555762E-01
   C  0.245267763E+01  0.198561969E-01 -0.216621662E-01
   H -0.133899190E+02 -0.121655403E+01 -0.117390784E+01
   H  0.129107224E+02 -0.408534969E+00 -0.506953546E+00
     4
 # iter = 37000  time[fs]=37.00000
   C -0.289970222E+01  0.108091779E+00  0.732024256E-01
   C  0.253406642E+01  0.206388906E-01 -0.215440211E-01
   H -0.137496275E+02 -0.124859001E+01 -0.120506582E+01
   H  0.132537276E+02 -0.418156077E+00 -0.519400833E+00
     4
 # iter = 37500  time[fs]=37.50000
   C -0.299229590E+01  0.111803154E+00  0.763757188E-01
   C  0.261608150E+01  0.214309271E-01 -0.214172881E-01
   H -0.141097112E+02 -0.128058949E+01 -0.123618432E+01
   H  0.135972969E+02 -0.427709026E+00 -0.531782416E+00
     4
 # iter = 38000  time[fs]=38.00000
   C -0.308545910E+01  0.115530567E+00  0.795657069E-01
   C  0.269867267E+01  0.222202017E-01 -0.212940112E-01
   H -0.144702076E+02 -0.131261024E+01 -0.126732129E+01
   H  0.139413470E+02 -0.437253099E+00 -0.544157482E+00
     4
 # iter = 38500  time[fs]=38.50000
   C -0.317916499E+01  0.119265635E+00  0.827639565E-01
   C  0.278179464E+01  0.229963312E-01 -0.211845186E-01
   H -0.148311474E+02 -0.134470180E+01 -0.129852640E+01
   H  0.142858043E+02 -0.446839234E+00 -0.556576879E+00
     4
 # iter = 39000  time[fs]=39.00000
   C -0.327338159E+01  0.123008025E+00  0.859700906E-01
   C  0.286541624E+01  0.237601843E-01 -0.210878927E-01
   H -0.151925089E+02 -0.137686012E+01 -0.132979577E+01
   H  0.146306508E+02 -0.456464696E+00 -0.569037784E+00
     4
 # iter = 39500  time[fs]=39.50000
   C -0.336807593E+01  0.126760980E+00  0.891873113E-01
   C  0.294951384E+01  0.245175724E-01 -0.209982777E-01
   H -0.155542483E+02 -0.140905766E+01 -0.136110195E+01
   H  0.149758933E+02 -0.466103103E+00 -0.581513736E+00
     4
 # iter = 40000  time[fs]=40.00000
   C -0.346321936E+01  0.130525785E+00  0.924168668E-01
   C  0.303406324E+01  0.252714490E-01 -0.209126800E-01
   H -0.159163363E+02 -0.144128039E+01 -0.139243105E+01
   H  0.153215266E+02 -0.475741570E+00 -0.593991770E+00
     4
 # iter = 40500  time[fs]=40.50000
   C -0.355878795E+01  0.134301106E+00  0.956573899E-01
   C  0.311903858E+01  0.260209857E-01 -0.208318919E-01
   H -0.162787626E+02 -0.147353226E+01 -0.142378714E+01
   H  0.156675285E+02 -0.485385110E+00 -0.606476827E+00
     4
 # iter = 41000  time[fs]=41.00000
   C -0.365476006E+01  0.138085226E+00  0.989071346E-01
   C  0.320441529E+01  0.267647377E-01 -0.207573252E-01
   H -0.166415207E+02 -0.150582016E+01 -0.145517720E+01
   H  0.160138754E+02 -0.495041583E+00 -0.618976698E+00
     4
 # iter = 41500  time[fs]=41.50000
   C -0.375111476E+01  0.141877447E+00  0.102165374E+00
   C  0.329017187E+01  0.275026254E-01 -0.206890294E-01
   H -0.170045986E+02 -0.153814443E+01 -0.148660165E+01
   H  0.163605510E+02 -0.504712270E+00 -0.631492599E+00
     4
 # iter = 42000  time[fs]=42.00000
   C -0.384783201E+01  0.145677767E+00  0.105432082E+00
   C  0.337628930E+01  0.282354909E-01 -0.206261354E-01
   H -0.173679804E+02 -0.157050102E+01 -0.151805656E+01
   H  0.167075445E+02 -0.514394000E+00 -0.644021294E+00
     4
 # iter = 42500  time[fs]=42.50000
   C -0.394489327E+01  0.149486114E+00  0.108707164E+00
   C  0.346274983E+01  0.289640186E-01 -0.205679339E-01
   H -0.177316518E+02 -0.160288663E+01 -0.154953870E+01
   H  0.170548452E+02 -0.524084283E+00 -0.656560236E+00
     4
 # iter = 43000  time[fs]=43.00000
   C -0.404228160E+01  0.153302113E+00  0.111990223E+00
   C  0.354953652E+01  0.296884109E-01 -0.205141995E-01
   H -0.180956014E+02 -0.163530022E+01 -0.158104710E+01
   H  0.174024409E+02 -0.533782865E+00 -0.669109113E+00
     4
 # iter = 43500  time[fs]=43.50000
   C -0.413998134E+01  0.157125294E+00  0.115280770E+00
   C  0.363663343E+01  0.304086903E-01 -0.204648890E-01
   H -0.184598193E+02 -0.166774161E+01 -0.161258167E+01
   H  0.177503194E+02 -0.543490297E+00 -0.681668423E+00
     4
 # iter = 44000  time[fs]=44.00000
   C -0.423797782E+01  0.160955290E+00  0.118578420E+00
   C  0.372402579E+01  0.311249749E-01 -0.204198650E-01
   H -0.188242957E+02 -0.170021017E+01 -0.164414182E+01
   H  0.180984696E+02 -0.553206624E+00 -0.694238160E+00
     4
 # iter = 44500  time[fs]=44.50000
   C -0.433625727E+01  0.164791831E+00  0.121882888E+00
   C  0.381169992E+01  0.318374866E-01 -0.203788881E-01
   H -0.191890206E+02 -0.173270473E+01 -0.167572647E+01
   H  0.184468815E+02 -0.562931354E+00 -0.706817781E+00
     4
 # iter = 45000  time[fs]=45.00000
   C -0.443480679E+01  0.168634679E+00  0.125193919E+00
   C  0.389964305E+01  0.325464465E-01 -0.203417208E-01
   H -0.195539848E+02 -0.176522415E+01 -0.170733454E+01
   H  0.187955459E+02 -0.572663958E+00 -0.719406713E+00
     4
 # iter = 45500  time[fs]=45.50000
   C -0.453361435E+01  0.172483579E+00  0.128511245E+00
   C  0.398784319E+01  0.332520249E-01 -0.203081779E-01
   H -0.199191795E+02 -0.179776753E+01 -0.173896517E+01
   H  0.191444538E+02 -0.582404112E+00 -0.732004587E+00
     4
 # iter = 46000  time[fs]=46.00000
   C -0.463266867E+01  0.176338279E+00  0.131834602E+00
   C  0.407628908E+01  0.339543600E-01 -0.202781074E-01
   H -0.202845967E+02 -0.183033410E+01 -0.177061765E+01
   H  0.194935965E+02 -0.592151611E+00 -0.744611155E+00
     4
 # iter = 46500  time[fs]=46.50000
   C -0.473195918E+01  0.180198545E+00  0.135163742E+00
   C  0.416497014E+01  0.346535846E-01 -0.202513635E-01
   H -0.206502286E+02 -0.186292311E+01 -0.180229129E+01
   H  0.198429658E+02 -0.601906244E+00 -0.757226165E+00
     4
 # iter = 47000  time[fs]=47.00000
   C -0.483147592E+01  0.184064159E+00  0.138498437E+00
   C  0.425387647E+01  0.353498332E-01 -0.202277999E-01
   H -0.210160679E+02 -0.189553383E+01 -0.183398540E+01
   H  0.201925541E+02 -0.611667766E+00 -0.769849334E+00
     4
 # iter = 47500  time[fs]=47.50000
   C -0.493120954E+01  0.187934922E+00  0.141838478E+00
   C  0.434299874E+01  0.360432349E-01 -0.202072766E-01
   H -0.213821076E+02 -0.192816552E+01 -0.186569929E+01
   H  0.205423540E+02 -0.621435929E+00 -0.782480377E+00
     4
 # iter = 48000  time[fs]=48.00000
   C -0.503115124E+01  0.191810641E+00  0.145183661E+00
   C  0.443232818E+01  0.367339089E-01 -0.201896640E-01
   H -0.217483410E+02 -0.196081751E+01 -0.189743232E+01
   H  0.208923585E+02 -0.631210508E+00 -0.795119034E+00
     4
 # iter = 48500  time[fs]=48.50000
   C -0.513129272E+01  0.195691134E+00  0.148533797E+00
   C  0.452185651E+01  0.374219660E-01 -0.201748417E-01
   H -0.221147618E+02 -0.199348915E+01 -0.192918390E+01
   H  0.212425611E+02 -0.640991299E+00 -0.807765065E+00
     4
 # iter = 49000  time[fs]=49.00000
   C -0.523162615E+01  0.199576228E+00  0.151888703E+00
   C  0.461157594E+01  0.381075104E-01 -0.201626968E-01
   H -0.224813639E+02 -0.202617984E+01 -0.196095345E+01
   H  0.215929554E+02 -0.650778106E+00 -0.820418242E+00
     4
 # iter = 49500  time[fs]=49.50000
   C -0.533214413E+01  0.203465759E+00  0.155248208E+00
   C  0.470147907E+01  0.387906410E-01 -0.201531220E-01
   H -0.228481418E+02 -0.205888900E+01 -0.199274043E+01
   H  0.219435355E+02 -0.660570740E+00 -0.833078346E+00
     4
 # iter = 50000  time[fs]=50.00000
   C -0.543283968E+01  0.207359574E+00  0.158612150E+00
   C  0.479155897E+01  0.394714513E-01 -0.201460160E-01
   H -0.232150898E+02 -0.209161606E+01 -0.202454432E+01
   H  0.222942955E+02 -0.670369022E+00 -0.845745167E+00
     4
 # iter = 50500  time[fs]=50.50000
   C -0.553370618E+01  0.211257524E+00  0.161980375E+00
   C  0.488180902E+01  0.401500300E-01 -0.201412831E-01
   H -0.235822029E+02 -0.212436049E+01 -0.205636461E+01
   H  0.226452300E+02 -0.680172778E+00 -0.858418502E+00
     4
 # iter = 51000  time[fs]=51.00000
   C -0.563473738E+01  0.215159471E+00  0.165352738E+00
   C  0.497222299E+01  0.408264605E-01 -0.201388328E-01
   H -0.239494759E+02 -0.215712179E+01 -0.208820083E+01
   H  0.229963337E+02 -0.689981844E+00 -0.871098161E+00
     4
 # iter = 51500  time[fs]=51.50000
   C -0.573592733E+01  0.219065280E+00  0.168729098E+00
   C  0.506279498E+01  0.415008221E-01 -0.201385797E-01
   H -0.243169042E+02 -0.218989947E+01 -0.212005252E+01
   H  0.233476017E+02 -0.699796065E+00 -0.883783959E+00
     4
 # iter = 52000  time[fs]=52.00000
   C -0.583727042E+01  0.222974827E+00  0.172109325E+00
   C  0.515351936E+01  0.421731897E-01 -0.201404427E-01
   H -0.246844832E+02 -0.222269306E+01 -0.215191924E+01
   H  0.236990291E+02 -0.709615289E+00 -0.896475721E+00
     4
 # iter = 52500  time[fs]=52.50000
   C -0.593876129E+01  0.226887990E+00  0.175493291E+00
   C  0.524439082E+01  0.428436347E-01 -0.201443451E-01
   H -0.250522085E+02 -0.225550211E+01 -0.218380058E+01
   H  0.240506115E+02 -0.719439374E+00 -0.909173280E+00
     4
 # iter = 53000  time[fs]=53.00000
   C -0.604039488E+01  0.230804655E+00  0.178880878E+00
   C  0.533540430E+01  0.435122247E-01 -0.201502139E-01
   H -0.254200760E+02 -0.228832621E+01 -0.221569614E+01
   H  0.244023443E+02 -0.729268181E+00 -0.921876473E+00
     4
 # iter = 53500  time[fs]=53.50000
   C -0.614216634E+01  0.234724712E+00  0.182271972E+00
   C  0.542655498E+01  0.441790238E-01 -0.201579800E-01
   H -0.257880817E+02 -0.232116493E+01 -0.224760552E+01
   H  0.247542235E+02 -0.739101579E+00 -0.934585147E+00
     4
 # iter = 54000  time[fs]=54.00000
   C -0.624407109E+01  0.238648058E+00  0.185666463E+00
   C  0.551783828E+01  0.448440931E-01 -0.201675777E-01
   H -0.261562217E+02 -0.235401789E+01 -0.227952835E+01
   H  0.251062449E+02 -0.748939442E+00 -0.947299153E+00
     4
 # iter = 54500  time[fs]=54.50000
   C -0.634610476E+01  0.242574592E+00  0.189064247E+00
   C  0.560924986E+01  0.455074908E-01 -0.201789444E-01
   H -0.265244924E+02 -0.238688470E+01 -0.231146429E+01
   H  0.254584047E+02 -0.758781649E+00 -0.960018349E+00
     4
 # iter = 55000  time[fs]=55.00000
   C -0.644826318E+01  0.246504218E+00  0.192465225E+00
   C  0.570078556E+01  0.461692722E-01 -0.201920206E-01
   H -0.268928902E+02 -0.241976501E+01 -0.234341299E+01
   H  0.258106992E+02 -0.768628083E+00 -0.972742598E+00
     4
 # iter = 55500  time[fs]=55.50000
   C -0.655054237E+01  0.250436847E+00  0.195869302E+00
   C  0.579244142E+01  0.468294901E-01 -0.202067498E-01
   H -0.272614118E+02 -0.245265846E+01 -0.237537413E+01
   H  0.261631249E+02 -0.778478633E+00 -0.985471768E+00
     4
 # iter = 56000  time[fs]=56.00000
   C -0.665293853E+01  0.254372391E+00  0.199276388E+00
   C  0.588421366E+01  0.474881946E-01 -0.202230780E-01
   H -0.276300540E+02 -0.248556473E+01 -0.240734738E+01
   H  0.265156782E+02 -0.788333192E+00 -0.998205735E+00
     4
 # iter = 56500  time[fs]=56.50000
   C -0.675544806E+01  0.258310766E+00  0.202686396E+00
   C  0.597609867E+01  0.481454338E-01 -0.202409537E-01
   H -0.279988135E+02 -0.251848347E+01 -0.243933245E+01
   H  0.268683559E+02 -0.798191656E+00 -0.101094437E+01
     4
 # iter = 57000  time[fs]=57.00000
   C -0.685806748E+01  0.262251892E+00  0.206099241E+00
   C  0.606809301E+01  0.488012536E-01 -0.202603278E-01
   H -0.283676874E+02 -0.255141440E+01 -0.247132903E+01
   H  0.272211549E+02 -0.808053926E+00 -0.102368757E+01
     4
 # iter = 57500  time[fs]=57.50000
   C -0.696079350E+01  0.266195693E+00  0.209514845E+00
   C  0.616019338E+01  0.494556975E-01 -0.202811533E-01
   H -0.287366728E+02 -0.258435720E+01 -0.250333686E+01
   H  0.275740721E+02 -0.817919906E+00 -0.103643521E+01
     4
 # iter = 58000  time[fs]=58.00000
   C -0.706362294E+01  0.270142095E+00  0.212933131E+00
   C  0.625239663E+01  0.501088076E-01 -0.203033856E-01
   H -0.291057669E+02 -0.261731159E+01 -0.253535566E+01
   H  0.279271046E+02 -0.827789505E+00 -0.104918719E+01
     4
 # iter = 58500  time[fs]=58.50000
   C -0.716655277E+01  0.274091028E+00  0.216354026E+00
   C  0.634469974E+01  0.507606237E-01 -0.203269817E-01
   H -0.294749671E+02 -0.265027730E+01 -0.256738516E+01
   H  0.282802494E+02 -0.837662634E+00 -0.106194340E+01
     4
 # iter = 59000  time[fs]=59.00000
   C -0.726958011E+01  0.278042424E+00  0.219777460E+00
   C  0.643709983E+01  0.514111843E-01 -0.203519008E-01
   H -0.298442707E+02 -0.268325404E+01 -0.259942512E+01
   H  0.286335040E+02 -0.847539208E+00 -0.107470374E+01
     4
 # iter = 59500  time[fs]=59.50000
   C -0.737270215E+01  0.281996218E+00  0.223203363E+00
   C  0.652959412E+01  0.520605259E-01 -0.203781036E-01
   H -0.302136752E+02 -0.271624157E+01 -0.263147528E+01
   H  0.289868657E+02 -0.857419145E+00 -0.108746811E+01
     4
 # iter = 60000  time[fs]=60.00000
   C -0.747591625E+01  0.285952346E+00  0.226631673E+00
   C  0.662217997E+01  0.527086837E-01 -0.204055525E-01
   H -0.305831784E+02 -0.274923963E+01 -0.266353543E+01
   H  0.293403318E+02 -0.867302364E+00 -0.110023643E+01
     4
 # iter = 60500  time[fs]=60.50000
   C -0.757921984E+01  0.289910750E+00  0.230062326E+00
   C  0.671485482E+01  0.533556915E-01 -0.204342116E-01
   H -0.309527777E+02 -0.278224799E+01 -0.269560532E+01
   H  0.296939001E+02 -0.877188790E+00 -0.111300859E+01
     4
 # iter = 61000  time[fs]=61.00000
   C -0.768261046E+01  0.293871371E+00  0.233495262E+00
   C  0.680761622E+01  0.540015814E-01 -0.204640464E-01
   H -0.313224710E+02 -0.281526641E+01 -0.272768474E+01
   H  0.300475681E+02 -0.887078348E+00 -0.112578451E+01
     4
 # iter = 61500  time[fs]=61.50000
   C -0.778608577E+01  0.297834154E+00  0.236930424E+00
   C  0.690046184E+01  0.546463845E-01 -0.204950238E-01
   H -0.316922562E+02 -0.284829466E+01 -0.275977347E+01
   H  0.304013336E+02 -0.896970967E+00 -0.113856411E+01
     4
 # iter = 62000  time[fs]=62.00000
   C -0.788964349E+01  0.301799045E+00  0.240367755E+00
   C  0.699338942E+01  0.552901307E-01 -0.205271121E-01
   H -0.320621311E+02 -0.288133254E+01 -0.279187132E+01
   H  0.307551943E+02 -0.906866579E+00 -0.115134730E+01
     4
 # iter = 62500  time[fs]=62.50000
   C -0.799328145E+01  0.305765991E+00  0.243807203E+00
   C  0.708639679E+01  0.559328484E-01 -0.205602808E-01
   H -0.324320938E+02 -0.291437982E+01 -0.282397808E+01
   H  0.311091481E+02 -0.916765115E+00 -0.116413401E+01
     4
 # iter = 63000  time[fs]=63.00000
   C -0.809699756E+01  0.309734945E+00  0.247248715E+00
   C  0.717948186E+01  0.565745653E-01 -0.205945005E-01
   H -0.328021422E+02 -0.294743630E+01 -0.285609357E+01
   H  0.314631930E+02 -0.926666513E+00 -0.117692416E+01
     4
 # iter = 63500  time[fs]=63.50000
   C -0.820078979E+01  0.313705856E+00  0.250692241E+00
   C  0.727264264E+01  0.572153076E-01 -0.206297432E-01
   H -0.331722746E+02 -0.298050179E+01 -0.288821759E+01
   H  0.318173270E+02 -0.936570709E+00 -0.118971768E+01
     4
 # iter = 64000  time[fs]=64.00000
   C -0.830465622E+01  0.317678679E+00  0.254137735E+00
   C  0.736587718E+01  0.578551009E-01 -0.206659818E-01
   H -0.335424890E+02 -0.301357610E+01 -0.292034996E+01
   H  0.321715480E+02 -0.946477643E+00 -0.120251449E+01
     4
 # iter = 64500  time[fs]=64.50000
   C -0.840859497E+01  0.321653370E+00  0.257585148E+00
   C  0.745918363E+01  0.584939696E-01 -0.207031902E-01
   H -0.339127837E+02 -0.304665904E+01 -0.295249052E+01
   H  0.325258544E+02 -0.956387257E+00 -0.121531452E+01
     4
 # iter = 65000  time[fs]=65.00000
   C -0.851260424E+01  0.325629884E+00  0.261034438E+00
   C  0.755256020E+01  0.591319372E-01 -0.207413435E-01
   H -0.342831570E+02 -0.307975043E+01 -0.298463908E+01
   H  0.328802442E+02 -0.966299493E+00 -0.122811771E+01
     4
 # iter = 65500  time[fs]=65.50000
   C -0.861668230E+01  0.329608181E+00  0.264485559E+00
   C  0.764600516E+01  0.597690266E-01 -0.207804173E-01
   H -0.346536073E+02 -0.311285011E+01 -0.301679550E+01
   H  0.332347157E+02 -0.976214298E+00 -0.124092399E+01
     4
 # iter = 66000  time[fs]=66.00000
   C -0.872082748E+01  0.333588220E+00  0.267938471E+00
   C  0.773951685E+01  0.604052595E-01 -0.208203886E-01
   H -0.350241329E+02 -0.314595789E+01 -0.304895961E+01
   H  0.335892673E+02 -0.986131618E+00 -0.125373330E+01
     4
 # iter = 66500  time[fs]=66.50000
   C -0.882503816E+01  0.337569962E+00  0.271393134E+00
   C  0.783309366E+01  0.610406570E-01 -0.208612350E-01
   H -0.353947323E+02 -0.317907362E+01 -0.308113125E+01
   H  0.339438972E+02 -0.996051401E+00 -0.126654558E+01
     4
 # iter = 67000  time[fs]=67.00000
   C -0.892931279E+01  0.341553369E+00  0.274849508E+00
   C  0.792673404E+01  0.616752395E-01 -0.209029348E-01
   H -0.357654039E+02 -0.321219714E+01 -0.311331028E+01
   H  0.342986039E+02 -0.100597360E+01 -0.127936077E+01
     4
 # iter = 67500  time[fs]=67.50000
   C -0.903364986E+01  0.345538405E+00  0.278307556E+00
   C  0.802043649E+01  0.623090266E-01 -0.209454671E-01
   H -0.361361464E+02 -0.324532830E+01 -0.314549655E+01
   H  0.346533858E+02 -0.101589816E+01 -0.129217881E+01
     4
 # iter = 68000  time[fs]=68.00000
   C -0.913804792E+01  0.349525035E+00  0.281767240E+00
   C  0.811419958E+01  0.629420373E-01 -0.209888120E-01
   H -0.365069583E+02 -0.327846695E+01 -0.317768993E+01
   H  0.350082414E+02 -0.102582504E+01 -0.130499964E+01
     4
 # iter = 68500  time[fs]=68.50000
   C -0.924250557E+01  0.353513224E+00  0.285228527E+00
   C  0.820802189E+01  0.635742897E-01 -0.210329501E-01
   H -0.368778382E+02 -0.331161294E+01 -0.320989026E+01
   H  0.353631693E+02 -0.103575419E+01 -0.131782321E+01
     4
 # iter = 69000  time[fs]=69.00000
   C -0.934702145E+01  0.357502939E+00  0.288691381E+00
   C  0.830190210E+01  0.642058017E-01 -0.210778625E-01
   H -0.372487848E+02 -0.334476613E+01 -0.324209743E+01
   H  0.357181681E+02 -0.104568558E+01 -0.133064947E+01
     4
 # iter = 69500  time[fs]=69.50000
   C -0.945159426E+01  0.361494149E+00  0.292155770E+00
   C  0.839583888E+01  0.648365902E-01 -0.211235313E-01
   H -0.376197967E+02 -0.337792638E+01 -0.327431130E+01
   H  0.360732364E+02 -0.105561914E+01 -0.134347836E+01
     4
 # iter = 70000  time[fs]=70.00000
   C -0.955622271E+01  0.365486822E+00  0.295621661E+00
   C  0.848983098E+01  0.654666718E-01 -0.211699389E-01
   H -0.379908728E+02 -0.341109357E+01 -0.330653175E+01
   H  0.364283728E+02 -0.106555485E+01 -0.135630985E+01
     4
 # iter = 70500  time[fs]=70.50000
   C -0.966090560E+01  0.369480928E+00  0.299089023E+00
   C  0.858387718E+01  0.660960624E-01 -0.212170685E-01
   H -0.383620118E+02 -0.344426756E+01 -0.333875865E+01
   H  0.367835761E+02 -0.107549267E+01 -0.136914387E+01
     4
 # iter = 71000  time[fs]=71.00000
   C -0.976564172E+01  0.373476439E+00  0.302557827E+00
   C  0.867797629E+01  0.667247774E-01 -0.212649036E-01
   H -0.387332125E+02 -0.347744824E+01 -0.337099189E+01
   H  0.371388450E+02 -0.108543254E+01 -0.138198038E+01
     4
 # iter = 71500  time[fs]=71.50000
   C -0.987042994E+01  0.377473325E+00  0.306028043E+00
   C  0.877212718E+01  0.673528319E-01 -0.213134286E-01
   H -0.391044738E+02 -0.351063546E+01 -0.340323135E+01
   H  0.374941783E+02 -0.109537445E+01 -0.139481934E+01
     4
 # iter = 72000  time[fs]=72.00000
   C -0.997526913E+01  0.381471559E+00  0.309499642E+00
   C  0.886632873E+01  0.679802401E-01 -0.213626281E-01
   H -0.394757945E+02 -0.354382913E+01 -0.343547691E+01
   H  0.378495748E+02 -0.110531834E+01 -0.140766069E+01
     4
 # iter = 72500  time[fs]=72.50000
   C -0.100801582E+02  0.385471116E+00  0.312972598E+00
   C  0.896057987E+01  0.686070163E-01 -0.214124873E-01
   H -0.398471736E+02 -0.357702912E+01 -0.346772848E+01
   H  0.382050333E+02 -0.111526418E+01 -0.142050441E+01
     4
 # iter = 73000  time[fs]=73.00000
   C -0.101850962E+02  0.389471967E+00  0.316446883E+00
   C  0.905487956E+01  0.692331738E-01 -0.214629920E-01
   H -0.402186099E+02 -0.361023531E+01 -0.349998594E+01
   H  0.385605527E+02 -0.112521194E+01 -0.143335044E+01
     4
 # iter = 73500  time[fs]=73.50000
   C -0.102900819E+02  0.393474090E+00  0.319922472E+00
   C  0.914922679E+01  0.698587259E-01 -0.215141281E-01
   H -0.405901025E+02 -0.364344761E+01 -0.353224920E+01
   H  0.389161319E+02 -0.113516158E+01 -0.144619874E+01
     4
 # iter = 74000  time[fs]=74.00000
   C -0.103951146E+02  0.397477459E+00  0.323399339E+00
   C  0.924362059E+01  0.704836852E-01 -0.215658823E-01
   H -0.409616503E+02 -0.367666590E+01 -0.356451814E+01
   H  0.392717698E+02 -0.114511307E+01 -0.145904928E+01
     4
 # iter = 74500  time[fs]=74.50000
   C -0.105001931E+02  0.401482050E+00  0.326877460E+00
   C  0.933806001E+01  0.711080641E-01 -0.216182415E-01
   H -0.413332524E+02 -0.370989008E+01 -0.359679267E+01
   H  0.396274655E+02 -0.115506638E+01 -0.147190202E+01
     4
 # iter = 75000  time[fs]=75.00000
   C -0.106053166E+02  0.405487841E+00  0.330356811E+00
   C  0.943254412E+01  0.717318746E-01 -0.216711931E-01
   H -0.417049078E+02 -0.374312006E+01 -0.362907270E+01
   H  0.399832179E+02 -0.116502147E+01 -0.148475691E+01
     4
 # iter = 75500  time[fs]=75.50000
   C -0.107104842E+02  0.409494810E+00  0.333837369E+00
   C  0.952707203E+01  0.723551283E-01 -0.217247249E-01
   H -0.420766156E+02 -0.377635572E+01 -0.366135813E+01
   H  0.403390260E+02 -0.117497831E+01 -0.149761392E+01
     4
 # iter = 76000  time[fs]=76.00000
   C -0.108156951E+02  0.413502933E+00  0.337319112E+00
   C  0.962164289E+01  0.729778365E-01 -0.217788250E-01
   H -0.424483748E+02 -0.380959697E+01 -0.369364887E+01
   H  0.406948888E+02 -0.118493688E+01 -0.151047302E+01
     4
 # iter = 76500  time[fs]=76.50000
   C -0.109209482E+02  0.417512191E+00  0.340802017E+00
   C  0.971625583E+01  0.736000101E-01 -0.218334817E-01
   H -0.428201847E+02 -0.384284373E+01 -0.372594483E+01
   H  0.410508054E+02 -0.119489714E+01 -0.152333417E+01
     4
 # iter = 77000  time[fs]=77.00000
   C -0.110262430E+02  0.421522562E+00  0.344286065E+00
   C  0.981091006E+01  0.742216596E-01 -0.218886840E-01
   H -0.431920443E+02 -0.387609589E+01 -0.375824594E+01
   H  0.414067750E+02 -0.120485907E+01 -0.153619733E+01
     4
 # iter = 77500  time[fs]=77.50000
   C -0.111315784E+02  0.425534027E+00  0.347771233E+00
   C  0.990560476E+01  0.748427955E-01 -0.219444210E-01
   H -0.435639527E+02 -0.390935338E+01 -0.379055209E+01
   H  0.417627966E+02 -0.121482263E+01 -0.154906247E+01
     4
 # iter = 78000  time[fs]=78.00000
   C -0.112369538E+02  0.429546566E+00  0.351257501E+00
   C  0.100003392E+02  0.754634277E-01 -0.220006821E-01
   H -0.439359093E+02 -0.394261610E+01 -0.382286321E+01
   H  0.421188693E+02 -0.122478781E+01 -0.156192957E+01
     4
 # iter = 78500  time[fs]=78.50000
   C -0.113423685E+02  0.433560160E+00  0.354744851E+00
   C  0.100951126E+02  0.760835660E-01 -0.220574571E-01
   H -0.443079131E+02 -0.397588397E+01 -0.385517922E+01
   H  0.424749923E+02 -0.123475457E+01 -0.157479858E+01
     4
 # iter = 79000  time[fs]=79.00000
   C -0.114478216E+02  0.437574790E+00  0.358233263E+00
   C  0.101899242E+02  0.767032198E-01 -0.221147360E-01
   H -0.446799635E+02 -0.400915690E+01 -0.388750005E+01
   H  0.428311649E+02 -0.124472289E+01 -0.158766948E+01
     4
 # iter = 79500  time[fs]=79.50000
   C -0.115533125E+02  0.441590439E+00  0.361722719E+00
   C  0.102847733E+02  0.773223983E-01 -0.221725092E-01
   H -0.450520595E+02 -0.404243482E+01 -0.391982561E+01
   H  0.431873861E+02 -0.125469274E+01 -0.160054224E+01
     4
 # iter = 80000  time[fs]=80.00000
   C -0.116588404E+02  0.445607089E+00  0.365213200E+00
   C  0.103796592E+02  0.779411105E-01 -0.222307672E-01
   H -0.454242006E+02 -0.407571765E+01 -0.395215583E+01
   H  0.435436551E+02 -0.126466410E+01 -0.161341682E+01
