     4
 # iter = 25000  time[fs]=25.00000
   C -0.942216613E+00  0.466423578E-01 -0.288704696E-01
   C  0.100124614E+01 -0.352956063E-01  0.272664364E-01
   H -0.514411154E+01 -0.510470891E+00 -0.650596826E-01
   H  0.514961432E+01  0.549979178E+00 -0.293208722E+00
     4
 # iter = 25500  time[fs]=25.50000
   C -0.986718777E+00  0.480061785E-01 -0.304980088E-01
   C  0.104273611E+01 -0.397060326E-01  0.276892169E-01
   H -0.547905805E+01 -0.554403548E+00 -0.762473970E-01
   H  0.545565915E+01  0.578186175E+00 -0.321652625E+00
     4
 # iter = 26000  time[fs]=26.00000
   C -0.103539396E+01  0.485678633E-01 -0.331724518E-01
   C  0.108646088E+01 -0.452492353E-01  0.272426085E-01
   H -0.582218121E+01 -0.604058619E+00 -0.928626813E-01
   H  0.575913082E+01  0.601326123E+00 -0.355681855E+00
     4
 # iter = 26500  time[fs]=26.50000
   C -0.108512145E+01  0.511673746E-01 -0.340348356E-01
   C  0.113505526E+01 -0.490075876E-01  0.288236626E-01
   H -0.615706794E+01 -0.643310791E+00 -0.988140671E-01
   H  0.607582430E+01  0.635456918E+00 -0.379185777E+00
     4
 # iter = 27000  time[fs]=27.00000
   C -0.113550710E+01  0.559354148E-01 -0.329366751E-01
   C  0.118840989E+01 -0.508268950E-01  0.325671740E-01
   H -0.648265949E+01 -0.671334594E+00 -0.933033995E-01
   H  0.640627298E+01  0.681343908E+00 -0.391352321E+00
     4
 # iter = 27500  time[fs]=27.50000
   C -0.118843737E+01  0.607413002E-01 -0.319921573E-01
   C  0.124412905E+01 -0.528599208E-01  0.363022646E-01
   H -0.681071164E+01 -0.700076420E+00 -0.882993093E-01
   H  0.673827027E+01  0.726986319E+00 -0.404140604E+00
     4
 # iter = 28000  time[fs]=28.00000
   C -0.124519842E+01  0.640751972E-01 -0.326958422E-01
   C  0.130046916E+01 -0.566275715E-01  0.384913744E-01
   H -0.714950898E+01 -0.737985087E+00 -0.922697798E-01
   H  0.706314480E+01  0.763889061E+00 -0.426009999E+00
     4
 # iter = 28500  time[fs]=28.50000
   C -0.130498926E+01  0.665348736E-01 -0.344358632E-01
   C  0.135785401E+01 -0.615029514E-01  0.397462397E-01
   H -0.749546319E+01 -0.781618942E+00 -0.101790332E+00
   H  0.738415298E+01  0.795456480E+00 -0.453526250E+00
     4
 # iter = 29000  time[fs]=29.00000
   C -0.136614631E+01  0.695999289E-01 -0.357196921E-01
   C  0.141762411E+01 -0.659612645E-01  0.415778682E-01
   H -0.784003093E+01 -0.822564609E+00 -0.108462848E+00
   H  0.770955054E+01  0.830070822E+00 -0.478281541E+00
     4
 # iter = 29500  time[fs]=29.50000
   C -0.142799666E+01  0.737767733E-01 -0.360291403E-01
   C  0.148014414E+01 -0.694713230E-01  0.445048765E-01
   H -0.818018573E+01 -0.857908006E+00 -0.109386462E+00
   H  0.804211108E+01  0.870617715E+00 -0.497367514E+00
     4
 # iter = 30000  time[fs]=30.00000
   C -0.149111693E+01  0.783383834E-01 -0.360805354E-01
   C  0.154453626E+01 -0.727608611E-01  0.477880724E-01
   H -0.851988458E+01 -0.891702950E+00 -0.108626383E+00
   H  0.837765336E+01  0.913016551E+00 -0.514844243E+00
     4
 # iter = 30500  time[fs]=30.50000
   C -0.155618109E+01  0.824751289E-01 -0.366737928E-01
   C  0.160985210E+01 -0.766429791E-01  0.506039491E-01
   H -0.886356706E+01 -0.928474107E+00 -0.110717308E+00
   H  0.871153919E+01  0.952718679E+00 -0.535242042E+00
     4
 # iter = 31000  time[fs]=31.00000
   C -0.162308382E+01  0.861701942E-01 -0.378168985E-01
   C  0.167596398E+01 -0.811234073E-01  0.529373515E-01
   H -0.921121004E+01 -0.968274672E+00 -0.115721462E+00
   H  0.904361625E+01  0.989650577E+00 -0.558618264E+00
     4
 # iter = 31500  time[fs]=31.50000
   C -0.169119609E+01  0.899425588E-01 -0.389828485E-01
   C  0.174330157E+01 -0.856625072E-01  0.553193809E-01
   H -0.955977704E+01 -0.100813694E+01 -0.120679309E+00
   H  0.937676517E+01  0.102676254E+01 -0.582008290E+00
     4
 # iter = 32000  time[fs]=32.00000
   C -0.176009840E+01  0.941124685E-01 -0.398441109E-01
   C  0.181210179E+01 -0.899241889E-01  0.580783791E-01
   H -0.990736420E+01 -0.104621858E+01 -0.123755850E+00
   H  0.971274999E+01  0.106588106E+01 -0.603572759E+00
     4
 # iter = 32500  time[fs]=32.50000
   C -0.182984306E+01  0.985379874E-01 -0.405360058E-01
   C  0.188213911E+01 -0.940444693E-01  0.610712843E-01
   H -0.102546865E+02 -0.108328952E+01 -0.125727576E+00
   H  0.100507293E+02  0.110622128E+01 -0.624084811E+00
     4
 # iter = 33000  time[fs]=33.00000
   C -0.190063682E+01  0.102931313E+00 -0.413403216E-01
   C  0.195304715E+01 -0.983088516E-01  0.640061842E-01
   H -0.106032907E+02 -0.112094590E+01 -0.128196543E+00
   H  0.103890421E+02  0.114617331E+01 -0.645143675E+00
     4
 # iter = 33500  time[fs]=33.50000
   C -0.197249299E+01  0.107205780E+00 -0.423382494E-01
   C  0.202467159E+01 -0.102798419E+00  0.667961636E-01
   H -0.109535953E+02 -0.115965086E+01 -0.131631252E+00
   H  0.107271666E+02  0.118526184E+01 -0.667215027E+00
     4
 # iter = 34000  time[fs]=34.00000
   C -0.204522719E+01  0.111479283E+00 -0.434069009E-01
   C  0.209707296E+01 -0.107386276E+00  0.695628043E-01
   H -0.113048700E+02 -0.119871491E+01 -0.135347136E+00
   H  0.110657397E+02  0.122416550E+01 -0.689611444E+00
     4
 # iter = 34500  time[fs]=34.50000
   C -0.211866360E+01  0.115867296E+00 -0.444262476E-01
   C  0.217031483E+01 -0.111948558E+00  0.724251228E-01
   H -0.116564039E+02 -0.123746430E+01 -0.138674921E+00
   H  0.114053871E+02  0.126354819E+01 -0.711661033E+00
     4
 # iter = 35000  time[fs]=35.00000
   C -0.219275197E+01  0.120365159E+00 -0.453967850E-01
   C  0.224434327E+01 -0.116484402E+00  0.753795484E-01
   H -0.120081695E+02 -0.127590526E+01 -0.141624971E+00
   H  0.117460583E+02  0.130339445E+01 -0.733371910E+00
     4
 # iter = 35500  time[fs]=35.50000
   C -0.226751250E+01  0.124902656E+00 -0.463849197E-01
   C  0.231904188E+01 -0.121060251E+00  0.783555781E-01
   H -0.123605139E+02 -0.131441581E+01 -0.144579044E+00
   H  0.120873350E+02  0.134331773E+01 -0.755123861E+00
     4
 # iter = 36000  time[fs]=36.00000
   C -0.234293867E+01  0.129440638E+00 -0.474263091E-01
   C  0.239432993E+01 -0.125711284E+00  0.813143114E-01
   H -0.127136127E+02 -0.135320003E+01 -0.147744690E+00
   H  0.124289759E+02  0.138310613E+01 -0.777122576E+00
     4
 # iter = 36500  time[fs]=36.50000
   C -0.241897475E+01  0.133993099E+00 -0.485037506E-01
   C  0.247018438E+01 -0.130418859E+00  0.842709710E-01
   H -0.130673453E+02 -0.139216330E+01 -0.151030490E+00
   H  0.127710413E+02  0.142284710E+01 -0.799274845E+00
     4
 # iter = 37000  time[fs]=37.00000
   C -0.249555619E+01  0.138586385E+00 -0.495879516E-01
   C  0.254659798E+01 -0.135152084E+00  0.872533054E-01
   H -0.134215245E+02 -0.143114250E+01 -0.154276281E+00
   H  0.131136630E+02  0.146269719E+01 -0.821418828E+00
     4
 # iter = 37500  time[fs]=37.50000
   C -0.257264273E+01  0.143225668E+00 -0.506710245E-01
   C  0.262354471E+01 -0.139901963E+00  0.902674133E-01
   H -0.137760855E+02 -0.147009514E+01 -0.157442307E+00
   H  0.134568545E+02  0.150269277E+01 -0.843513243E+00
     4
 # iter = 38000  time[fs]=38.00000
   C -0.265021447E+01  0.147898624E+00 -0.517627883E-01
   C  0.270098329E+01 -0.144677621E+00  0.933014971E-01
   H -0.141310652E+02 -0.150907849E+01 -0.160588375E+00
   H  0.138005313E+02  0.154277085E+01 -0.865616501E+00
     4
 # iter = 38500  time[fs]=38.50000
   C -0.272825247E+01  0.152594542E+00 -0.528716412E-01
   C  0.277887637E+01 -0.149486794E+00  0.963453511E-01
   H -0.144864934E+02 -0.154814162E+01 -0.163765919E+00
   H  0.141446194E+02  0.158287706E+01 -0.887778735E+00
     4
 # iter = 39000  time[fs]=39.00000
   C -0.280673046E+01  0.157312339E+00 -0.539965278E-01
   C  0.285719851E+01 -0.154327631E+00  0.993985386E-01
   H -0.148423481E+02 -0.158728007E+01 -0.166972680E+00
   H  0.144891001E+02  0.162301092E+01 -0.909996458E+00
     4
 # iter = 39500  time[fs]=39.50000
   C -0.288561996E+01  0.162055226E+00 -0.551322522E-01
   C  0.293593052E+01 -0.159194113E+00  0.102464961E+00
   H -0.151985848E+02 -0.162646587E+01 -0.170182735E+00
   H  0.148339796E+02  0.166319582E+01 -0.932242597E+00
     4
 # iter = 40000  time[fs]=40.00000
   C -0.296489668E+01  0.166824131E+00 -0.562760485E-01
   C  0.301505258E+01 -0.164082742E+00  0.105546148E+00
   H -0.155551737E+02 -0.166568463E+01 -0.173383621E+00
   H  0.151792521E+02  0.170344185E+01 -0.954503613E+00
     4
 # iter = 40500  time[fs]=40.50000
   C -0.304454115E+01  0.171616905E+00 -0.574283574E-01
   C  0.309454328E+01 -0.168993334E+00  0.108640455E+00
   H -0.159121043E+02 -0.170493996E+01 -0.176580740E+00
   H  0.155248951E+02  0.174374137E+01 -0.976783903E+00
     4
 # iter = 41000  time[fs]=41.00000
   C -0.312453584E+01  0.176430978E+00 -0.585901569E-01
   C  0.317438218E+01 -0.173926294E+00  0.111745776E+00
   H -0.162693695E+02 -0.174423840E+01 -0.179782313E+00
   H  0.158708845E+02  0.178408408E+01 -0.999090750E+00
     4
 # iter = 41500  time[fs]=41.50000
   C -0.320486344E+01  0.181265027E+00 -0.597612912E-01
   C  0.325455138E+01 -0.178880907E+00  0.114861238E+00
   H -0.166269570E+02 -0.178358000E+01 -0.182989965E+00
   H  0.162172036E+02  0.182446639E+01 -0.102142489E+01
     4
 # iter = 42000  time[fs]=42.00000
   C -0.328550705E+01  0.186118585E+00 -0.609408433E-01
   C  0.333503502E+01 -0.183855713E+00  0.117986820E+00
   H -0.169848507E+02 -0.182296043E+01 -0.186200848E+00
   H  0.165638413E+02  0.186488931E+01 -0.104378265E+01
     4
 # iter = 42500  time[fs]=42.50000
   C -0.336645103E+01  0.190991133E+00 -0.621280429E-01
   C  0.341581825E+01 -0.188849438E+00  0.121122414E+00
   H -0.173430358E+02 -0.186237610E+01 -0.189412779E+00
   H  0.169107866E+02  0.190535329E+01 -0.106616105E+01
     4
 # iter = 43000  time[fs]=43.00000
   C -0.344768115E+01  0.195881815E+00 -0.633225380E-01
   C  0.349688684E+01 -0.193861258E+00  0.124267546E+00
   H -0.177015009E+02 -0.190182574E+01 -0.192625789E+00
   H  0.172580271E+02  0.194585668E+01 -0.108855938E+01
     4
 # iter = 43500  time[fs]=43.50000
   C -0.352918427E+01  0.200789689E+00 -0.645241405E-01
   C  0.357822736E+01 -0.198890548E+00  0.127421631E+00
   H -0.180602358E+02 -0.194130892E+01 -0.195840699E+00
   H  0.176055502E+02  0.198639712E+01 -0.111097777E+01
     4
 # iter = 44000  time[fs]=44.00000
   C -0.361094801E+01  0.205713955E+00 -0.657325918E-01
   C  0.365982733E+01 -0.203936632E+00  0.130584204E+00
   H -0.184192302E+02 -0.198082477E+01 -0.199057810E+00
   H  0.179533448E+02  0.202697285E+01 -0.113341586E+01
     4
 # iter = 44500  time[fs]=44.50000
   C -0.369296068E+01  0.210653954E+00 -0.669475560E-01
   C  0.374167519E+01 -0.208998782E+00  0.133754926E+00
   H -0.187784744E+02 -0.202037193E+01 -0.202276869E+00
   H  0.183014006E+02  0.206758275E+01 -0.115587276E+01
     4
 # iter = 45000  time[fs]=45.00000
   C -0.377521134E+01  0.215609078E+00 -0.681687069E-01
   C  0.382376008E+01 -0.214076299E+00  0.136933492E+00
   H -0.191379586E+02 -0.205994906E+01 -0.205497579E+00
   H  0.186497082E+02  0.210822583E+01 -0.117834759E+01
     4
 # iter = 45500  time[fs]=45.50000
   C -0.385768973E+01  0.220578723E+00 -0.693957694E-01
   C  0.390607181E+01 -0.219168556E+00  0.140119583E+00
   H -0.194976741E+02 -0.209955505E+01 -0.208719829E+00
   H  0.189982585E+02  0.214890097E+01 -0.120083968E+01
     4
 # iter = 46000  time[fs]=46.00000
   C -0.394038624E+01  0.225562303E+00 -0.706285031E-01
   C  0.398860075E+01 -0.224274983E+00  0.143312879E+00
   H -0.198576127E+02 -0.213918897E+01 -0.211943623E+00
   H  0.193470425E+02  0.218960699E+01 -0.122334849E+01
     4
 # iter = 46500  time[fs]=46.50000
   C -0.402329182E+01  0.230559265E+00 -0.718666794E-01
   C  0.407133790E+01 -0.229395035E+00  0.146513084E+00
   H -0.202177664E+02 -0.217884990E+01 -0.215168942E+00
   H  0.196960522E+02  0.223034282E+01 -0.124587350E+01
     4
 # iter = 47000  time[fs]=47.00000
   C -0.410639796E+01  0.235569098E+00 -0.731100749E-01
   C  0.415427475E+01 -0.234528193E+00  0.149719927E+00
   H -0.205781278E+02 -0.221853693E+01 -0.218395727E+00
   H  0.200452796E+02  0.227110745E+01 -0.126841417E+01
     4
 # iter = 47500  time[fs]=47.50000
   C -0.418969661E+01  0.240591319E+00 -0.743584768E-01
   C  0.423740330E+01 -0.239673960E+00  0.152933152E+00
   H -0.209386897E+02 -0.225824919E+01 -0.221623908E+00
   H  0.203947173E+02  0.231189997E+01 -0.129096997E+01
     4
 # iter = 48000  time[fs]=48.00000
   C -0.427318019E+01  0.245625470E+00 -0.756116864E-01
   C  0.432071601E+01 -0.244831872E+00  0.156152520E+00
   H -0.212994455E+02 -0.229798586E+01 -0.224853425E+00
   H  0.207443584E+02  0.235271948E+01 -0.131354041E+01
     4
 # iter = 48500  time[fs]=48.50000
   C -0.435684157E+01  0.250671117E+00 -0.768695173E-01
   C  0.440420574E+01 -0.250001485E+00  0.159377798E+00
   H -0.216603888E+02 -0.233774615E+01 -0.228084235E+00
   H  0.210941960E+02  0.239356512E+01 -0.133612502E+01
     4
 # iter = 49000  time[fs]=49.00000
   C -0.444067397E+01  0.255727846E+00 -0.781317938E-01
   C  0.448786576E+01 -0.255182384E+00  0.162608771E+00
   H -0.220215134E+02 -0.237752933E+01 -0.231316295E+00
   H  0.214442238E+02  0.243443608E+01 -0.135872337E+01
     4
 # iter = 49500  time[fs]=49.50000
   C -0.452467100E+01  0.260795267E+00 -0.793983490E-01
   C  0.457168969E+01 -0.260374172E+00  0.165845232E+00
   H -0.223828135E+02 -0.241733468E+01 -0.234549560E+00
   H  0.217944357E+02  0.247533158E+01 -0.138133503E+01
     4
 # iter = 50000  time[fs]=50.00000
   C -0.460882660E+01  0.265873007E+00 -0.806690251E-01
   C  0.465567150E+01 -0.265576471E+00  0.169086987E+00
   H -0.227442836E+02 -0.245716153E+01 -0.237783990E+00
   H  0.221448260E+02  0.251625086E+01 -0.140395960E+01
     4
 # iter = 50500  time[fs]=50.50000
   C -0.469313504E+01  0.270960716E+00 -0.819436722E-01
   C  0.473980547E+01 -0.270788923E+00  0.172333850E+00
   H -0.231059184E+02 -0.249700924E+01 -0.241019544E+00
   H  0.224953890E+02  0.255719324E+01 -0.142659670E+01
     4
 # iter = 51000  time[fs]=51.00000
   C -0.477759086E+01  0.276058057E+00 -0.832221485E-01
   C  0.482408618E+01 -0.276011189E+00  0.175585646E+00
   H -0.234677129E+02 -0.253687719E+01 -0.244256186E+00
   H  0.228461196E+02  0.259815801E+01 -0.144924595E+01
     4
 # iter = 51500  time[fs]=51.50000
   C -0.486218891E+01  0.281164711E+00 -0.845043195E-01
   C  0.490850847E+01 -0.281242943E+00  0.178842208E+00
   H -0.238296622E+02 -0.257676478E+01 -0.247493879E+00
   H  0.231970127E+02  0.263914455E+01 -0.147190700E+01
     4
 # iter = 52000  time[fs]=52.00000
   C -0.494692427E+01  0.286280374E+00 -0.857900573E-01
   C  0.499306746E+01 -0.286483877E+00  0.182103378E+00
   H -0.241917618E+02 -0.261667146E+01 -0.250732589E+00
   H  0.235480634E+02  0.268015223E+01 -0.149457953E+01
     4
 # iter = 52500  time[fs]=52.50000
   C -0.503179228E+01  0.291404756E+00 -0.870792405E-01
   C  0.507775850E+01 -0.291733698E+00  0.185369003E+00
   H -0.245540074E+02 -0.265659669E+01 -0.253972286E+00
   H  0.238992672E+02  0.272118044E+01 -0.151726320E+01
     4
 # iter = 53000  time[fs]=53.00000
   C -0.511678849E+01  0.296537582E+00 -0.883717534E-01
   C  0.516257716E+01 -0.296992123E+00  0.188638941E+00
   H -0.249163945E+02 -0.269653994E+01 -0.257212936E+00
   H  0.242506196E+02  0.276222863E+01 -0.153995770E+01
     4
 # iter = 53500  time[fs]=53.50000
   C -0.520190868E+01  0.301678586E+00 -0.896674861E-01
   C  0.524751924E+01 -0.302258887E+00  0.191913054E+00
   H -0.252789194E+02 -0.273650071E+01 -0.260454512E+00
   H  0.246021165E+02  0.280329625E+01 -0.156266275E+01
     4
 # iter = 54000  time[fs]=54.00000
   C -0.528714883E+01  0.306827519E+00 -0.909663337E-01
   C  0.533258071E+01 -0.307533731E+00  0.195191211E+00
   H -0.256415779E+02 -0.277647855E+01 -0.263696985E+00
   H  0.249537538E+02  0.284438276E+01 -0.158537805E+01
     4
 # iter = 54500  time[fs]=54.50000
   C -0.537250509E+01  0.311984138E+00 -0.922681963E-01
   C  0.541775776E+01 -0.312816413E+00  0.198473288E+00
   H -0.260043666E+02 -0.281647297E+01 -0.266940328E+00
   H  0.253055276E+02  0.288548768E+01 -0.160810333E+01
     4
 # iter = 55000  time[fs]=55.00000
   C -0.545797379E+01  0.317148215E+00 -0.935729787E-01
   C  0.550304674E+01 -0.318106699E+00  0.201759164E+00
   H -0.263672818E+02 -0.285648356E+01 -0.270184516E+00
   H  0.256574342E+02  0.292661051E+01 -0.163083833E+01
     4
 # iter = 55500  time[fs]=55.50000
   C -0.554355145E+01  0.322319529E+00 -0.948805899E-01
   C  0.558844416E+01 -0.323404364E+00  0.205048727E+00
   H -0.267303201E+02 -0.289650988E+01 -0.273429523E+00
   H  0.260094700E+02  0.296775078E+01 -0.165358279E+01
     4
 # iter = 56000  time[fs]=56.00000
   C -0.562923471E+01  0.327497868E+00 -0.961909429E-01
   C  0.567394669E+01 -0.328709195E+00  0.208341866E+00
   H -0.270934783E+02 -0.293655153E+01 -0.276675327E+00
   H  0.263616317E+02  0.300890806E+01 -0.167633648E+01
     4
 # iter = 56500  time[fs]=56.50000
   C -0.571502039E+01  0.332683033E+00 -0.975039548E-01
   C  0.575955115E+01 -0.334020986E+00  0.211638478E+00
   H -0.274567532E+02 -0.297660812E+01 -0.279921905E+00
   H  0.267139158E+02  0.305008192E+01 -0.169909916E+01
     4
 # iter = 57000  time[fs]=57.00000
   C -0.580090542E+01  0.337874828E+00 -0.988195461E-01
   C  0.584525450E+01 -0.339339541E+00  0.214938463E+00
   H -0.278201418E+02 -0.301667928E+01 -0.283169234E+00
   H  0.270663192E+02  0.309127193E+01 -0.172187061E+01
     4
 # iter = 57500  time[fs]=57.50000
   C -0.588688689E+01  0.343073069E+00 -0.100137641E+00
   C  0.593105382E+01 -0.344664672E+00  0.218241724E+00
   H -0.281836411E+02 -0.305676464E+01 -0.286417295E+00
   H  0.274188389E+02  0.313247770E+01 -0.174465061E+01
     4
 # iter = 58000  time[fs]=58.00000
   C -0.597296199E+01  0.348277578E+00 -0.101458166E+00
   C  0.601694633E+01 -0.349996196E+00  0.221548170E+00
   H -0.285472484E+02 -0.309686385E+01 -0.289666067E+00
   H  0.277714720E+02  0.317369884E+01 -0.176743894E+01
     4
 # iter = 58500  time[fs]=58.50000
   C -0.605912804E+01  0.353488183E+00 -0.102781053E+00
   C  0.610292936E+01 -0.355333942E+00  0.224857714E+00
   H -0.289109610E+02 -0.313697659E+01 -0.292915531E+00
   H  0.281242155E+02  0.321493500E+01 -0.179023542E+01
     4
 # iter = 59000  time[fs]=59.00000
   C -0.614538247E+01  0.358704721E+00 -0.104106233E+00
   C  0.618900033E+01 -0.360677741E+00  0.228170270E+00
   H -0.292747763E+02 -0.317710252E+01 -0.296165670E+00
   H  0.284770669E+02  0.325618580E+01 -0.181303984E+01
     4
 # iter = 59500  time[fs]=59.50000
   C -0.623172281E+01  0.363927035E+00 -0.105433644E+00
   C  0.627515680E+01 -0.366027433E+00  0.231485757E+00
   H -0.296386918E+02 -0.321724134E+01 -0.299416464E+00
   H  0.288300235E+02  0.329745090E+01 -0.183585203E+01
     4
 # iter = 60000  time[fs]=60.00000
   C -0.631814669E+01  0.369154972E+00 -0.106763223E+00
   C  0.636139640E+01 -0.371382865E+00  0.234804098E+00
   H -0.300027050E+02 -0.325739275E+01 -0.302667897E+00
   H  0.291830827E+02  0.333872998E+01 -0.185867179E+01
     4
 # iter = 60500  time[fs]=60.50000
   C -0.640465183E+01  0.374388388E+00 -0.108094911E+00
   C  0.644771688E+01 -0.376743888E+00  0.238125217E+00
   H -0.303668137E+02 -0.329755645E+01 -0.305919954E+00
   H  0.295362421E+02  0.338002270E+01 -0.188149896E+01
     4
 # iter = 61000  time[fs]=61.00000
   C -0.649123607E+01  0.379627141E+00 -0.109428653E+00
   C  0.653411606E+01 -0.382110359E+00  0.241449043E+00
   H -0.307310157E+02 -0.333773216E+01 -0.309172617E+00
   H  0.298894994E+02  0.342132877E+01 -0.190433337E+01
     4
 # iter = 61500  time[fs]=61.50000
   C -0.657789728E+01  0.384871096E+00 -0.110764392E+00
   C  0.662059184E+01 -0.387482141E+00  0.244775506E+00
   H -0.310953086E+02 -0.337791961E+01 -0.312425872E+00
   H  0.302428522E+02  0.346264788E+01 -0.192717485E+01
     4
 # iter = 62000  time[fs]=62.00000
   C -0.666463347E+01  0.390120125E+00 -0.112102078E+00
   C  0.670714221E+01 -0.392859102E+00  0.248104539E+00
   H -0.314596906E+02 -0.341811855E+01 -0.315679704E+00
   H  0.305962985E+02  0.350397974E+01 -0.195002324E+01
     4
 # iter = 62500  time[fs]=62.50000
   C -0.675144267E+01  0.395374100E+00 -0.113441659E+00
   C  0.679376525E+01 -0.398241113E+00  0.251436078E+00
   H -0.318241594E+02 -0.345832871E+01 -0.318934100E+00
   H  0.309498361E+02  0.354532407E+01 -0.197287841E+01
     4
 # iter = 63000  time[fs]=63.00000
   C -0.683832304E+01  0.400632902E+00 -0.114783087E+00
   C  0.688045909E+01 -0.403628053E+00  0.254770062E+00
   H -0.321887133E+02 -0.349854985E+01 -0.322189045E+00
   H  0.313034628E+02  0.358668060E+01 -0.199574019E+01
     4
 # iter = 63500  time[fs]=63.50000
   C -0.692527275E+01  0.405896414E+00 -0.116126315E+00
   C  0.696722194E+01 -0.409019802E+00  0.258106430E+00
   H -0.325533502E+02 -0.353878174E+01 -0.325444526E+00
   H  0.316571768E+02  0.362804907E+01 -0.201860844E+01
     4
 # iter = 64000  time[fs]=64.00000
   C -0.701229009E+01  0.411164524E+00 -0.117471298E+00
   C  0.705405206E+01 -0.414416246E+00  0.261445125E+00
   H -0.329180685E+02 -0.357902415E+01 -0.328700531E+00
   H  0.320109762E+02  0.366942922E+01 -0.204148304E+01
     4
 # iter = 64500  time[fs]=64.50000
   C -0.709937337E+01  0.416437123E+00 -0.118817993E+00
   C  0.714094781E+01 -0.419817275E+00  0.264786092E+00
   H -0.332828662E+02 -0.361927684E+01 -0.331957048E+00
   H  0.323648590E+02  0.371082082E+01 -0.206436384E+01
     4
 # iter = 65000  time[fs]=65.00000
   C -0.718652099E+01  0.421714106E+00 -0.120166358E+00
   C  0.722790757E+01 -0.425222781E+00  0.268129276E+00
   H -0.336477417E+02 -0.365953962E+01 -0.335214065E+00
   H  0.327188235E+02  0.375222361E+01 -0.208725071E+01
     4
 # iter = 65500  time[fs]=65.50000
   C -0.727373140E+01  0.426995372E+00 -0.121516352E+00
   C  0.731492980E+01 -0.430632663E+00  0.271474627E+00
   H -0.340126933E+02 -0.369981227E+01 -0.338471570E+00
   H  0.330728680E+02  0.379363737E+01 -0.211014354E+01
     4
 # iter = 66000  time[fs]=66.00000
   C -0.736100309E+01  0.432280824E+00 -0.122867938E+00
   C  0.740201300E+01 -0.436046819E+00  0.274822094E+00
   H -0.343777195E+02 -0.374009458E+01 -0.341729552E+00
   H  0.334269907E+02  0.383506188E+01 -0.213304220E+01
     4
 # iter = 66500  time[fs]=66.50000
   C -0.744833462E+01  0.437570367E+00 -0.124221077E+00
   C  0.748915573E+01 -0.441465155E+00  0.278171629E+00
   H -0.347428187E+02 -0.378038636E+01 -0.344988001E+00
   H  0.337811901E+02  0.387649692E+01 -0.215594656E+01
     4
 # iter = 67000  time[fs]=67.00000
   C -0.753572458E+01  0.442863910E+00 -0.125575732E+00
   C  0.757635660E+01 -0.446887577E+00  0.281523186E+00
   H -0.351079894E+02 -0.382068743E+01 -0.348246906E+00
   H  0.341354645E+02  0.391794227E+01 -0.217885652E+01
     4
 # iter = 67500  time[fs]=67.50000
   C -0.762317163E+01  0.448161363E+00 -0.126931870E+00
   C  0.766361427E+01 -0.452313995E+00  0.284876719E+00
   H -0.354732301E+02 -0.386099759E+01 -0.351506258E+00
   H  0.344898125E+02  0.395939774E+01 -0.220177197E+01
     4
 # iter = 68000  time[fs]=68.00000
   C -0.771067447E+01  0.453462643E+00 -0.128289455E+00
   C  0.775092743E+01 -0.457744321E+00  0.288232184E+00
   H -0.358385393E+02 -0.390131667E+01 -0.354766046E+00
   H  0.348442325E+02  0.400086312E+01 -0.222469280E+01
     4
 # iter = 68500  time[fs]=68.50000
   C -0.779823182E+01  0.458767665E+00 -0.129648456E+00
   C  0.783829483E+01 -0.463178472E+00  0.291589540E+00
   H -0.362039158E+02 -0.394164449E+01 -0.358026262E+00
   H  0.351987231E+02  0.404233823E+01 -0.224761890E+01
     4
 # iter = 69000  time[fs]=69.00000
   C -0.788584248E+01  0.464076350E+00 -0.131008840E+00
   C  0.792571526E+01 -0.468616366E+00  0.294948745E+00
   H -0.365693582E+02 -0.398198089E+01 -0.361286896E+00
   H  0.355532829E+02  0.408382287E+01 -0.227055018E+01
     4
 # iter = 69500  time[fs]=69.50000
   C -0.797350526E+01  0.469388620E+00 -0.132370578E+00
   C  0.801318754E+01 -0.474057924E+00  0.298309761E+00
   H -0.369348653E+02 -0.402232570E+01 -0.364547939E+00
   H  0.359079105E+02  0.412531687E+01 -0.229348652E+01
     4
 # iter = 70000  time[fs]=70.00000
   C -0.806121901E+01  0.474704399E+00 -0.133733639E+00
   C  0.810071053E+01 -0.479503068E+00  0.301672548E+00
   H -0.373004356E+02 -0.406267876E+01 -0.367809384E+00
   H  0.362626046E+02  0.416682005E+01 -0.231642785E+01
     4
 # iter = 70500  time[fs]=70.50000
   C -0.814898264E+01  0.480023616E+00 -0.135097994E+00
   C  0.818828314E+01 -0.484951725E+00  0.305037069E+00
   H -0.376660681E+02 -0.410303992E+01 -0.371071221E+00
   H  0.366173640E+02  0.420833223E+01 -0.233937406E+01
     4
 # iter = 71000  time[fs]=71.00000
   C -0.823679507E+01  0.485346199E+00 -0.136463617E+00
   C  0.827590429E+01 -0.490403823E+00  0.308403289E+00
   H -0.380317615E+02 -0.414340903E+01 -0.374333443E+00
   H  0.369721874E+02  0.424985325E+01 -0.236232507E+01
     4
 # iter = 71500  time[fs]=71.50000
   C -0.832465526E+01  0.490672079E+00 -0.137830479E+00
   C  0.836357295E+01 -0.495859291E+00  0.311771173E+00
   H -0.383975148E+02 -0.418378594E+01 -0.377596042E+00
   H  0.373270736E+02  0.429138295E+01 -0.238528078E+01
     4
 # iter = 72000  time[fs]=72.00000
   C -0.841256220E+01  0.496001190E+00 -0.139198556E+00
   C  0.845128813E+01 -0.501318063E+00  0.315140687E+00
   H -0.387633267E+02 -0.422417050E+01 -0.380859011E+00
   H  0.376820215E+02  0.433292117E+01 -0.240824112E+01
     4
 # iter = 72500  time[fs]=72.50000
   C -0.850051494E+01  0.501333468E+00 -0.140567821E+00
   C  0.853904885E+01 -0.506780071E+00  0.318511798E+00
   H -0.391291962E+02 -0.426456259E+01 -0.384122341E+00
   H  0.380370297E+02  0.437446776E+01 -0.243120599E+01
     4
 # iter = 73000  time[fs]=73.00000
   C -0.858851251E+01  0.506668850E+00 -0.141938250E+00
   C  0.862685417E+01 -0.512245252E+00  0.321884474E+00
   H -0.394951222E+02 -0.430496206E+01 -0.387386027E+00
   H  0.383920974E+02  0.441602257E+01 -0.245417532E+01
     4
 # iter = 73500  time[fs]=73.50000
   C -0.867655400E+01  0.512007275E+00 -0.143309820E+00
   C  0.871470318E+01 -0.517713545E+00  0.325258684E+00
   H -0.398611037E+02 -0.434536878E+01 -0.390650061E+00
   H  0.387472233E+02  0.445758544E+01 -0.247714903E+01
     4
 # iter = 74000  time[fs]=74.00000
   C -0.876463853E+01  0.517348684E+00 -0.144682507E+00
   C  0.880259500E+01 -0.523184889E+00  0.328634398E+00
   H -0.402271397E+02 -0.438578263E+01 -0.393914436E+00
   H  0.391024065E+02  0.449915625E+01 -0.250012704E+01
     4
 # iter = 74500  time[fs]=74.50000
   C -0.885276523E+01  0.522693019E+00 -0.146056289E+00
   C  0.889052877E+01 -0.528659225E+00  0.332011588E+00
   H -0.405932292E+02 -0.442620348E+01 -0.397179147E+00
   H  0.394576459E+02  0.454073484E+01 -0.252310927E+01
     4
 # iter = 75000  time[fs]=75.00000
   C -0.894093326E+01  0.528040225E+00 -0.147431145E+00
   C  0.897850365E+01 -0.534136496E+00  0.335390224E+00
   H -0.409593713E+02 -0.446663121E+01 -0.400444186E+00
   H  0.398129404E+02  0.458232110E+01 -0.254609566E+01
     4
 # iter = 75500  time[fs]=75.50000
   C -0.902914181E+01  0.533390247E+00 -0.148807052E+00
   C  0.906651883E+01 -0.539616648E+00  0.338770279E+00
   H -0.413255651E+02 -0.450706571E+01 -0.403709547E+00
   H  0.401682893E+02  0.462391488E+01 -0.256908613E+01
     4
 # iter = 76000  time[fs]=76.00000
   C -0.911739009E+01  0.538743034E+00 -0.150183991E+00
   C  0.915457353E+01 -0.545099626E+00  0.342151727E+00
   H -0.416918096E+02 -0.454750685E+01 -0.406975225E+00
   H  0.405236914E+02  0.466551606E+01 -0.259208062E+01
     4
 # iter = 76500  time[fs]=76.50000
   C -0.920567733E+01  0.544098533E+00 -0.151561942E+00
   C  0.924266698E+01 -0.550585378E+00  0.345534542E+00
   H -0.420581039E+02 -0.458795453E+01 -0.410241214E+00
   H  0.408791459E+02  0.470712452E+01 -0.261507905E+01
     4
 # iter = 77000  time[fs]=77.00000
   C -0.929400279E+01  0.549456694E+00 -0.152940886E+00
   C  0.933079845E+01 -0.556073853E+00  0.348918697E+00
   H -0.424244473E+02 -0.462840863E+01 -0.413507507E+00
   H  0.412346519E+02  0.474874013E+01 -0.263808136E+01
     4
 # iter = 77500  time[fs]=77.50000
   C -0.938236574E+01  0.554817470E+00 -0.154320803E+00
   C  0.941896720E+01 -0.561565002E+00  0.352304170E+00
   H -0.427908389E+02 -0.466886906E+01 -0.416774100E+00
   H  0.415902084E+02  0.479036277E+01 -0.266108748E+01
     4
 # iter = 78000  time[fs]=78.00000
   C -0.947076548E+01  0.560180812E+00 -0.155701675E+00
   C  0.950717255E+01 -0.567058777E+00  0.355690934E+00
   H -0.431572779E+02 -0.470933570E+01 -0.420040988E+00
   H  0.419458148E+02  0.483199233E+01 -0.268409736E+01
     4
 # iter = 78500  time[fs]=78.50000
   C -0.955920132E+01  0.565546676E+00 -0.157083485E+00
   C  0.959541380E+01 -0.572555130E+00  0.359078969E+00
   H -0.435237634E+02 -0.474980846E+01 -0.423308164E+00
   H  0.423014700E+02  0.487362871E+01 -0.270711093E+01
     4
 # iter = 79000  time[fs]=79.00000
   C -0.964767260E+01  0.570915015E+00 -0.158466216E+00
   C  0.968369030E+01 -0.578054017E+00  0.362468250E+00
   H -0.438902947E+02 -0.479028723E+01 -0.426575624E+00
   H  0.426571734E+02  0.491527178E+01 -0.273012814E+01
     4
 # iter = 79500  time[fs]=79.50000
   C -0.973617867E+01  0.576285788E+00 -0.159849850E+00
   C  0.977200139E+01 -0.583555392E+00  0.365858755E+00
   H -0.442568711E+02 -0.483077192E+01 -0.429843362E+00
   H  0.430129241E+02  0.495692144E+01 -0.275314891E+01
     4
 # iter = 80000  time[fs]=80.00000
   C -0.982471889E+01  0.581658950E+00 -0.161234371E+00
   C  0.986034645E+01 -0.589059212E+00  0.369250464E+00
   H -0.446234918E+02 -0.487126243E+01 -0.433111375E+00
   H  0.433687213E+02  0.499857758E+01 -0.277617321E+01
