     4
 # iter = 25000  time[fs]=25.00000
   C -0.972840829E+00  0.118075407E-01 -0.917352203E-02
   C  0.100565247E+01 -0.142883895E-01 -0.503515700E-03
   H -0.522663237E+01  0.563179792E+00 -0.590360844E+00
   H  0.534644619E+01 -0.556536621E+00  0.697928655E+00
     4
 # iter = 25500  time[fs]=25.50000
   C -0.101884658E+01  0.106202584E-01 -0.634917843E-02
   C  0.105088972E+01 -0.122535140E-01 -0.250330591E-02
   H -0.555653620E+01  0.599317424E+00 -0.625583561E+00
   H  0.566053436E+01 -0.588876775E+00  0.740491972E+00
     4
 # iter = 26000  time[fs]=26.00000
   C -0.106959309E+01  0.947471906E-02 -0.352287836E-02
   C  0.110087444E+01 -0.102619661E-01 -0.450847802E-02
   H -0.588908303E+01  0.635762801E+00 -0.661130392E+00
   H  0.597718499E+01 -0.621505659E+00  0.783420508E+00
     4
 # iter = 26500  time[fs]=26.50000
   C -0.112465411E+01  0.835887421E-02 -0.685011307E-03
   C  0.115517843E+01 -0.830137895E-02 -0.652850009E-02
   H -0.622397971E+01  0.672481843E+00 -0.696964929E+00
   H  0.629612844E+01 -0.654393012E+00  0.826676146E+00
     4
 # iter = 27000  time[fs]=27.00000
   C -0.118362772E+01  0.726299555E-02  0.217155193E-02
   C  0.121339828E+01 -0.636177726E-02 -0.857034879E-02
   H -0.656097894E+01  0.709445930E+00 -0.733056683E+00
   H  0.661713513E+01 -0.687513178E+00  0.870226567E+00
     4
 # iter = 27500  time[fs]=27.50000
   C -0.124614176E+01  0.617937828E-02  0.505187099E-02
   C  0.127516072E+01 -0.443526184E-02 -0.106389292E-01
   H -0.689987026E+01  0.746630785E+00 -0.769379857E+00
   H  0.694000803E+01 -0.720844214E+00  0.914044118E+00
     4
 # iter = 28000  time[fs]=28.00000
   C -0.131185622E+01  0.510201991E-02  0.795934237E-02
   C  0.134012487E+01 -0.251567564E-02 -0.127374862E-01
   H -0.724047305E+01  0.784015628E+00 -0.805912419E+00
   H  0.726457684E+01 -0.754367195E+00  0.958104948E+00
     4
 # iter = 28500  time[fs]=28.50000
   C -0.138046342E+01  0.402631332E-02  0.108960651E-01
   C  0.140798240E+01 -0.598287443E-03 -0.148679723E-01
   H -0.758263125E+01  0.821582530E+00 -0.842635398E+00
   H  0.759069338E+01 -0.788065680E+00  0.100238833E+01
     4
 # iter = 29000  time[fs]=29.00000
   C -0.145168680E+01  0.294877332E-02  0.138631516E-01
   C  0.147845625E+01  0.132048847E-02 -0.170313605E-01
   H -0.792620903E+01  0.859315909E+00 -0.879532333E+00
   H  0.791822794E+01 -0.821925294E+00  0.104687613E+01
     4
 # iter = 29500  time[fs]=29.50000
   C -0.152527895E+01  0.186680388E-02  0.168609805E-01
   C  0.155129860E+01  0.324333017E-02 -0.192278979E-01
   H -0.827108754E+01  0.897202132E+00 -0.916588848E+00
   H  0.824706634E+01 -0.855933388E+00  0.109155238E+01
     4
 # iter = 30000  time[fs]=30.00000
   C -0.160101914E+01  0.778505857E-03  0.198893980E-01
   C  0.162628844E+01  0.517220421E-02 -0.214573067E-01
   H -0.861716214E+01  0.935229203E+00 -0.953792309E+00
   H  0.857710757E+01 -0.890078775E+00  0.113640298E+01
     4
 # iter = 30500  time[fs]=30.50000
   C -0.167871077E+01 -0.317478433E-03  0.229478735E-01
   C  0.170322891E+01  0.710852399E-02 -0.237189397E-01
   H -0.896434025E+01  0.973386506E+00 -0.991131551E+00
   H  0.890826184E+01 -0.924351506E+00  0.118141535E+01
     4
 # iter = 31000  time[fs]=31.00000
   C -0.175817879E+01 -0.142208903E-02  0.260356180E-01
   C  0.178194481E+01  0.905327589E-02 -0.260118992E-01
   H -0.931253959E+01  0.101166460E+01 -0.102859665E+01
   H  0.924044899E+01 -0.958742697E+00  0.122657828E+01
     4
 # iter = 31500  time[fs]=31.50000
   C -0.183926735E+01 -0.253594591E-02  0.291516732E-01
   C  0.186228015E+01  0.110071185E-01 -0.283351252E-01
   H -0.966168671E+01  0.105005504E+01 -0.106617877E+01
   H  0.957359717E+01 -0.993244374E+00  0.127188168E+01
     4
 # iter = 32000  time[fs]=32.00000
   C -0.192183756E+01 -0.365942527E-02  0.322949779E-01
   C  0.194409593E+01  0.129704606E-01 -0.306874611E-01
   H -0.100117157E+02  0.108855027E+01 -0.110386995E+01
   H  0.990764172E+01 -0.102784936E+01  0.131731648E+01
     4
 # iter = 32500  time[fs]=32.50000
   C -0.200576549E+01 -0.479271888E-02  0.354644159E-01
   C  0.202726814E+01  0.149435211E-01 -0.330677018E-01
   H -0.103625674E+02  0.112714346E+01 -0.114166307E+01
   H  0.102425243E+02 -0.106255116E+01  0.136287447E+01
     4
 # iter = 33000  time[fs]=33.00000
   C -0.209094039E+01 -0.593588007E-02  0.386588511E-01
   C  0.211168601E+01  0.169263764E-01 -0.354746279E-01
   H -0.107141883E+02  0.116582845E+01 -0.117955167E+01
   H  0.105781919E+02 -0.109734388E+01  0.140854820E+01
     4
 # iter = 33500  time[fs]=33.50000
   C -0.217726312E+01 -0.708885915E-02  0.418771519E-01
   C  0.219725034E+01  0.189189964E-01 -0.379070302E-01
   H -0.110665298E+02  0.120459965E+01 -0.121752989E+01
   H  0.109145966E+02 -0.113222217E+01  0.145433089E+01
     4
 # iter = 34000  time[fs]=34.00000
   C -0.226464476E+01 -0.825153083E-02  0.451182087E-01
   C  0.228387218E+01  0.209212723E-01 -0.403637261E-01
   H -0.114195479E+02  0.124345196E+01 -0.125559243E+01
   H  0.112516946E+02 -0.116718113E+01  0.150021633E+01
     4
 # iter = 34500  time[fs]=34.50000
   C -0.235300538E+01 -0.942371518E-02  0.483809451E-01
   C  0.237147161E+01  0.229330382E-01 -0.428435709E-01
   H -0.117732024E+02  0.128238073E+01 -0.129373441E+01
   H  0.115894457E+02 -0.120221629E+01  0.154619885E+01
     4
 # iter = 35000  time[fs]=35.00000
   C -0.244227298E+01 -0.106051937E-01  0.516643258E-01
   C  0.245997663E+01  0.249540876E-01 -0.453454653E-01
   H -0.121274567E+02  0.132138171E+01 -0.133195141E+01
   H  0.119278134E+02 -0.123732353E+01  0.159227325E+01
     4
 # iter = 35500  time[fs]=35.50000
   C -0.253238258E+01 -0.117957218E-01  0.549673602E-01
   C  0.254932225E+01  0.269841861E-01 -0.478683588E-01
   H -0.124822771E+02  0.136045100E+01 -0.137023934E+01
   H  0.122667639E+02 -0.127249907E+01  0.163843473E+01
     4
 # iter = 36000  time[fs]=36.00000
   C -0.262327540E+01 -0.129950378E-01  0.582891057E-01
   C  0.263944971E+01  0.290230809E-01 -0.504112521E-01
   H -0.128376328E+02  0.139958500E+01 -0.140859446E+01
   H  0.126062663E+02 -0.130773941E+01  0.168467887E+01
     4
 # iter = 36500  time[fs]=36.50000
   C -0.271489814E+01 -0.142028706E-01  0.616286676E-01
   C  0.273030571E+01  0.310705080E-01 -0.529731975E-01
   H -0.131934952E+02  0.143878040E+01 -0.144701331E+01
   H  0.129462918E+02 -0.134304135E+01  0.173100157E+01
     4
 # iter = 37000  time[fs]=37.00000
   C -0.280720239E+01 -0.154189446E-01  0.649851989E-01
   C  0.282184188E+01  0.331261983E-01 -0.555532981E-01
   H -0.135498381E+02  0.147803413E+01 -0.148549271E+01
   H  0.132868141E+02 -0.137840188E+01  0.177739904E+01
     4
 # iter = 37500  time[fs]=37.50000
   C -0.290014406E+01 -0.166429840E-01  0.683578995E-01
   C  0.291401414E+01  0.351898813E-01 -0.581507068E-01
   H -0.139066373E+02  0.151734336E+01 -0.152402970E+01
   H  0.136278086E+02 -0.141381823E+01  0.182386776E+01
     4
 # iter = 38000  time[fs]=38.00000
   C -0.299368295E+01 -0.178747154E-01  0.717460143E-01
   C  0.300678231E+01  0.372612882E-01 -0.607646240E-01
   H -0.142638703E+02  0.155670545E+01 -0.156262153E+01
   H  0.139692525E+02 -0.144928783E+01  0.187040446E+01
     4
 # iter = 38500  time[fs]=38.50000
   C -0.308778230E+01 -0.191138705E-01  0.751488312E-01
   C  0.310010965E+01  0.393401547E-01 -0.633942959E-01
   H -0.146215162E+02  0.159611795E+01 -0.160126565E+01
   H  0.143111248E+02 -0.148480827E+01  0.191700609E+01
     4
 # iter = 39000  time[fs]=39.00000
   C -0.318240843E+01 -0.203601873E-01  0.785656794E-01
   C  0.319396252E+01  0.414262218E-01 -0.660390118E-01
   H -0.149795556E+02  0.163557858E+01 -0.163995970E+01
   H  0.146534058E+02 -0.152037731E+01  0.196366979E+01
     4
 # iter = 39500  time[fs]=39.50000
   C -0.327753045E+01 -0.216134113E-01  0.819959268E-01
   C  0.328831004E+01  0.435192380E-01 -0.686981024E-01
   H -0.153379704E+02  0.167508522E+01 -0.167870146E+01
   H  0.149960769E+02 -0.155599286E+01  0.201039291E+01
     4
 # iter = 40000  time[fs]=40.00000
   C -0.337311996E+01 -0.228732961E-01  0.854389777E-01
   C  0.338312384E+01  0.456189591E-01 -0.713709366E-01
   H -0.156967438E+02  0.171463587E+01 -0.171748886E+01
   H  0.153391212E+02 -0.159165294E+01  0.205717295E+01
     4
 # iter = 40500  time[fs]=40.50000
   C -0.346915079E+01 -0.241396042E-01  0.888942713E-01
   C  0.347837778E+01  0.477251494E-01 -0.740569198E-01
   H -0.160558600E+02  0.175422867E+01 -0.175631996E+01
   H  0.156825224E+02 -0.162735574E+01  0.210400757E+01
     4
 # iter = 41000  time[fs]=41.00000
   C -0.356559880E+01 -0.254121067E-01  0.923612788E-01
   C  0.357404775E+01  0.498375817E-01 -0.767554916E-01
   H -0.164153043E+02  0.179386187E+01 -0.179519295E+01
   H  0.160262656E+02 -0.166309950E+01  0.215089457E+01
     4
 # iter = 41500  time[fs]=41.50000
   C -0.366244168E+01 -0.266905837E-01  0.958395018E-01
   C  0.367011146E+01  0.519560374E-01 -0.794661233E-01
   H -0.167750629E+02  0.183353385E+01 -0.183410614E+01
   H  0.163703366E+02 -0.169888263E+01  0.219783190E+01
     4
 # iter = 42000  time[fs]=42.00000
   C -0.375965878E+01 -0.279748242E-01  0.993284704E-01
   C  0.376654828E+01  0.540803065E-01 -0.821883164E-01
   H -0.171351228E+02  0.187324305E+01 -0.187305791E+01
   H  0.167147221E+02 -0.173470358E+01  0.224481760E+01
     4
 # iter = 42500  time[fs]=42.50000
   C -0.385723095E+01 -0.292646261E-01  0.102827741E+00
   C  0.386333909E+01  0.562101876E-01 -0.849216000E-01
   H -0.174954717E+02  0.191298803E+01 -0.191204676E+01
   H  0.170594097E+02 -0.177056091E+01  0.229184985E+01
     4
 # iter = 43000  time[fs]=43.00000
   C -0.395514041E+01 -0.305597955E-01  0.106336895E+00
   C  0.396046614E+01  0.583454876E-01 -0.876655296E-01
   H -0.178560983E+02  0.195276742E+01 -0.195107127E+01
   H  0.174043876E+02 -0.180645327E+01  0.233892691E+01
     4
 # iter = 43500  time[fs]=43.50000
   C -0.405337061E+01 -0.318601472E-01  0.109855538E+00
   C  0.405791290E+01  0.604860215E-01 -0.904196851E-01
   H -0.182169918E+02  0.199257994E+01 -0.199013011E+01
   H  0.177496447E+02 -0.184237938E+01  0.238604715E+01
     4
 # iter = 44000  time[fs]=44.00000
   C -0.415190615E+01 -0.331655036E-01  0.113383294E+00
   C  0.415566400E+01  0.626316123E-01 -0.931836692E-01
   H -0.185781419E+02  0.203242436E+01 -0.202922201E+01
   H  0.180951705E+02 -0.187833802E+01  0.243320902E+01
     4
 # iter = 44500  time[fs]=44.50000
   C -0.425073268E+01 -0.344756951E-01  0.116919812E+00
   C  0.425370510E+01  0.647820903E-01 -0.959571061E-01
   H -0.189395391E+02  0.207229954E+01 -0.206834578E+01
   H  0.184409551E+02 -0.191432803E+01  0.248041106E+01
     4
 # iter = 45000  time[fs]=45.00000
   C -0.434983676E+01 -0.357905596E-01  0.120464756E+00
   C  0.435202280E+01  0.669372934E-01 -0.987396398E-01
   H -0.193011742E+02  0.211220438E+01 -0.210750029E+01
   H  0.187869892E+02 -0.195034834E+01  0.252765188E+01
     4
 # iter = 45500  time[fs]=45.50000
   C -0.444920587E+01 -0.371099416E-01  0.124017810E+00
   C  0.445060459E+01  0.690970664E-01 -0.101530933E+00
   H -0.196630388E+02  0.215213785E+01 -0.214668445E+01
   H  0.191332639E+02 -0.198639791E+01  0.257493017E+01
     4
 # iter = 46000  time[fs]=46.00000
   C -0.454882824E+01 -0.384336930E-01  0.127578673E+00
   C  0.454943874E+01  0.712612607E-01 -0.104330667E+00
   H -0.200251246E+02  0.219209898E+01 -0.218589727E+01
   H  0.194797708E+02 -0.202247575E+01  0.262224466E+01
     4
 # iter = 46500  time[fs]=46.50000
   C -0.464869287E+01 -0.397616717E-01  0.131147061E+00
   C  0.464851425E+01  0.734297342E-01 -0.107138537E+00
   H -0.203874239E+02  0.223208683E+01 -0.222513777E+01
   H  0.198265019E+02 -0.205858095E+01  0.266959419E+01
     4
 # iter = 47000  time[fs]=47.00000
   C -0.474878943E+01 -0.410937420E-01  0.134722705E+00
   C  0.474782081E+01  0.756023508E-01 -0.109954256E+00
   H -0.207499294E+02  0.227210052E+01 -0.226440504E+01
   H  0.201734497E+02 -0.209471260E+01  0.271697761E+01
     4
 # iter = 47500  time[fs]=47.50000
   C -0.484910820E+01 -0.424297740E-01  0.138305346E+00
   C  0.484734874E+01  0.777789805E-01 -0.112777550E+00
   H -0.211126342E+02  0.231213921E+01 -0.230369821E+01
   H  0.205206069E+02 -0.213086986E+01  0.276439385E+01
     4
 # iter = 48000  time[fs]=48.00000
   C -0.494964005E+01 -0.437696434E-01  0.141894742E+00
   C  0.494708892E+01  0.799594984E-01 -0.115608159E+00
   H -0.214755317E+02  0.235220210E+01 -0.234301644E+01
   H  0.208679668E+02 -0.216705194E+01  0.281184188E+01
     4
 # iter = 48500  time[fs]=48.50000
   C -0.505037637E+01 -0.451132313E-01  0.145490662E+00
   C  0.504703276E+01  0.821437853E-01 -0.118445836E+00
   H -0.218386155E+02  0.239228843E+01 -0.238235895E+01
   H  0.212155227E+02 -0.220325807E+01  0.285932072E+01
     4
 # iter = 49000  time[fs]=49.00000
   C -0.515130906E+01 -0.464604237E-01  0.149092884E+00
   C  0.514717217E+01  0.843317268E-01 -0.121290346E+00
   H -0.222018797E+02  0.243239748E+01 -0.242172499E+01
   H  0.215632686E+02 -0.223948750E+01  0.290682945E+01
     4
 # iter = 49500  time[fs]=49.50000
   C -0.525243047E+01 -0.478111115E-01  0.152701199E+00
   C  0.524749953E+01  0.865232132E-01 -0.124141463E+00
   H -0.225653186E+02  0.247252855E+01 -0.246111383E+01
   H  0.219111984E+02 -0.227573956E+01  0.295436717E+01
     4
 # iter = 50000  time[fs]=50.00000
   C -0.535373336E+01 -0.491651902E-01  0.156315407E+00
   C  0.534800762E+01  0.887181396E-01 -0.126998975E+00
   H -0.229289267E+02  0.251268097E+01 -0.250052480E+01
   H  0.222593066E+02 -0.231201356E+01  0.300193302E+01
     4
 # iter = 50500  time[fs]=50.50000
   C -0.545521092E+01 -0.505225596E-01  0.159935317E+00
   C  0.544868962E+01  0.909164053E-01 -0.129862678E+00
   H -0.232926989E+02  0.255285412E+01 -0.253995723E+01
   H  0.226075877E+02 -0.234830887E+01  0.304952620E+01
     4
 # iter = 51000  time[fs]=51.00000
   C -0.555685666E+01 -0.518831235E-01  0.163560748E+00
   C  0.554953910E+01  0.931179135E-01 -0.132732376E+00
   H -0.236566302E+02  0.259304740E+01 -0.257941050E+01
   H  0.229560366E+02 -0.238462488E+01  0.309714592E+01
     4
 # iter = 51500  time[fs]=51.50000
   C -0.565866447E+01 -0.532467900E-01  0.167191525E+00
   C  0.565054993E+01  0.953225717E-01 -0.135607884E+00
   H -0.240207159E+02  0.263326022E+01 -0.261888401E+01
   H  0.233046483E+02 -0.242096101E+01  0.314479143E+01
     4
 # iter = 52000  time[fs]=52.00000
   C -0.576062854E+01 -0.546134704E-01  0.170827485E+00
   C  0.575171634E+01  0.975302909E-01 -0.138489025E+00
   H -0.243849515E+02  0.267349203E+01 -0.265837718E+01
   H  0.236534182E+02 -0.245731668E+01  0.319246203E+01
     4
 # iter = 52500  time[fs]=52.50000
   C -0.586274336E+01 -0.559830801E-01  0.174468467E+00
   C  0.585303282E+01  0.997409856E-01 -0.141375629E+00
   H -0.247493325E+02  0.271374230E+01 -0.269788947E+01
   H  0.240023417E+02 -0.249369138E+01  0.324015702E+01
     4
 # iter = 53000  time[fs]=53.00000
   C -0.596500371E+01 -0.573555373E-01  0.178114321E+00
   C  0.595449416E+01  0.101954574E+00 -0.144267533E+00
   H -0.251138550E+02  0.275401053E+01 -0.273742036E+01
   H  0.243514145E+02 -0.253008458E+01  0.328787574E+01
     4
 # iter = 53500  time[fs]=53.50000
   C -0.606740461E+01 -0.587307640E-01  0.181764902E+00
   C  0.605609541E+01  0.104170976E+00 -0.147164582E+00
   H -0.254785148E+02  0.279429622E+01 -0.277696932E+01
   H  0.247006325E+02 -0.256649579E+01  0.333561757E+01
     4
 # iter = 54000  time[fs]=54.00000
   C -0.616994134E+01 -0.601086847E-01  0.185420072E+00
   C  0.615783186E+01  0.106390118E+00 -0.150066628E+00
   H -0.258433083E+02  0.283459891E+01 -0.281653589E+01
   H  0.250499917E+02 -0.260292453E+01  0.338338190E+01
     4
 # iter = 54500  time[fs]=54.50000
   C -0.627260940E+01 -0.614892273E-01  0.189079696E+00
   C  0.625969901E+01  0.108611925E+00 -0.152973527E+00
   H -0.262082316E+02  0.287491815E+01 -0.285611960E+01
   H  0.253994883E+02 -0.263937034E+01  0.343116814E+01
     4
 # iter = 55000  time[fs]=55.00000
   C -0.637540450E+01 -0.628723220E-01  0.192743649E+00
   C  0.636169261E+01  0.110836328E+00 -0.155885144E+00
   H -0.265732815E+02  0.291525350E+01 -0.289571999E+01
   H  0.257491185E+02 -0.267583280E+01  0.347897573E+01
     4
 # iter = 55500  time[fs]=55.50000
   C -0.647832256E+01 -0.642579019E-01  0.196411809E+00
   C  0.646380857E+01  0.113063259E+00 -0.158801346E+00
   H -0.269384544E+02  0.295560455E+01 -0.293533664E+01
   H  0.260988790E+02 -0.271231147E+01  0.352680413E+01
     4
 # iter = 56000  time[fs]=56.00000
   C -0.658135969E+01 -0.656459027E-01  0.200084057E+00
   C  0.656604301E+01  0.115292653E+00 -0.161722009E+00
   H -0.273037471E+02  0.299597091E+01 -0.297496913E+01
   H  0.264487663E+02 -0.274880595E+01  0.357465283E+01
     4
 # iter = 56500  time[fs]=56.50000
   C -0.668451216E+01 -0.670362622E-01  0.203760283E+00
   C  0.666839224E+01  0.117524447E+00 -0.164647010E+00
   H -0.276691566E+02  0.303635219E+01 -0.301461707E+01
   H  0.267987771E+02 -0.278531585E+01  0.362252133E+01
     4
 # iter = 57000  time[fs]=57.00000
   C -0.678777644E+01 -0.684289207E-01  0.207440377E+00
   C  0.677085271E+01  0.119758582E+00 -0.167576235E+00
   H -0.280346798E+02  0.307674801E+01 -0.305428007E+01
   H  0.271489084E+02 -0.282184079E+01  0.367040913E+01
     4
 # iter = 57500  time[fs]=57.50000
   C -0.689114912E+01 -0.698238206E-01  0.211124238E+00
   C  0.687342103E+01  0.121994999E+00 -0.170509571E+00
   H -0.284003139E+02  0.311715803E+01 -0.309395777E+01
   H  0.274991571E+02 -0.285838042E+01  0.371831578E+01
     4
 # iter = 58000  time[fs]=58.00000
   C -0.699462696E+01 -0.712209064E-01  0.214811764E+00
   C  0.697609399E+01  0.124233641E+00 -0.173446912E+00
   H -0.287660561E+02  0.315758190E+01 -0.313364980E+01
   H  0.278495203E+02 -0.289493437E+01  0.376624083E+01
     4
 # iter = 58500  time[fs]=58.50000
   C -0.709820686E+01 -0.726201245E-01  0.218502860E+00
   C  0.707886848E+01  0.126474456E+00 -0.176388154E+00
   H -0.291319038E+02  0.319801928E+01 -0.317335584E+01
   H  0.281999952E+02 -0.293150231E+01  0.381418385E+01
     4
 # iter = 59000  time[fs]=59.00000
   C -0.720188585E+01 -0.740214232E-01  0.222197434E+00
   C  0.718174154E+01  0.128717389E+00 -0.179333198E+00
   H -0.294978543E+02  0.323846987E+01 -0.321307554E+01
   H  0.285505792E+02 -0.296808392E+01  0.386214442E+01
     4
 # iter = 59500  time[fs]=59.50000
   C -0.730566107E+01 -0.754247528E-01  0.225895398E+00
   C  0.728471033E+01  0.130962392E+00 -0.182281947E+00
   H -0.298639052E+02  0.327893334E+01 -0.325280858E+01
   H  0.289012696E+02 -0.300467888E+01  0.391012214E+01
     4
 # iter = 60000  time[fs]=60.00000
   C -0.740952981E+01 -0.768300651E-01  0.229596666E+00
   C  0.738777215E+01  0.133209416E+00 -0.185234311E+00
   H -0.302300541E+02  0.331940942E+01 -0.329255466E+01
   H  0.292520639E+02 -0.304128689E+01  0.395811662E+01
     4
 # iter = 60500  time[fs]=60.50000
   C -0.751348944E+01 -0.782373135E-01  0.233301155E+00
   C  0.749092437E+01  0.135458413E+00 -0.188190200E+00
   H -0.305962987E+02  0.335989779E+01 -0.333231349E+01
   H  0.296029597E+02 -0.307790766E+01  0.400612749E+01
     4
 # iter = 61000  time[fs]=61.00000
   C -0.761753745E+01 -0.796464533E-01  0.237008787E+00
   C  0.759416450E+01  0.137709338E+00 -0.191149529E+00
   H -0.309626368E+02  0.340039820E+01 -0.337208477E+01
   H  0.299539547E+02 -0.311454090E+01  0.405415437E+01
     4
 # iter = 61500  time[fs]=61.50000
   C -0.772167143E+01 -0.810574410E-01  0.240719485E+00
   C  0.769749014E+01  0.139962148E+00 -0.194112215E+00
   H -0.313290662E+02  0.344091037E+01 -0.341186823E+01
   H  0.303050466E+02 -0.315118633E+01  0.410219692E+01
     4
 # iter = 62000  time[fs]=62.00000
   C -0.782588907E+01 -0.824702347E-01  0.244433175E+00
   C  0.780089898E+01  0.142216799E+00 -0.197078178E+00
   H -0.316955848E+02  0.348143405E+01 -0.345166359E+01
   H  0.306562332E+02 -0.318784369E+01  0.415025480E+01
     4
 # iter = 62500  time[fs]=62.50000
   C -0.793018814E+01 -0.838847938E-01  0.248149787E+00
   C  0.790438880E+01  0.144473250E+00 -0.200047342E+00
   H -0.320621907E+02  0.352196897E+01 -0.349147061E+01
   H  0.310075124E+02 -0.322451273E+01  0.419832769E+01
     4
 # iter = 63000  time[fs]=63.00000
   C -0.803456651E+01 -0.853010790E-01  0.251869251E+00
   C  0.800795747E+01  0.146731463E+00 -0.203019632E+00
   H -0.324288819E+02  0.356251490E+01 -0.353128902E+01
   H  0.313588822E+02 -0.326119320E+01  0.424641525E+01
     4
 # iter = 63500  time[fs]=63.50000
   C -0.813902211E+01 -0.867190524E-01  0.255591501E+00
   C  0.811160295E+01  0.148991398E+00 -0.205994977E+00
   H -0.327956565E+02  0.360307161E+01 -0.357111859E+01
   H  0.317103407E+02 -0.329788485E+01  0.429451719E+01
     4
 # iter = 64000  time[fs]=64.00000
   C -0.824355297E+01 -0.881386772E-01  0.259316473E+00
   C  0.821532327E+01  0.151253018E+00 -0.208973306E+00
   H -0.331625127E+02  0.364363887E+01 -0.361095907E+01
   H  0.320618858E+02 -0.333458745E+01  0.434263321E+01
     4
 # iter = 64500  time[fs]=64.50000
   C -0.834815717E+01 -0.895599178E-01  0.263044106E+00
   C  0.831911651E+01  0.153516287E+00 -0.211954554E+00
   H -0.335294488E+02  0.368421645E+01 -0.365081025E+01
   H  0.324135157E+02 -0.337130078E+01  0.439076301E+01
     4
 # iter = 65000  time[fs]=65.00000
   C -0.845283289E+01 -0.909827397E-01  0.266774339E+00
   C  0.842298086E+01  0.155781170E+00 -0.214938656E+00
   H -0.338964631E+02  0.372480415E+01 -0.369067189E+01
   H  0.327652287E+02 -0.340802462E+01  0.443890631E+01
     4
 # iter = 65500  time[fs]=65.50000
   C -0.855757835E+01 -0.924071095E-01  0.270507115E+00
   C  0.852691456E+01  0.158047634E+00 -0.217925548E+00
   H -0.342635538E+02  0.376540175E+01 -0.373054379E+01
   H  0.331170231E+02 -0.344475875E+01  0.448706285E+01
     4
 # iter = 66000  time[fs]=66.00000
   C -0.866239185E+01 -0.938329949E-01  0.274242377E+00
   C  0.863091589E+01  0.160315645E+00 -0.220915169E+00
   H -0.346307195E+02  0.380600906E+01 -0.377042574E+01
   H  0.334688971E+02 -0.348150297E+01  0.453523236E+01
     4
 # iter = 66500  time[fs]=66.50000
   C -0.876727174E+01 -0.952603644E-01  0.277980071E+00
   C  0.873498323E+01  0.162585172E+00 -0.223907463E+00
   H -0.349979585E+02  0.384662588E+01 -0.381031754E+01
   H  0.338208490E+02 -0.351825708E+01  0.458341458E+01
     4
 # iter = 67000  time[fs]=67.00000
   C -0.887221644E+01 -0.966891876E-01  0.281720146E+00
   C  0.883911500E+01  0.164856183E+00 -0.226902370E+00
   H -0.353652695E+02  0.388725202E+01 -0.385021898E+01
   H  0.341728775E+02 -0.355502088E+01  0.463160926E+01
     4
 # iter = 67500  time[fs]=67.50000
   C -0.897722440E+01 -0.981194350E-01  0.285462549E+00
   C  0.894330966E+01  0.167128649E+00 -0.229899837E+00
   H -0.357326508E+02  0.392788730E+01 -0.389012989E+01
   H  0.345249808E+02 -0.359179419E+01  0.467981617E+01
     4
 # iter = 68000  time[fs]=68.00000
   C -0.908229417E+01 -0.995510779E-01  0.289207232E+00
   C  0.904756576E+01  0.169402541E+00 -0.232899809E+00
   H -0.361001012E+02  0.396853154E+01 -0.393005008E+01
   H  0.348771575E+02 -0.362857683E+01  0.472803507E+01
     4
 # iter = 68500  time[fs]=68.50000
   C -0.918742429E+01 -0.100984089E+00  0.292954148E+00
   C  0.915188185E+01  0.171677831E+00 -0.235902236E+00
   H -0.364676191E+02  0.400918458E+01 -0.396997936E+01
   H  0.352294062E+02 -0.366536861E+01  0.477626572E+01
     4
 # iter = 69000  time[fs]=69.00000
   C -0.929261340E+01 -0.102418440E+00  0.296703250E+00
   C  0.925625658E+01  0.173954490E+00 -0.238907066E+00
   H -0.368352035E+02  0.404984623E+01 -0.400991757E+01
   H  0.355817255E+02 -0.370216937E+01  0.482450792E+01
     4
 # iter = 69500  time[fs]=69.50000
   C -0.939786015E+01 -0.103854106E+00  0.300454492E+00
   C  0.936068860E+01  0.176232493E+00 -0.241914251E+00
   H -0.372028528E+02  0.409051634E+01 -0.404986454E+01
   H  0.359341139E+02 -0.373897893E+01  0.487276144E+01
     4
 # iter = 70000  time[fs]=70.00000
   C -0.950316327E+01 -0.105291061E+00  0.304207833E+00
   C  0.946517664E+01  0.178511814E+00 -0.244923745E+00
   H -0.375705659E+02  0.413119475E+01 -0.408982009E+01
   H  0.362865703E+02 -0.377579713E+01  0.492102607E+01
     4
 # iter = 70500  time[fs]=70.50000
   C -0.960852149E+01 -0.106729280E+00  0.307963229E+00
   C  0.956971945E+01  0.180792427E+00 -0.247935500E+00
   H -0.379383415E+02  0.417188131E+01 -0.412978408E+01
   H  0.366390932E+02 -0.381262382E+01  0.496930161E+01
     4
 # iter = 71000  time[fs]=71.00000
   C -0.971393361E+01 -0.108168739E+00  0.311720639E+00
   C  0.967431583E+01  0.183074308E+00 -0.250949473E+00
   H -0.383061786E+02  0.421257586E+01 -0.416975635E+01
   H  0.369916815E+02 -0.384945883E+01  0.501758787E+01
     4
 # iter = 71500  time[fs]=71.50000
   C -0.981939847E+01 -0.109609415E+00  0.315480025E+00
   C  0.977896461E+01  0.185357433E+00 -0.253965621E+00
   H -0.386740758E+02  0.425327827E+01 -0.420973675E+01
   H  0.373443339E+02 -0.388630203E+01  0.506588465E+01
     4
 # iter = 72000  time[fs]=72.00000
   C -0.992491492E+01 -0.111051285E+00  0.319241347E+00
   C  0.988366468E+01  0.187641779E+00 -0.256983901E+00
   H -0.390420322E+02  0.429398838E+01 -0.424972512E+01
   H  0.376970493E+02 -0.392315326E+01  0.511419177E+01
     4
 # iter = 72500  time[fs]=72.50000
   C -0.100304819E+02 -0.112494328E+00  0.323004568E+00
   C  0.998841492E+01  0.189927324E+00 -0.260004272E+00
   H -0.394100466E+02  0.433470607E+01 -0.428972134E+01
   H  0.380498265E+02 -0.396001238E+01  0.516250903E+01
     4
 # iter = 73000  time[fs]=73.00000
   C -0.101360983E+02 -0.113938520E+00  0.326769651E+00
   C  0.100932143E+02  0.192214046E+00 -0.263026696E+00
   H -0.397781179E+02  0.437543119E+01 -0.432972525E+01
   H  0.384026644E+02 -0.399687926E+01  0.521083627E+01
     4
 # iter = 73500  time[fs]=73.50000
   C -0.102417631E+02 -0.115383843E+00  0.330536561E+00
   C  0.101980618E+02  0.194501924E+00 -0.266051133E+00
   H -0.401462452E+02  0.441616361E+01 -0.436973672E+01
   H  0.387555619E+02 -0.403375375E+01  0.525917330E+01
     4
 # iter = 74000  time[fs]=74.00000
   C -0.103474753E+02 -0.116830274E+00  0.334305264E+00
   C  0.103029564E+02  0.196790936E+00 -0.269077546E+00
   H -0.405144274E+02  0.445690322E+01 -0.440975563E+01
   H  0.391085179E+02 -0.407063573E+01  0.530751997E+01
     4
 # iter = 74500  time[fs]=74.50000
   C -0.104532339E+02 -0.118277795E+00  0.338075726E+00
   C  0.104078971E+02  0.199081063E+00 -0.272105899E+00
   H -0.408826636E+02  0.449764988E+01 -0.444978184E+01
   H  0.394615314E+02 -0.410752507E+01  0.535587611E+01
     4
 # iter = 75000  time[fs]=75.00000
   C -0.105590381E+02 -0.119726386E+00  0.341847915E+00
   C  0.105128830E+02  0.201372285E+00 -0.275136156E+00
   H -0.412509528E+02  0.453840347E+01 -0.448981523E+01
   H  0.398146014E+02 -0.414442164E+01  0.540424155E+01
     4
 # iter = 75500  time[fs]=75.50000
   C -0.106648868E+02 -0.121176028E+00  0.345621799E+00
   C  0.106179133E+02  0.203664583E+00 -0.278168282E+00
   H -0.416192941E+02  0.457916388E+01 -0.452985567E+01
   H  0.401677270E+02 -0.418132532E+01  0.545261615E+01
     4
 # iter = 76000  time[fs]=76.00000
   C -0.107707792E+02 -0.122626703E+00  0.349397347E+00
   C  0.107229869E+02  0.205957938E+00 -0.281202245E+00
   H -0.419876866E+02  0.461993100E+01 -0.456990305E+01
   H  0.405209071E+02 -0.421823600E+01  0.550099974E+01
     4
 # iter = 76500  time[fs]=76.50000
   C -0.108767145E+02 -0.124078393E+00  0.353174530E+00
   C  0.108281032E+02  0.208252332E+00 -0.284238011E+00
   H -0.423561293E+02  0.466070470E+01 -0.460995725E+01
   H  0.408741409E+02 -0.425515355E+01  0.554939219E+01
     4
 # iter = 77000  time[fs]=77.00000
   C -0.109826918E+02 -0.125531081E+00  0.356953318E+00
   C  0.109332611E+02  0.210547748E+00 -0.287275549E+00
   H -0.427246216E+02  0.470148488E+01 -0.465001817E+01
   H  0.412274274E+02 -0.429207787E+01  0.559779334E+01
     4
 # iter = 77500  time[fs]=77.50000
   C -0.110887103E+02 -0.126984749E+00  0.360733682E+00
   C  0.110384600E+02  0.212844168E+00 -0.290314827E+00
   H -0.430931624E+02  0.474227144E+01 -0.469008568E+01
   H  0.415807658E+02 -0.432900885E+01  0.564620306E+01
     4
 # iter = 78000  time[fs]=78.00000
   C -0.111947692E+02 -0.128439382E+00  0.364515596E+00
   C  0.111436990E+02  0.215141575E+00 -0.293355816E+00
   H -0.434617511E+02  0.478306426E+01 -0.473015968E+01
   H  0.419341552E+02 -0.436594637E+01  0.569462120E+01
     4
 # iter = 78500  time[fs]=78.50000
   C -0.113008677E+02 -0.129894963E+00  0.368299032E+00
   C  0.112489774E+02  0.217439953E+00 -0.296398486E+00
   H -0.438303868E+02  0.482386326E+01 -0.477024007E+01
   H  0.422875947E+02 -0.440289034E+01  0.574304764E+01
     4
 # iter = 79000  time[fs]=79.00000
   C -0.114070051E+02 -0.131351476E+00  0.372083964E+00
   C  0.113542945E+02  0.219739286E+00 -0.299442808E+00
   H -0.441990688E+02  0.486466833E+01 -0.481032674E+01
   H  0.426410836E+02 -0.443984065E+01  0.579148223E+01
     4
 # iter = 79500  time[fs]=79.50000
   C -0.115131807E+02 -0.132808906E+00  0.375870367E+00
   C  0.114596494E+02  0.222039558E+00 -0.302488755E+00
   H -0.445677962E+02  0.490547937E+01 -0.485041960E+01
   H  0.429946210E+02 -0.447679720E+01  0.583992486E+01
     4
 # iter = 80000  time[fs]=80.00000
   C -0.116193938E+02 -0.134267238E+00  0.379658215E+00
   C  0.115650416E+02  0.224340754E+00 -0.305536299E+00
   H -0.449365684E+02  0.494629629E+01 -0.489051854E+01
   H  0.433482061E+02 -0.451375989E+01  0.588837540E+01
