     4
 # iter = 25000  time[fs]=25.00000
   C -0.994273839E+00 -0.536224237E-01 -0.139349109E-01
   C  0.102253161E+01  0.290773201E-01 -0.200155088E-02
   H -0.530266349E+01  0.620545133E+00 -0.132878837E+00
   H  0.538434784E+01 -0.433151181E+00 -0.434549987E+00
     4
 # iter = 25500  time[fs]=25.50000
   C -0.104077670E+01 -0.576872651E-01 -0.130116495E-01
   C  0.106691654E+01  0.309308184E-01  0.934901671E-03
   H -0.563502949E+01  0.659778144E+00 -0.139382389E+00
   H  0.570443367E+01 -0.463312973E+00 -0.458218439E+00
     4
 # iter = 26000  time[fs]=26.00000
   C -0.108877157E+01 -0.618345620E-01 -0.120909055E-01
   C  0.111279554E+01  0.328578838E-01  0.389592662E-02
   H -0.597000960E+01  0.699356663E+00 -0.145938023E+00
   H  0.602710897E+01 -0.493713610E+00 -0.482099470E+00
     4
 # iter = 26500  time[fs]=26.50000
   C -0.113813666E+01 -0.660581856E-01 -0.111735866E-01
   C  0.116004579E+01  0.348535659E-01  0.688002619E-02
   H -0.630731434E+01  0.739242055E+00 -0.152539937E+00
   H  0.635209638E+01 -0.524328602E+00 -0.506170016E+00
     4
 # iter = 27000  time[fs]=27.00000
   C -0.118876118E+01 -0.703525616E-01 -0.102603376E-01
   C  0.120855578E+01  0.369132578E-01  0.988580684E-02
   H -0.664669861E+01  0.779401735E+00 -0.159183231E+00
   H  0.667915965E+01 -0.555136970E+00 -0.530410513E+00
     4
 # iter = 27500  time[fs]=27.50000
   C -0.124054462E+01 -0.747126124E-01 -0.935160143E-02
   C  0.125822446E+01  0.390326841E-01  0.129119695E-01
   H -0.698795321E+01  0.819807981E+00 -0.165863737E+00
   H  0.700809607E+01 -0.586120619E+00 -0.554804231E+00
     4
 # iter = 28000  time[fs]=28.00000
   C -0.129339587E+01 -0.791337072E-01 -0.844766551E-02
   C  0.130896032E+01  0.412078857E-01  0.159573022E-01
   H -0.733089831E+01  0.860437022E+00 -0.172577874E+00
   H  0.733873052E+01 -0.617263839E+00 -0.579336755E+00
     4
 # iter = 28500  time[fs]=28.50000
   C -0.134723246E+01 -0.836116185E-01 -0.754869889E-02
   C  0.136068061E+01  0.434352027E-01  0.190206748E-01
   H -0.767537827E+01  0.901268327E+00 -0.179322549E+00
   H  0.767091077E+01 -0.648552910E+00 -0.603995588E+00
     4
 # iter = 29000  time[fs]=29.00000
   C -0.140197968E+01 -0.881424834E-01 -0.665478078E-02
   C  0.141331041E+01  0.457112556E-01  0.221010332E-01
   H -0.802125755E+01  0.942284047E+00 -0.186095070E+00
   H  0.800450373E+01 -0.679975783E+00 -0.628769822E+00
     4
 # iter = 29500  time[fs]=29.50000
   C -0.145756985E+01 -0.927227696E-01 -0.576592278E-02
   C  0.146678190E+01  0.480329264E-01  0.251973953E-01
   H -0.836841748E+01  0.983468572E+00 -0.192893083E+00
   H  0.833939246E+01 -0.711521821E+00 -0.653649888E+00
     4
 # iter = 30000  time[fs]=30.00000
   C -0.151394160E+01 -0.973492432E-01 -0.488208613E-02
   C  0.152103362E+01  0.503973393E-01  0.283088462E-01
   H -0.871675357E+01  0.102480817E+01 -0.199714515E+00
   H  0.867547364E+01 -0.743181593E+00 -0.678627343E+00
     4
 # iter = 30500  time[fs]=30.50000
   C -0.157103927E+01 -0.102018941E+00 -0.400319506E-02
   C  0.157600983E+01  0.528018423E-01  0.314345339E-01
   H -0.906617340E+01  0.106629072E+01 -0.206557534E+00
   H  0.901265561E+01 -0.774946696E+00 -0.703694707E+00
     4
 # iter = 31000  time[fs]=31.00000
   C -0.162881225E+01 -0.106729145E+00 -0.312914712E-02
   C  0.163165990E+01  0.552439890E-01  0.345736651E-01
   H -0.941659485E+01  0.110790542E+01 -0.213420510E+00
   H  0.935085668E+01 -0.806809615E+00 -0.728845317E+00
     4
 # iter = 31500  time[fs]=31.50000
   C -0.168721452E+01 -0.111477358E+00 -0.225982109E-02
   C  0.168793778E+01  0.577215220E-01  0.377255012E-01
   H -0.976794463E+01  0.114964268E+01 -0.220301992E+00
   H  0.969000379E+01 -0.838763602E+00 -0.754073218E+00
     4
 # iter = 32000  time[fs]=32.00000
   C -0.174620413E+01 -0.116261287E+00 -0.139508313E-02
   C  0.174480152E+01  0.602323571E-01  0.408893545E-01
   H -0.101201571E+02  0.119149388E+01 -0.227200677E+00
   H  0.100300313E+02 -0.870802576E+00 -0.779373066E+00
     4
 # iter = 32500  time[fs]=32.50000
   C -0.180574282E+01 -0.121078818E+00 -0.534791448E-03
   C  0.180221288E+01  0.627745688E-01  0.440645845E-01
   H -0.104731732E+02  0.123345128E+01 -0.234115395E+00
   H  0.103708801E+02 -0.902921041E+00 -0.804740045E+00
     4
 # iter = 33000  time[fs]=33.00000
   C -0.186579561E+01 -0.125928004E+00  0.321200165E-03
   C  0.186013688E+01  0.653463764E-01  0.472505942E-01
   H -0.108269396E+02  0.127550789E+01 -0.241045089E+00
   H  0.107124967E+02 -0.935114011E+00 -0.830169804E+00
     4
 # iter = 33500  time[fs]=33.50000
   C -0.192633050E+01 -0.130807048E+00  0.117303961E-02
   C  0.191854155E+01  0.679461318E-01  0.504468273E-01
   H -0.111814082E+02  0.131765740E+01 -0.247988803E+00
   H  0.110548326E+02 -0.967376949E+00 -0.855658397E+00
     4
 # iter = 34000  time[fs]=34.00000
   C -0.198731812E+01 -0.135714290E+00  0.202087447E-02
   C  0.197739755E+01  0.705723085E-01  0.536527647E-01
   H -0.115365352E+02  0.135989405E+01 -0.254945668E+00
   H  0.113978437E+02 -0.999705718E+00 -0.881202236E+00
     4
 # iter = 34500  time[fs]=34.50000
   C -0.204873153E+01 -0.140648194E+00  0.286485051E-02
   C  0.203667797E+01  0.732234906E-01  0.568679220E-01
   H -0.118922807E+02  0.140221263E+01 -0.261914893E+00
   H  0.117414898E+02 -0.103209653E+01 -0.906798049E+00
     4
 # iter = 35000  time[fs]=35.00000
   C -0.211054593E+01 -0.145607336E+00  0.370511057E-02
   C  0.209635804E+01  0.758983637E-01  0.600918467E-01
   H -0.122486084E+02  0.144460836E+01 -0.268895755E+00
   H  0.120857340E+02 -0.106454593E+01 -0.932442842E+00
     4
 # iter = 35500  time[fs]=35.50000
   C -0.217273850E+01 -0.150590397E+00  0.454179380E-02
   C  0.215641497E+01  0.785957064E-01  0.633241161E-01
   H -0.126054848E+02  0.148707687E+01 -0.275887592E+00
   H  0.124305427E+02 -0.109705071E+01 -0.958133872E+00
     4
 # iter = 36000  time[fs]=36.00000
   C -0.223528815E+01 -0.155596151E+00  0.537503512E-02
   C  0.221682773E+01  0.813143822E-01  0.665643343E-01
   H -0.129628795E+02  0.152961413E+01 -0.282889798E+00
   H  0.127758849E+02 -0.112960794E+01 -0.983868618E+00
     4
 # iter = 36500  time[fs]=36.50000
   C -0.229817543E+01 -0.160623457E+00  0.620496485E-02
   C  0.227757687E+01  0.840533329E-01  0.698121310E-01
   H -0.133207643E+02  0.157221647E+01 -0.289901813E+00
   H  0.131217320E+02 -0.116221491E+01 -0.100964476E+01
     4
 # iter = 37000  time[fs]=37.00000
   C -0.236138231E+01 -0.165671254E+00  0.703170853E-02
   C  0.233864441E+01  0.868115714E-01  0.730671593E-01
   H -0.136791133E+02  0.161488047E+01 -0.296923122E+00
   H  0.134680577E+02 -0.119486911E+01 -0.103546015E+01
     4
 # iter = 37500  time[fs]=37.50000
   C -0.242489210E+01 -0.170738552E+00  0.785538678E-02
   C  0.240001370E+01  0.895881766E-01  0.763290934E-01
   H -0.140379025E+02  0.165760299E+01 -0.303953249E+00
   H  0.138148376E+02 -0.122756821E+01 -0.106131281E+01
     4
 # iter = 38000  time[fs]=38.00000
   C -0.248868929E+01 -0.175824427E+00  0.867611531E-02
   C  0.246166926E+01  0.923822876E-01  0.795976281E-01
   H -0.143971099E+02  0.170038111E+01 -0.310991753E+00
   H  0.141620492E+02 -0.126031006E+01 -0.108720090E+01
     4
 # iter = 38500  time[fs]=38.50000
   C -0.255275949E+01 -0.180928017E+00  0.949400498E-02
   C  0.252359673E+01  0.951930991E-01  0.828724762E-01
   H -0.147567148E+02  0.174321215E+01 -0.318038226E+00
   H  0.145096716E+02 -0.129309265E+01 -0.111312272E+01
     4
 # iter = 39000  time[fs]=39.00000
   C -0.261708928E+01 -0.186048514E+00  0.103091618E-01
   C  0.258578273E+01  0.980198571E-01  0.861533680E-01
   H -0.151166983E+02  0.178609358E+01 -0.325092287E+00
   H  0.148576851E+02 -0.132591411E+01 -0.113907668E+01
     4
 # iter = 39500  time[fs]=39.50000
   C -0.268166617E+01 -0.191185162E+00  0.111216873E-01
   C  0.264821480E+01  0.100861854E+00  0.894400493E-01
   H -0.154770425E+02  0.182902306E+01 -0.332153583E+00
   H  0.152060718E+02 -0.135877269E+01 -0.116506130E+01
     4
 # iter = 40000  time[fs]=40.00000
   C -0.274647851E+01 -0.196337251E+00  0.119316781E-01
   C  0.271088132E+01  0.103718428E+00  0.927322811E-01
   H -0.158377309E+02  0.187199843E+01 -0.339221785E+00
   H  0.155548147E+02 -0.139166677E+01 -0.119107521E+01
     4
 # iter = 40500  time[fs]=40.50000
   C -0.281151539E+01 -0.201504116E+00  0.127392270E-01
   C  0.277377141E+01  0.106588954E+00  0.960298379E-01
   H -0.161987480E+02  0.191501764E+01 -0.346296584E+00
   H  0.159038980E+02 -0.142459481E+01 -0.121711711E+01
     4
 # iter = 41000  time[fs]=41.00000
   C -0.287676664E+01 -0.206685131E+00  0.135444221E-01
   C  0.283687493E+01  0.109472846E+00  0.993325068E-01
   H -0.165600795E+02  0.195807879E+01 -0.353377693E+00
   H  0.162533070E+02 -0.145755538E+01 -0.124318581E+01
     4
 # iter = 41500  time[fs]=41.50000
   C -0.294222270E+01 -0.211879709E+00  0.143473479E-01
   C  0.290018235E+01  0.112369554E+00  0.102640087E+00
   H -0.169217118E+02  0.200118011E+01 -0.360464842E+00
   H  0.166030276E+02 -0.149054715E+01 -0.126928017E+01
     4
 # iter = 42000  time[fs]=42.00000
   C -0.300787463E+01 -0.217087295E+00  0.151480847E-01
   C  0.296368475E+01  0.115278556E+00  0.105952388E+00
   H -0.172836322E+02  0.204431991E+01 -0.367557779E+00
   H  0.169530471E+02 -0.152356884E+01 -0.129539913E+01
     4
 # iter = 42500  time[fs]=42.50000
   C -0.307371403E+01 -0.222307367E+00  0.159467094E-01
   C  0.302737376E+01  0.118199364E+00  0.109269232E+00
   H -0.176458289E+02  0.208749662E+01 -0.374656266E+00
   H  0.173033531E+02 -0.155661928E+01 -0.132154169E+01
     4
 # iter = 43000  time[fs]=43.00000
   C -0.313973300E+01 -0.227539433E+00  0.167432952E-01
   C  0.309124151E+01  0.121131513E+00  0.112590447E+00
   H -0.180082906E+02  0.213070878E+01 -0.381760080E+00
   H  0.176539342E+02 -0.158969735E+01 -0.134770693E+01
     4
 # iter = 43500  time[fs]=43.50000
   C -0.320592412E+01 -0.232783027E+00  0.175379122E-01
   C  0.315528060E+01  0.124074568E+00  0.115915873E+00
   H -0.183710069E+02  0.217395499E+01 -0.388869011E+00
   H  0.180047795E+02 -0.162280198E+01 -0.137389395E+01
     4
 # iter = 44000  time[fs]=44.00000
   C -0.327228039E+01 -0.238037711E+00  0.183306273E-01
   C  0.321948405E+01  0.127028115E+00  0.119245357E+00
   H -0.187339679E+02  0.221723395E+01 -0.395982860E+00
   H  0.183558789E+02 -0.165593219E+01 -0.140010192E+01
     4
 # iter = 44500  time[fs]=44.50000
   C -0.333879521E+01 -0.243303067E+00  0.191215041E-01
   C  0.328384530E+01  0.129991762E+00  0.122578754E+00
   H -0.190971641E+02  0.226054441E+01 -0.403101442E+00
   H  0.187072227E+02 -0.168908703E+01 -0.142633006E+01
     4
 # iter = 45000  time[fs]=45.00000
   C -0.340546238E+01 -0.248578703E+00  0.199106037E-01
   C  0.334835814E+01  0.132965139E+00  0.125915926E+00
   H -0.194605868E+02  0.230388520E+01 -0.410224580E+00
   H  0.190588020E+02 -0.172226562E+01 -0.145257763E+01
     4
 # iter = 45500  time[fs]=45.50000
   C -0.347227601E+01 -0.253864246E+00  0.206979844E-01
   C  0.341301673E+01  0.135947895E+00  0.129256744E+00
   H -0.198242276E+02  0.234725523E+01 -0.417352107E+00
   H  0.194106080E+02 -0.175546710E+01 -0.147884392E+01
     4
 # iter = 46000  time[fs]=46.00000
   C -0.353923054E+01 -0.259159341E+00  0.214837019E-01
   C  0.347781552E+01  0.138939695E+00  0.132601081E+00
   H -0.201880787E+02  0.239065345E+01 -0.424483865E+00
   H  0.197626326E+02 -0.178869068E+01 -0.150512826E+01
     4
 # iter = 46500  time[fs]=46.50000
   C -0.360632072E+01 -0.264463653E+00  0.222678093E-01
   C  0.354274928E+01  0.141940225E+00  0.135948822E+00
   H -0.205521325E+02  0.243407886E+01 -0.431619705E+00
   H  0.201148681E+02 -0.182193561E+01 -0.153143003E+01
     4
 # iter = 47000  time[fs]=47.00000
   C -0.367354158E+01 -0.269776863E+00  0.230503576E-01
   C  0.360781305E+01  0.144949183E+00  0.139299852E+00
   H -0.209163820E+02  0.247753053E+01 -0.438759484E+00
   H  0.204673073E+02 -0.185520116E+01 -0.155774863E+01
     4
 # iter = 47500  time[fs]=47.50000
   C -0.374088839E+01 -0.275098667E+00  0.238313957E-01
   C  0.367300214E+01  0.147966284E+00  0.142654064E+00
   H -0.212808204E+02  0.252100757E+01 -0.445903068E+00
   H  0.208199431E+02 -0.188848665E+01 -0.158408348E+01
     4
 # iter = 48000  time[fs]=48.00000
   C -0.380835668E+01 -0.280428778E+00  0.246109700E-01
   C  0.373831207E+01  0.150991254E+00  0.146011356E+00
   H -0.216454414E+02  0.256450913E+01 -0.453050330E+00
   H  0.211727690E+02 -0.192179142E+01 -0.161043406E+01
     4
 # iter = 48500  time[fs]=48.50000
   C -0.387594220E+01 -0.285766920E+00  0.253891254E-01
   C  0.380373863E+01  0.154023835E+00  0.149371631E+00
   H -0.220102388E+02  0.260803440E+01 -0.460201148E+00
   H  0.215257786E+02 -0.195511486E+01 -0.163679984E+01
     4
 # iter = 49000  time[fs]=49.00000
   C -0.394364091E+01 -0.291112832E+00  0.261659046E-01
   C  0.386927779E+01  0.157063781E+00  0.152734795E+00
   H -0.223752070E+02  0.265158262E+01 -0.467355405E+00
   H  0.218789662E+02 -0.198845637E+01 -0.166318033E+01
     4
 # iter = 49500  time[fs]=49.50000
   C -0.401144897E+01 -0.296466265E+00  0.269413486E-01
   C  0.393492572E+01  0.160110855E+00  0.156100758E+00
   H -0.227403404E+02  0.269515306E+01 -0.474512993E+00
   H  0.222323258E+02 -0.202181540E+01 -0.168957508E+01
     4
 # iter = 50000  time[fs]=50.00000
   C -0.407936274E+01 -0.301826980E+00  0.277154969E-01
   C  0.400067879E+01  0.163164833E+00  0.159469438E+00
   H -0.231056338E+02  0.273874501E+01 -0.481673805E+00
   H  0.225858522E+02 -0.205519140E+01 -0.171598363E+01
     4
 # iter = 50500  time[fs]=50.50000
   C -0.414737873E+01 -0.307194751E+00  0.284883870E-01
   C  0.406653353E+01  0.166225500E+00  0.162840750E+00
   H -0.234710821E+02  0.278235782E+01 -0.488837743E+00
   H  0.229395401E+02 -0.208858387E+01 -0.174240557E+01
     4
 # iter = 51000  time[fs]=51.00000
   C -0.421549362E+01 -0.312569361E+00  0.292600552E-01
   C  0.413248664E+01  0.169292652E+00  0.166214619E+00
   H -0.238366807E+02  0.282599086E+01 -0.496004709E+00
   H  0.232933847E+02 -0.212199231E+01 -0.176884048E+01
     4
 # iter = 51500  time[fs]=51.50000
   C -0.428370426E+01 -0.317950602E+00  0.300305363E-01
   C  0.419853498E+01  0.172366093E+00  0.169590968E+00
   H -0.242024249E+02  0.286964351E+01 -0.503174614E+00
   H  0.236473812E+02 -0.215541625E+01 -0.179528798E+01
     4
 # iter = 52000  time[fs]=52.00000
   C -0.435200763E+01 -0.323338276E+00  0.307998635E-01
   C  0.426467555E+01  0.175445634E+00  0.172969728E+00
   H -0.245683104E+02  0.291331519E+01 -0.510347369E+00
   H  0.240015251E+02 -0.218885524E+01 -0.182174770E+01
     4
 # iter = 52500  time[fs]=52.50000
   C -0.442040085E+01 -0.328732194E+00  0.315680690E-01
   C  0.433090547E+01  0.178531098E+00  0.176350828E+00
   H -0.249343331E+02  0.295700537E+01 -0.517522892E+00
   H  0.243558121E+02 -0.222230887E+01 -0.184821929E+01
     4
 # iter = 53000  time[fs]=53.00000
   C -0.448888116E+01 -0.334132173E+00  0.323351836E-01
   C  0.439722200E+01  0.181622311E+00  0.179734205E+00
   H -0.253004890E+02  0.300071350E+01 -0.524701102E+00
   H  0.247102380E+02 -0.225577670E+01 -0.187470240E+01
     4
 # iter = 53500  time[fs]=53.50000
   C -0.455744595E+01 -0.339538039E+00  0.331012369E-01
   C  0.446362253E+01  0.184719110E+00  0.183119793E+00
   H -0.256667743E+02  0.304443907E+01 -0.531881923E+00
   H  0.250647990E+02 -0.228925835E+01 -0.190119672E+01
     4
 # iter = 54000  time[fs]=54.00000
   C -0.462609269E+01 -0.344949627E+00  0.338662574E-01
   C  0.453010455E+01  0.187821336E+00  0.186507534E+00
   H -0.260331852E+02  0.308818160E+01 -0.539065283E+00
   H  0.254194912E+02 -0.232275345E+01 -0.192770194E+01
     4
 # iter = 54500  time[fs]=54.50000
   C -0.469481897E+01 -0.350366775E+00  0.346302724E-01
   C  0.459666567E+01  0.190928838E+00  0.189897369E+00
   H -0.263997184E+02  0.313194063E+01 -0.546251109E+00
   H  0.257743110E+02 -0.235626162E+01 -0.195421774E+01
     4
 # iter = 55000  time[fs]=55.00000
   C -0.476362249E+01 -0.355789330E+00  0.353933084E-01
   C  0.466330358E+01  0.194041471E+00  0.193289241E+00
   H -0.267663705E+02  0.317571571E+01 -0.553439336E+00
   H  0.261292550E+02 -0.238978253E+01 -0.198074386E+01
     4
 # iter = 55500  time[fs]=55.50000
   C -0.483250103E+01 -0.361217145E+00  0.361553908E-01
   C  0.473001610E+01  0.197159095E+00  0.196683098E+00
   H -0.271331382E+02  0.321950640E+01 -0.560629899E+00
   H  0.264843198E+02 -0.242331583E+01 -0.200728001E+01
     4
 # iter = 56000  time[fs]=56.00000
   C -0.490145248E+01 -0.366650079E+00  0.369165440E-01
   C  0.479680110E+01  0.200281577E+00  0.200078888E+00
   H -0.275000185E+02  0.326331230E+01 -0.567822735E+00
   H  0.268395021E+02 -0.245686120E+01 -0.203382592E+01
     4
 # iter = 56500  time[fs]=56.50000
   C -0.497047481E+01 -0.372087994E+00  0.376767917E-01
   C  0.486365657E+01  0.203408786E+00  0.203476561E+00
   H -0.278670084E+02  0.330713301E+01 -0.575017785E+00
   H  0.271947989E+02 -0.249041834E+01 -0.206038135E+01
     4
 # iter = 57000  time[fs]=57.00000
   C -0.503956606E+01 -0.377530761E+00  0.384361565E-01
   C  0.493058056E+01  0.206540601E+00  0.206876069E+00
   H -0.282341050E+02  0.335096814E+01 -0.582214991E+00
   H  0.275502073E+02 -0.252398694E+01 -0.208694606E+01
     4
 # iter = 57500  time[fs]=57.50000
   C -0.510872436E+01 -0.382978253E+00  0.391946604E-01
   C  0.499757121E+01  0.209676901E+00  0.210277366E+00
   H -0.286013056E+02  0.339481733E+01 -0.589414299E+00
   H  0.279057243E+02 -0.255756672E+01 -0.211351980E+01
     4
 # iter = 58000  time[fs]=58.00000
   C -0.517794791E+01 -0.388430350E+00  0.399523245E-01
   C  0.506462673E+01  0.212817572E+00  0.213680407E+00
   H -0.289686075E+02  0.343868023E+01 -0.596615655E+00
   H  0.282613473E+02 -0.259115741E+01 -0.214010235E+01
     4
 # iter = 58500  time[fs]=58.50000
   C -0.524723497E+01 -0.393886934E+00  0.407091693E-01
   C  0.513174540E+01  0.215962502E+00  0.217085151E+00
   H -0.293360083E+02  0.348255650E+01 -0.603819008E+00
   H  0.286170736E+02 -0.262475873E+01 -0.216669349E+01
     4
 # iter = 59000  time[fs]=59.00000
   C -0.531658390E+01 -0.399347894E+00  0.414652145E-01
   C  0.519892555E+01  0.219111587E+00  0.220491555E+00
   H -0.297035054E+02  0.352644580E+01 -0.611024309E+00
   H  0.289729006E+02 -0.265837044E+01 -0.219329301E+01
     4
 # iter = 59500  time[fs]=59.50000
   C -0.538599308E+01 -0.404813121E+00  0.422204790E-01
   C  0.526616560E+01  0.222264723E+00  0.223899579E+00
   H -0.300710965E+02  0.357034783E+01 -0.618231510E+00
   H  0.293288259E+02 -0.269199227E+01 -0.221990072E+01
     4
 # iter = 60000  time[fs]=60.00000
   C -0.545546097E+01 -0.410282510E+00  0.429749813E-01
   C  0.533346402E+01  0.225421812E+00  0.227309186E+00
   H -0.304387794E+02  0.361426228E+01 -0.625440566E+00
   H  0.296848471E+02 -0.272562401E+01 -0.224651641E+01
     4
 # iter = 60500  time[fs]=60.50000
   C -0.552498609E+01 -0.415755962E+00  0.437287391E-01
   C  0.540081933E+01  0.228582757E+00  0.230720338E+00
   H -0.308065518E+02  0.365818886E+01 -0.632651433E+00
   H  0.300409620E+02 -0.275926540E+01 -0.227313990E+01
     4
 # iter = 61000  time[fs]=61.00000
   C -0.559456702E+01 -0.421233379E+00  0.444817696E-01
   C  0.546823010E+01  0.231747468E+00  0.234132999E+00
   H -0.311744116E+02  0.370212728E+01 -0.639864067E+00
   H  0.303971683E+02 -0.279291624E+01 -0.229977100E+01
     4
 # iter = 61500  time[fs]=61.50000
   C -0.566420236E+01 -0.426714667E+00  0.452340894E-01
   C  0.553569496E+01  0.234915854E+00  0.237547135E+00
   H -0.315423568E+02  0.374607727E+01 -0.647078429E+00
   H  0.307534640E+02 -0.282657631E+01 -0.232640955E+01
     4
 # iter = 62000  time[fs]=62.00000
   C -0.573389081E+01 -0.432199736E+00  0.459857146E-01
   C  0.560321260E+01  0.238087831E+00  0.240962712E+00
   H -0.319103854E+02  0.379003856E+01 -0.654294478E+00
   H  0.311098469E+02 -0.286024540E+01 -0.235305536E+01
     4
 # iter = 62500  time[fs]=62.50000
   C -0.580363106E+01 -0.437688499E+00  0.467366607E-01
   C  0.567078174E+01  0.241263316E+00  0.244379698E+00
   H -0.322784955E+02  0.383401090E+01 -0.661512176E+00
   H  0.314663151E+02 -0.289392330E+01 -0.237970829E+01
     4
 # iter = 63000  time[fs]=63.00000
   C -0.587342189E+01 -0.443180870E+00  0.474869427E-01
   C  0.573840114E+01  0.244442228E+00  0.247798062E+00
   H -0.326466853E+02  0.387799405E+01 -0.668731485E+00
   H  0.318228667E+02 -0.292760984E+01 -0.240636816E+01
     4
 # iter = 63500  time[fs]=63.50000
   C -0.594326211E+01 -0.448676769E+00  0.482365752E-01
   C  0.580606962E+01  0.247624490E+00  0.251217772E+00
   H -0.330149530E+02  0.392198776E+01 -0.675952371E+00
   H  0.321794998E+02 -0.296130481E+01 -0.243303483E+01
     4
 # iter = 64000  time[fs]=64.00000
   C -0.601315055E+01 -0.454176116E+00  0.489855724E-01
   C  0.587378604E+01  0.250810027E+00  0.254638801E+00
   H -0.333832968E+02  0.396599181E+01 -0.683174798E+00
   H  0.325362126E+02 -0.299500803E+01 -0.245970814E+01
     4
 # iter = 64500  time[fs]=64.50000
   C -0.608308612E+01 -0.459678835E+00  0.497339478E-01
   C  0.594154929E+01  0.253998767E+00  0.258061118E+00
   H -0.337517152E+02  0.401000597E+01 -0.690398733E+00
   H  0.328930035E+02 -0.302871934E+01 -0.248638796E+01
     4
 # iter = 65000  time[fs]=65.00000
   C -0.615306772E+01 -0.465184852E+00  0.504817147E-01
   C  0.600935829E+01  0.257190640E+00  0.261484698E+00
   H -0.341202064E+02  0.405403002E+01 -0.697624144E+00
   H  0.332498706E+02 -0.306243855E+01 -0.251307415E+01
     4
 # iter = 65500  time[fs]=65.50000
   C -0.622309432E+01 -0.470694096E+00  0.512288860E-01
   C  0.607721201E+01  0.260385577E+00  0.264909513E+00
   H -0.344887690E+02  0.409806375E+01 -0.704850998E+00
   H  0.336068124E+02 -0.309616551E+01 -0.253976657E+01
     4
 # iter = 66000  time[fs]=66.00000
   C -0.629316491E+01 -0.476206497E+00  0.519754741E-01
   C  0.614510945E+01  0.263583514E+00  0.268335538E+00
   H -0.348574014E+02  0.414210697E+01 -0.712079266E+00
   H  0.339638274E+02 -0.312990005E+01 -0.256646509E+01
     4
 # iter = 66500  time[fs]=66.50000
   C -0.636327853E+01 -0.481721988E+00  0.527214911E-01
   C  0.621304964E+01  0.266784386E+00  0.271762747E+00
   H -0.352261021E+02  0.418615947E+01 -0.719308919E+00
   H  0.343209139E+02 -0.316364203E+01 -0.259316959E+01
     4
 # iter = 67000  time[fs]=67.00000
   C -0.643343422E+01 -0.487240503E+00  0.534669486E-01
   C  0.628103164E+01  0.269988131E+00  0.275191116E+00
   H -0.355948699E+02  0.423022107E+01 -0.726539926E+00
   H  0.346780706E+02 -0.319739128E+01 -0.261987994E+01
     4
 # iter = 67500  time[fs]=67.50000
   C -0.650363108E+01 -0.492761981E+00  0.542118581E-01
   C  0.634905455E+01  0.273194691E+00  0.278620622E+00
   H -0.359637031E+02  0.427429158E+01 -0.733772262E+00
   H  0.350352959E+02 -0.323114766E+01 -0.264659602E+01
     4
 # iter = 68000  time[fs]=68.00000
   C -0.657386822E+01 -0.498286360E+00  0.549562306E-01
   C  0.641711748E+01  0.276404006E+00  0.282051241E+00
   H -0.363326007E+02  0.431837083E+01 -0.741005899E+00
   H  0.353925885E+02 -0.326491104E+01 -0.267331773E+01
     4
 # iter = 68500  time[fs]=68.50000
   C -0.664414478E+01 -0.503813581E+00  0.557000767E-01
   C  0.648521960E+01  0.279616021E+00  0.285482953E+00
   H -0.367015612E+02  0.436245862E+01 -0.748240811E+00
   H  0.357499471E+02 -0.329868127E+01 -0.270004494E+01
     4
 # iter = 69000  time[fs]=69.00000
   C -0.671445995E+01 -0.509343586E+00  0.564434069E-01
   C  0.655336006E+01  0.282830681E+00  0.288915734E+00
   H -0.370705833E+02  0.440655481E+01 -0.755476972E+00
   H  0.361073703E+02 -0.333245822E+01 -0.272677755E+01
     4
 # iter = 69500  time[fs]=69.50000
   C -0.678481290E+01 -0.514876319E+00  0.571862313E-01
   C  0.662153808E+01  0.286047934E+00  0.292349564E+00
   H -0.374396660E+02  0.445065923E+01 -0.762714359E+00
   H  0.364648569E+02 -0.336624176E+01 -0.275351546E+01
     4
 # iter = 70000  time[fs]=70.00000
   C -0.685520287E+01 -0.520411726E+00  0.579285597E-01
   C  0.668975288E+01  0.289267727E+00  0.295784423E+00
   H -0.378088079E+02  0.449477171E+01 -0.769952947E+00
   H  0.368224056E+02 -0.340003177E+01 -0.278025856E+01
     4
 # iter = 70500  time[fs]=70.50000
   C -0.692562910E+01 -0.525949755E+00  0.586704017E-01
   C  0.675800370E+01  0.292490011E+00  0.299220292E+00
   H -0.381780080E+02  0.453889210E+01 -0.777192713E+00
   H  0.371800153E+02 -0.343382812E+01 -0.280700675E+01
     4
 # iter = 71000  time[fs]=71.00000
   C -0.699609085E+01 -0.531490355E+00  0.594117665E-01
   C  0.682628982E+01  0.295714738E+00  0.302657150E+00
   H -0.385472652E+02  0.458302025E+01 -0.784433635E+00
   H  0.375376847E+02 -0.346763070E+01 -0.283375994E+01
     4
 # iter = 71500  time[fs]=71.50000
   C -0.706658742E+01 -0.537033476E+00  0.601526631E-01
   C  0.689461052E+01  0.298941860E+00  0.306094979E+00
   H -0.389165783E+02  0.462715602E+01 -0.791675691E+00
   H  0.378954127E+02 -0.350143939E+01 -0.286051804E+01
     4
 # iter = 72000  time[fs]=72.00000
   C -0.713711810E+01 -0.542579069E+00  0.608931003E-01
   C  0.696296513E+01  0.302171332E+00  0.309533762E+00
   H -0.392859463E+02  0.467129927E+01 -0.798918860E+00
   H  0.382531984E+02 -0.353525407E+01 -0.288728095E+01
     4
 # iter = 72500  time[fs]=72.50000
   C -0.720768224E+01 -0.548127089E+00  0.616330867E-01
   C  0.703135297E+01  0.305403109E+00  0.312973480E+00
   H -0.396553681E+02  0.471544985E+01 -0.806163120E+00
   H  0.386110404E+02 -0.356907464E+01 -0.291404858E+01
     4
 # iter = 73000  time[fs]=73.00000
   C -0.727827917E+01 -0.553677488E+00  0.623726305E-01
   C  0.709977339E+01  0.308637148E+00  0.316414116E+00
   H -0.400248429E+02  0.475960763E+01 -0.813408452E+00
   H  0.389689380E+02 -0.360290098E+01 -0.294082084E+01
     4
 # iter = 73500  time[fs]=73.50000
   C -0.734890827E+01 -0.559230224E+00  0.631117398E-01
   C  0.716822578E+01  0.311873406E+00  0.319855654E+00
   H -0.403943696E+02  0.480377249E+01 -0.820654837E+00
   H  0.393268899E+02 -0.363673301E+01 -0.296759766E+01
     4
 # iter = 74000  time[fs]=74.00000
   C -0.741956892E+01 -0.564785253E+00  0.638504225E-01
   C  0.723670950E+01  0.315111844E+00  0.323298078E+00
   H -0.407639472E+02  0.484794429E+01 -0.827902255E+00
   H  0.396848953E+02 -0.367057061E+01 -0.299437896E+01
     4
 # iter = 74500  time[fs]=74.50000
   C -0.749026053E+01 -0.570342533E+00  0.645886863E-01
   C  0.730522398E+01  0.318352421E+00  0.326741371E+00
   H -0.411335749E+02  0.489212291E+01 -0.835150688E+00
   H  0.400429532E+02 -0.370441370E+01 -0.302116464E+01
     4
 # iter = 75000  time[fs]=75.00000
   C -0.756098250E+01 -0.575902023E+00  0.653265387E-01
   C  0.737376863E+01  0.321595098E+00  0.330185518E+00
   H -0.415032518E+02  0.493630823E+01 -0.842400118E+00
   H  0.404010626E+02 -0.373826216E+01 -0.304795465E+01
     4
 # iter = 75500  time[fs]=75.50000
   C -0.763173428E+01 -0.581463684E+00  0.660639867E-01
   C  0.744234289E+01  0.324839838E+00  0.333630504E+00
   H -0.418729770E+02  0.498050014E+01 -0.849650527E+00
   H  0.407592227E+02 -0.377211591E+01 -0.307474889E+01
     4
 # iter = 76000  time[fs]=76.00000
   C -0.770251531E+01 -0.587027476E+00  0.668010377E-01
   C  0.751094621E+01  0.328086604E+00  0.337076315E+00
   H -0.422427496E+02  0.502469851E+01 -0.856901898E+00
   H  0.411174326E+02 -0.380597487E+01 -0.310154730E+01
     4
 # iter = 76500  time[fs]=76.50000
   C -0.777332507E+01 -0.592593363E+00  0.675376984E-01
   C  0.757957806E+01  0.331335360E+00  0.340522937E+00
   H -0.426125689E+02  0.506890325E+01 -0.864154215E+00
   H  0.414756913E+02 -0.383983893E+01 -0.312834980E+01
     4
 # iter = 77000  time[fs]=77.00000
   C -0.784416302E+01 -0.598161308E+00  0.682739756E-01
   C  0.764823793E+01  0.334586071E+00  0.343970354E+00
   H -0.429824340E+02  0.511311423E+01 -0.871407462E+00
   H  0.418339982E+02 -0.387370802E+01 -0.315515633E+01
     4
 # iter = 77500  time[fs]=77.50000
   C -0.791502867E+01 -0.603731274E+00  0.690098759E-01
   C  0.771692530E+01  0.337838705E+00  0.347418555E+00
   H -0.433523441E+02  0.515733136E+01 -0.878661622E+00
   H  0.421923522E+02 -0.390758205E+01 -0.318196682E+01
     4
 # iter = 78000  time[fs]=78.00000
   C -0.798592151E+01 -0.609303227E+00  0.697454056E-01
   C  0.778563969E+01  0.341093226E+00  0.350867525E+00
   H -0.437222985E+02  0.520155453E+01 -0.885916680E+00
   H  0.425507527E+02 -0.394146094E+01 -0.320878119E+01
     4
 # iter = 78500  time[fs]=78.50000
   C -0.805684107E+01 -0.614877133E+00  0.704805710E-01
   C  0.785438063E+01  0.344349604E+00  0.354317252E+00
   H -0.440922965E+02  0.524578365E+01 -0.893172621E+00
   H  0.429091989E+02 -0.397534461E+01 -0.323559940E+01
     4
 # iter = 79000  time[fs]=79.00000
   C -0.812778688E+01 -0.620452959E+00  0.712153781E-01
   C  0.792314763E+01  0.347607806E+00  0.357767724E+00
   H -0.444623373E+02  0.529001860E+01 -0.900429431E+00
   H  0.432676900E+02 -0.400923297E+01 -0.326242137E+01
     4
 # iter = 79500  time[fs]=79.50000
   C -0.819875849E+01 -0.626030673E+00  0.719498329E-01
   C  0.799194026E+01  0.350867803E+00  0.361218927E+00
   H -0.448324201E+02  0.533425930E+01 -0.907687096E+00
   H  0.436262253E+02 -0.404312597E+01 -0.328924704E+01
     4
 # iter = 80000  time[fs]=80.00000
   C -0.826975544E+01 -0.631610244E+00  0.726839412E-01
   C  0.806075806E+01  0.354129564E+00  0.364670851E+00
   H -0.452025444E+02  0.537850566E+01 -0.914945600E+00
   H  0.439848041E+02 -0.407702351E+01 -0.331607636E+01
