     4
 # iter = 25000  time[fs]=25.00000
   C -0.980758930E+00 -0.288916504E-01  0.113069058E-01
   C  0.977092994E+00 -0.187554208E-02  0.260336276E-03
   H -0.521466735E+01  0.387500823E+00  0.612680319E+00
   H  0.527615109E+01  0.307077954E+00 -0.670657162E+00
     4
 # iter = 25500  time[fs]=25.50000
   C -0.102676967E+01 -0.310388235E-01  0.977900944E-02
   C  0.102004730E+01 -0.300453725E-02  0.361810273E-02
   H -0.554283234E+01  0.411810703E+00  0.650272098E+00
   H  0.558839718E+01  0.325263693E+00 -0.710206189E+00
     4
 # iter = 26000  time[fs]=26.00000
   C -0.107603278E+01 -0.332483395E-01  0.824909113E-02
   C  0.106625789E+01 -0.410172185E-02  0.697996546E-02
   H -0.587369236E+01  0.436332547E+00  0.688206544E+00
   H  0.590329130E+01  0.343603855E+00 -0.750122775E+00
     4
 # iter = 26500  time[fs]=26.50000
   C -0.112826793E+01 -0.355140691E-01  0.671039998E-02
   C  0.111544298E+01 -0.516987883E-02  0.103526475E-01
   H -0.620694857E+01  0.461042543E+00  0.726445028E+00
   H  0.622055225E+01  0.362082097E+00 -0.790367955E+00
     4
 # iter = 27000  time[fs]=27.00000
   C -0.118321452E+01 -0.378305582E-01  0.515783122E-02
   C  0.116734085E+01 -0.621164090E-02  0.137412008E-01
   H -0.654234840E+01  0.485920711E+00  0.764955109E+00
   H  0.653994052E+01  0.380684543E+00 -0.830908657E+00
     4
 # iter = 27500  time[fs]=27.50000
   C -0.124063287E+01 -0.401929598E-01  0.358764773E-02
   C  0.122171103E+01 -0.722945350E-02  0.171492954E-01
   H -0.687967660E+01  0.510950115E+00  0.803709282E+00
   H  0.686125064E+01  0.399399309E+00 -0.871716570E+00
     4
 # iter = 28000  time[fs]=28.00000
   C -0.130030435E+01 -0.425969703E-01  0.199722022E-02
   C  0.127833428E+01 -0.822555907E-02  0.205794857E-01
   H -0.721874832E+01  0.536116274E+00  0.842684027E+00
   H  0.718430500E+01  0.418216142E+00 -0.912767276E+00
     4
 # iter = 28500  time[fs]=28.50000
   C -0.136203066E+01 -0.450387693E-01  0.384798641E-03
   C  0.133701185E+01 -0.920199534E-02  0.240334436E-01
   H -0.755940366E+01  0.561406706E+00  0.881859073E+00
   H  0.750894918E+01  0.437126132E+00 -0.954039564E+00
     4
 # iter = 29000  time[fs]=29.00000
   C -0.142563266E+01 -0.475149644E-01 -0.125068139E-02
   C  0.139756425E+01 -0.101606024E-01  0.275121544E-01
   H -0.790150349E+01  0.586810575E+00  0.921216828E+00
   H  0.783504806E+01  0.456121488E+00 -0.995514894E+00
     4
 # iter = 29500  time[fs]=29.50000
   C -0.149094894E+01 -0.500225409E-01 -0.290975790E-02
   C  0.145982983E+01 -0.111030348E-01  0.310160785E-01
   H -0.824492597E+01  0.612318409E+00  0.960741923E+00
   H  0.816248281E+01  0.475195359E+00 -0.103717697E+01
     4
 # iter = 30000  time[fs]=30.00000
   C -0.155783428E+01 -0.525588165E-01 -0.459257116E-02
   C  0.152366319E+01 -0.120307762E-01  0.345452808E-01
   H -0.858956387E+01  0.637921884E+00  0.100042086E+01
   H  0.849114840E+01  0.494341687E+00 -0.107901138E+01
     4
 # iter = 30500  time[fs]=30.50000
   C -0.162615816E+01 -0.551214011E-01 -0.629896574E-02
   C  0.158893367E+01 -0.129451548E-01  0.380995334E-01
   H -0.893532233E+01  0.663613642E+00  0.104024171E+01
   H  0.882095154E+01  0.513555088E+00 -0.112100533E+01
     4
 # iter = 31000  time[fs]=31.00000
   C -0.169580324E+01 -0.577081614E-01 -0.802857069E-02
   C  0.165552384E+01 -0.138473592E-01  0.416783962E-01
   H -0.928211706E+01  0.689387147E+00  0.108019388E+01
   H  0.915180901E+01  0.532830759E+00 -0.116314741E+01
     4
 # iter = 31500  time[fs]=31.50000
   C -0.176666397E+01 -0.603171892E-01 -0.978086170E-02
   C  0.172332811E+01 -0.147384526E-01  0.452812791E-01
   H -0.962987280E+01  0.715236566E+00  0.112026794E+01
   H  0.948364631E+01  0.552164394E+00 -0.120542737E+01
     4
 # iter = 32000  time[fs]=32.00000
   C -0.183864538E+01 -0.629467744E-01 -0.115552090E-01
   C  0.179225144E+01 -0.156193868E-01  0.489074902E-01
   H -0.997852214E+01  0.741156671E+00  0.116045542E+01
   H  0.981639647E+01  0.571552120E+00 -0.124783603E+01
     4
 # iter = 32500  time[fs]=32.50000
   C -0.191166188E+01 -0.655953809E-01 -0.133509140E-01
   C  0.186220823E+01 -0.164910145E-01  0.525562721E-01
   H -0.103280044E+02  0.767142762E+00  0.120074873E+01
   H  0.101499991E+02  0.590990439E+00 -0.129036507E+01
     4
 # iter = 33000  time[fs]=33.00000
   C -0.198563621E+01 -0.682616259E-01 -0.151672366E-01
   C  0.193312123E+01 -0.173541004E-01  0.562268295E-01
   H -0.106782649E+02  0.793190590E+00  0.124114101E+01
   H  0.104843994E+02  0.610476182E+00 -0.133300696E+01
     4
 # iter = 33500  time[fs]=33.50000
   C -0.206049858E+01 -0.709442618E-01 -0.170034165E-01
   C  0.200492064E+01 -0.182093318E-01  0.599183497E-01
   H -0.110292540E+02  0.819296308E+00  0.128162603E+01
   H  0.108195479E+02  0.630006469E+00 -0.137575487E+01
     4
 # iter = 34000  time[fs]=34.00000
   C -0.213618579E+01 -0.736421601E-01 -0.188586880E-01
   C  0.207754329E+01 -0.190573265E-01  0.636300179E-01
   H -0.113809268E+02  0.845456418E+00  0.132219815E+01
   H  0.111553993E+02  0.649578674E+00 -0.141860257E+01
     4
 # iter = 34500  time[fs]=34.50000
   C -0.221264055E+01 -0.763542983E-01 -0.207322915E-01
   C  0.215093190E+01 -0.198986415E-01  0.673610281E-01
   H -0.117332422E+02  0.871667732E+00  0.136285224E+01
   H  0.114919124E+02  0.669190397E+00 -0.146154434E+01
     4
 # iter = 35000  time[fs]=35.00000
   C -0.228981080E+01 -0.790797473E-01 -0.226234818E-01
   C  0.222503443E+01 -0.207337795E-01  0.711105915E-01
   H -0.120861626E+02  0.897927335E+00  0.140358359E+01
   H  0.118290494E+02  0.688839439E+00 -0.150457498E+01
     4
 # iter = 35500  time[fs]=35.50000
   C -0.236764917E+01 -0.818176615E-01 -0.245315332E-01
   C  0.229980354E+01 -0.215631952E-01  0.748779415E-01
   H -0.124396540E+02  0.924232553E+00  0.144438790E+01
   H  0.121667757E+02  0.708523778E+00 -0.154768967E+01
     4
 # iter = 36000  time[fs]=36.00000
   C -0.244611246E+01 -0.845672692E-01 -0.264557439E-01
   C  0.237519608E+01 -0.223873004E-01  0.786623374E-01
   H -0.127936846E+02  0.950580931E+00  0.148526120E+01
   H  0.125050593E+02  0.728241554E+00 -0.159088401E+01
     4
 # iter = 36500  time[fs]=36.50000
   C -0.252516124E+01 -0.873278649E-01 -0.283954381E-01
   C  0.245117263E+01 -0.232064689E-01  0.824630670E-01
   H -0.131482256E+02  0.976970207E+00  0.152619988E+01
   H  0.128438709E+02  0.747991048E+00 -0.163415391E+01
     4
 # iter = 37000  time[fs]=37.00000
   C -0.260475939E+01 -0.900988023E-01 -0.303499677E-01
   C  0.252769711E+01 -0.240210406E-01  0.862794476E-01
   H -0.135032502E+02  0.100339829E+01  0.156720055E+01
   H  0.131831834E+02  0.767770672E+00 -0.167749561E+01
     4
 # iter = 37500  time[fs]=37.50000
   C -0.268487383E+01 -0.928794881E-01 -0.323187126E-01
   C  0.260473648E+01 -0.248313252E-01  0.901108268E-01
   H -0.138587337E+02  0.102986325E+01  0.160826012E+01
   H  0.135229717E+02  0.787578954E+00 -0.172090559E+01
     4
 # iter = 38000  time[fs]=38.00000
   C -0.276547417E+01 -0.956693766E-01 -0.343010809E-01
   C  0.268226038E+01 -0.256376050E-01  0.939565820E-01
   H -0.142146532E+02  0.105636330E+01  0.164937571E+01
   H  0.138632124E+02  0.807414526E+00 -0.176438063E+01
     4
 # iter = 38500  time[fs]=38.50000
   C -0.284653245E+01 -0.984679651E-01 -0.362965087E-01
   C  0.276024089E+01 -0.264401384E-01  0.978161203E-01
   H -0.145709876E+02  0.108289677E+01  0.169054464E+01
   H  0.142038839E+02  0.827276117E+00 -0.180791770E+01
     4
 # iter = 39000  time[fs]=39.00000
   C -0.292802293E+01 -0.101274789E+00 -0.383044594E-01
   C  0.283865230E+01 -0.272391619E-01  0.101688877E+00
   H -0.149277171E+02  0.110946212E+01  0.173176444E+01
   H  0.145449661E+02  0.847162541E+00 -0.185151398E+01
     4
 # iter = 39500  time[fs]=39.50000
   C -0.300992183E+01 -0.104089420E+00 -0.403244225E-01
   C  0.291747086E+01 -0.280348924E-01  0.105574317E+00
   H -0.152848233E+02  0.113605790E+01  0.177303278E+01
   H  0.148864402E+02  0.867072694E+00 -0.189516685E+01
     4
 # iter = 40000  time[fs]=40.00000
   C -0.309220717E+01 -0.106911459E+00 -0.423559133E-01
   C  0.299667465E+01 -0.288275291E-01  0.109471930E+00
   H -0.156422892E+02  0.116268276E+01  0.181434751E+01
   H  0.152282888E+02  0.887005542E+00 -0.193887385E+01
     4
 # iter = 40500  time[fs]=40.50000
   C -0.317485862E+01 -0.109740539E+00 -0.443984710E-01
   C  0.307624334E+01 -0.296172556E-01  0.113381232E+00
   H -0.160000988E+02  0.118933546E+01  0.185570661E+01
   H  0.155704953E+02  0.906960117E+00 -0.198263269E+01
     4
 # iter = 41000  time[fs]=41.00000
   C -0.325785731E+01 -0.112576315E+00 -0.464516585E-01
   C  0.315615810E+01 -0.304042408E-01  0.117301764E+00
   H -0.163582371E+02  0.121601480E+01  0.189710819E+01
   H  0.159130446E+02  0.926935513E+00 -0.202644120E+01
     4
 # iter = 41500  time[fs]=41.50000
   C -0.334118571E+01 -0.115418469E+00 -0.485150603E-01
   C  0.323640145E+01 -0.311886408E-01  0.121233090E+00
   H -0.167166901E+02  0.124271969E+01  0.193855047E+01
   H  0.162559222E+02  0.946930877E+00 -0.207029738E+01
     4
 # iter = 42000  time[fs]=42.00000
   C -0.342482754E+01 -0.118266704E+00 -0.505882823E-01
   C  0.331695712E+01 -0.319705998E-01  0.125174794E+00
   H -0.170754447E+02  0.126944908E+01  0.198003180E+01
   H  0.165991146E+02  0.966945410E+00 -0.211419931E+01
     4
 # iter = 42500  time[fs]=42.50000
   C -0.350876763E+01 -0.121120742E+00 -0.526709501E-01
   C  0.339780998E+01 -0.327502515E-01  0.129126485E+00
   H -0.174344885E+02  0.129620201E+01  0.202155061E+01
   H  0.169426091E+02  0.986978358E+00 -0.215814520E+01
     4
 # iter = 43000  time[fs]=43.00000
   C -0.359299183E+01 -0.123980323E+00 -0.547627080E-01
   C  0.347894590E+01 -0.335277197E-01  0.133087788E+00
   H -0.177938100E+02  0.132297754E+01  0.206310544E+01
   H  0.172863938E+02  0.100702901E+01 -0.220213337E+01
     4
 # iter = 43500  time[fs]=43.50000
   C -0.367748692E+01 -0.126845205E+00 -0.568632184E-01
   C  0.356035170E+01 -0.343031193E-01  0.137058348E+00
   H -0.181533983E+02  0.134977482E+01  0.210469489E+01
   H  0.176304574E+02  0.102709670E+01 -0.224616223E+01
     4
 # iter = 44000  time[fs]=44.00000
   C -0.376224056E+01 -0.129715159E+00 -0.589721601E-01
   C  0.364201506E+01 -0.350765571E-01  0.141037829E+00
   H -0.185132431E+02  0.137659304E+01  0.214631766E+01
   H  0.179747894E+02  0.104718080E+01 -0.229023027E+01
     4
 # iter = 44500  time[fs]=44.50000
   C -0.384724118E+01 -0.132589973E+00 -0.610892280E-01
   C  0.372392445E+01 -0.358481328E-01  0.145025908E+00
   H -0.188733346E+02  0.140343141E+01  0.218797252E+01
   H  0.183193797E+02  0.106728070E+01 -0.233433607E+01
     4
 # iter = 45000  time[fs]=45.00000
   C -0.393247795E+01 -0.135469445E+00 -0.632141319E-01
   C  0.380606904E+01 -0.366179390E-01  0.149022282E+00
   H -0.192336637E+02  0.143028921E+01  0.222965829E+01
   H  0.186642188E+02  0.108739584E+01 -0.237847829E+01
     4
 # iter = 45500  time[fs]=45.50000
   C -0.401794070E+01 -0.138353387E+00 -0.653465957E-01
   C  0.388843871E+01 -0.373860622E-01  0.153026659E+00
   H -0.195942217E+02  0.145716574E+01  0.227137388E+01
   H  0.190092977E+02  0.110752569E+01 -0.242265565E+01
     4
 # iter = 46000  time[fs]=46.00000
   C -0.410361988E+01 -0.141241622E+00 -0.674863565E-01
   C  0.397102391E+01 -0.381525832E-01  0.157038764E+00
   H -0.199550004E+02  0.148406036E+01  0.231311824E+01
   H  0.193546080E+02  0.112766973E+01 -0.246686694E+01
     4
 # iter = 46500  time[fs]=46.50000
   C -0.418950650E+01 -0.144133981E+00 -0.696331641E-01
   C  0.405381570E+01 -0.389175777E-01  0.161058333E+00
   H -0.203159920E+02  0.151097244E+01  0.235489037E+01
   H  0.197001415E+02  0.114782749E+01 -0.251111102E+01
     4
 # iter = 47000  time[fs]=47.00000
   C -0.427559212E+01 -0.147030306E+00 -0.717867800E-01
   C  0.413680564E+01 -0.396811165E-01  0.165085115E+00
   H -0.206771892E+02  0.153790140E+01  0.239668934E+01
   H  0.200458908E+02  0.116799850E+01 -0.255538679E+01
     4
 # iter = 47500  time[fs]=47.50000
   C -0.436186876E+01 -0.149930448E+00 -0.739469769E-01
   C  0.421998578E+01 -0.404432659E-01  0.169118872E+00
   H -0.210385850E+02  0.156484667E+01  0.243851425E+01
   H  0.203918484E+02  0.118818234E+01 -0.259969322E+01
     4
 # iter = 48000  time[fs]=48.00000
   C -0.444832891E+01 -0.152834267E+00 -0.761135380E-01
   C  0.430334864E+01 -0.412040882E-01  0.173159374E+00
   H -0.214001726E+02  0.159180771E+01  0.248036424E+01
   H  0.207380075E+02  0.120837858E+01 -0.264402932E+01
     4
 # iter = 48500  time[fs]=48.50000
   C -0.453496548E+01 -0.155741628E+00 -0.782862565E-01
   C  0.438688712E+01 -0.419636419E-01  0.177206405E+00
   H -0.217619459E+02  0.161878404E+01  0.252223852E+01
   H  0.210843616E+02  0.122858683E+01 -0.268839415E+01
     4
 # iter = 49000  time[fs]=49.00000
   C -0.462177174E+01 -0.158652404E+00 -0.804649350E-01
   C  0.447059455E+01 -0.427219819E-01  0.181259756E+00
   H -0.221238987E+02  0.164577515E+01  0.256413631E+01
   H  0.214309043E+02  0.124880672E+01 -0.273278682E+01
     4
 # iter = 49500  time[fs]=49.50000
   C -0.470874137E+01 -0.161566477E+00 -0.826493848E-01
   C  0.455446460E+01 -0.434791602E-01  0.185319229E+00
   H -0.224860253E+02  0.167278059E+01  0.260605687E+01
   H  0.217776297E+02  0.126903788E+01 -0.277720647E+01
     4
 # iter = 50000  time[fs]=50.00000
   C -0.479586835E+01 -0.164483731E+00 -0.848394258E-01
   C  0.463849128E+01 -0.442352253E-01  0.189384634E+00
   H -0.228483203E+02  0.169979993E+01  0.264799951E+01
   H  0.221245322E+02  0.128927998E+01 -0.282165228E+01
     4
 # iter = 50500  time[fs]=50.50000
   C -0.488314698E+01 -0.167404059E+00 -0.870348857E-01
   C  0.472266891E+01 -0.449902233E-01  0.193455790E+00
   H -0.232107784E+02  0.172683273E+01  0.268996356E+01
   H  0.224716062E+02  0.130953268E+01 -0.286612348E+01
     4
 # iter = 51000  time[fs]=51.00000
   C -0.497057188E+01 -0.170327358E+00 -0.892355996E-01
   C  0.480699212E+01 -0.457441977E-01  0.197532522E+00
   H -0.235733947E+02  0.175387861E+01  0.273194837E+01
   H  0.228188467E+02  0.132979568E+01 -0.291061932E+01
     4
 # iter = 51500  time[fs]=51.50000
   C -0.505813791E+01 -0.173253529E+00 -0.914414098E-01
   C  0.489145579E+01 -0.464971893E-01  0.201614665E+00
   H -0.239361644E+02  0.178093718E+01  0.277395334E+01
   H  0.231662487E+02  0.135006867E+01 -0.295513909E+01
     4
 # iter = 52000  time[fs]=52.00000
   C -0.514584020E+01 -0.176182481E+00 -0.936521652E-01
   C  0.497605507E+01 -0.472492370E-01  0.205702059E+00
   H -0.242990831E+02  0.180800806E+01  0.281597788E+01
   H  0.235138074E+02  0.137035137E+01 -0.299968210E+01
     4
 # iter = 52500  time[fs]=52.50000
   C -0.523367413E+01 -0.179114123E+00 -0.958677212E-01
   C  0.506078534E+01 -0.480003774E-01  0.209794552E+00
   H -0.246621462E+02  0.183509092E+01  0.285802144E+01
   H  0.238615183E+02  0.139064351E+01 -0.304424771E+01
     4
 # iter = 53000  time[fs]=53.00000
   C -0.532163530E+01 -0.182048372E+00 -0.980879391E-01
   C  0.514564223E+01 -0.487506452E-01  0.213891997E+00
   H -0.250253498E+02  0.186218542E+01  0.290008347E+01
   H  0.242093771E+02  0.141094482E+01 -0.308883528E+01
     4
 # iter = 53500  time[fs]=53.50000
   C -0.540971951E+01 -0.184985147E+00 -0.100312686E+00
   C  0.523062154E+01 -0.495000734E-01  0.217994255E+00
   H -0.253886897E+02  0.188929123E+01  0.294216347E+01
   H  0.245573797E+02  0.143125504E+01 -0.313344421E+01
     4
 # iter = 54000  time[fs]=54.00000
   C -0.549792276E+01 -0.187924371E+00 -0.102541834E+00
   C  0.531571931E+01 -0.502486932E-01  0.222101191E+00
   H -0.257521623E+02  0.191640804E+01  0.298426094E+01
   H  0.249055219E+02  0.145157395E+01 -0.317807394E+01
     4
 # iter = 54500  time[fs]=54.50000
   C -0.558624125E+01 -0.190865969E+00 -0.104775261E+00
   C  0.540093173E+01 -0.509965341E-01  0.226212675E+00
   H -0.261157638E+02  0.194353556E+01  0.302637541E+01
   H  0.252538001E+02  0.147190130E+01 -0.322272390E+01
     4
 # iter = 55000  time[fs]=55.00000
   C -0.567467134E+01 -0.193809872E+00 -0.107012849E+00
   C  0.548625519E+01 -0.517436244E-01  0.230328583E+00
   H -0.264794907E+02  0.197067351E+01  0.306850643E+01
   H  0.256022106E+02  0.149223687E+01 -0.326739357E+01
     4
 # iter = 55500  time[fs]=55.50000
   C -0.576320957E+01 -0.196756012E+00 -0.109254486E+00
   C  0.557168622E+01 -0.524899907E-01  0.234448796E+00
   H -0.268433396E+02  0.199782161E+01  0.311065356E+01
   H  0.259507497E+02  0.151258045E+01 -0.331208243E+01
     4
 # iter = 56000  time[fs]=56.00000
   C -0.585185262E+01 -0.199704325E+00 -0.111500062E+00
   C  0.565722153E+01 -0.532356584E-01  0.238573200E+00
   H -0.272073074E+02  0.202497959E+01  0.315281639E+01
   H  0.262994143E+02  0.153293183E+01 -0.335678999E+01
     4
 # iter = 56500  time[fs]=56.50000
   C -0.594059732E+01 -0.202654749E+00 -0.113749473E+00
   C  0.574285795E+01 -0.539806519E-01  0.242701683E+00
   H -0.275713908E+02  0.205214721E+01  0.319499451E+01
   H  0.266482009E+02  0.155329082E+01 -0.340151578E+01
     4
 # iter = 57000  time[fs]=57.00000
   C -0.602944063E+01 -0.205607225E+00 -0.116002620E+00
   C  0.582859248E+01 -0.547249941E-01  0.246834141E+00
   H -0.279355870E+02  0.207932422E+01  0.323718753E+01
   H  0.269971065E+02  0.157365723E+01 -0.344625935E+01
     4
 # iter = 57500  time[fs]=57.50000
   C -0.611837967E+01 -0.208561696E+00 -0.118259404E+00
   C  0.591442222E+01 -0.554687070E-01  0.250970471E+00
   H -0.282998930E+02  0.210651039E+01  0.327939508E+01
   H  0.273461280E+02  0.159403086E+01 -0.349102025E+01
     4
 # iter = 58000  time[fs]=58.00000
   C -0.620741166E+01 -0.211518107E+00 -0.120519734E+00
   C  0.600034440E+01 -0.562118116E-01  0.255110574E+00
   H -0.286643061E+02  0.213370550E+01  0.332161681E+01
   H  0.276952626E+02  0.161441155E+01 -0.353579807E+01
     4
 # iter = 58500  time[fs]=58.50000
   C -0.629653392E+01 -0.214476407E+00 -0.122783519E+00
   C  0.608635637E+01 -0.569543277E-01  0.259254356E+00
   H -0.290288236E+02  0.216090931E+01  0.336385237E+01
   H  0.280445075E+02  0.163479912E+01 -0.358059239E+01
     4
 # iter = 59000  time[fs]=59.00000
   C -0.638574391E+01 -0.217436544E+00 -0.125050674E+00
   C  0.617245560E+01 -0.576962746E-01  0.263401726E+00
   H -0.293934430E+02  0.218812164E+01  0.340610142E+01
   H  0.283938599E+02  0.165519340E+01 -0.362540283E+01
     4
 # iter = 59500  time[fs]=59.50000
   C -0.647503919E+01 -0.220398472E+00 -0.127321114E+00
   C  0.625863964E+01 -0.584376704E-01  0.267552595E+00
   H -0.297581617E+02  0.221534227E+01  0.344836364E+01
   H  0.287433174E+02  0.167559425E+01 -0.367022900E+01
     4
 # iter = 60000  time[fs]=60.00000
   C -0.656441740E+01 -0.223362143E+00 -0.129594760E+00
   C  0.634490616E+01 -0.591785326E-01  0.271706879E+00
   H -0.301229774E+02  0.224257101E+01  0.349063873E+01
   H  0.290928773E+02  0.169600151E+01 -0.371507055E+01
     4
 # iter = 60500  time[fs]=60.50000
   C -0.665387629E+01 -0.226327512E+00 -0.131871534E+00
   C  0.643125290E+01 -0.599188778E-01  0.275864495E+00
   H -0.304878878E+02  0.226980767E+01  0.353292638E+01
   H  0.294425373E+02  0.171641502E+01 -0.375992711E+01
     4
 # iter = 61000  time[fs]=61.00000
   C -0.674341369E+01 -0.229294537E+00 -0.134151362E+00
   C  0.651767772E+01 -0.606587220E-01  0.280025365E+00
   H -0.308528907E+02  0.229705207E+01  0.357522631E+01
   H  0.297922951E+02  0.173683466E+01 -0.380479835E+01
     4
 # iter = 61500  time[fs]=61.50000
   C -0.683302753E+01 -0.232263177E+00 -0.136434171E+00
   C  0.660417854E+01 -0.613980803E-01  0.284189412E+00
   H -0.312179838E+02  0.232430403E+01  0.361753824E+01
   H  0.301421483E+02  0.175726027E+01 -0.384968394E+01
     4
 # iter = 62000  time[fs]=62.00000
   C -0.692271579E+01 -0.235233391E+00 -0.138719892E+00
   C  0.669075337E+01 -0.621369676E-01  0.288356562E+00
   H -0.315831653E+02  0.235156339E+01  0.365986189E+01
   H  0.304920949E+02  0.177769172E+01 -0.389458356E+01
     4
 # iter = 62500  time[fs]=62.50000
   C -0.701247655E+01 -0.238205141E+00 -0.141008456E+00
   C  0.677740028E+01 -0.628753976E-01  0.292526745E+00
   H -0.319484330E+02  0.237882998E+01  0.370219701E+01
   H  0.308421326E+02  0.179812890E+01 -0.393949690E+01
     4
 # iter = 63000  time[fs]=63.00000
   C -0.710230796E+01 -0.241178391E+00 -0.143299800E+00
   C  0.686411743E+01 -0.636133839E-01  0.296699891E+00
   H -0.323137850E+02  0.240610364E+01  0.374454334E+01
   H  0.311922596E+02  0.181857166E+01 -0.398442367E+01
     4
 # iter = 63500  time[fs]=63.50000
   C -0.719220823E+01 -0.244153104E+00 -0.145593860E+00
   C  0.695090304E+01 -0.643509394E-01  0.300875933E+00
   H -0.326792194E+02  0.243338423E+01  0.378690065E+01
   H  0.315424738E+02  0.183901990E+01 -0.402936356E+01
     4
 # iter = 64000  time[fs]=64.00000
   C -0.728217564E+01 -0.247129245E+00 -0.147890576E+00
   C  0.703775540E+01 -0.650880764E-01  0.305054808E+00
   H -0.330447345E+02  0.246067158E+01  0.382926869E+01
   H  0.318927734E+02  0.185947349E+01 -0.407431632E+01
     4
 # iter = 64500  time[fs]=64.50000
   C -0.737220853E+01 -0.250106783E+00 -0.150189888E+00
   C  0.712467287E+01 -0.658248068E-01  0.309236452E+00
   H -0.334103285E+02  0.248796556E+01  0.387164723E+01
   H  0.322431564E+02  0.187993232E+01 -0.411928166E+01
     4
 # iter = 65000  time[fs]=65.00000
   C -0.746230531E+01 -0.253085684E+00 -0.152491740E+00
   C  0.721165384E+01 -0.665611420E-01  0.313420806E+00
   H -0.337759997E+02  0.251526603E+01  0.391403607E+01
   H  0.325936212E+02  0.190039629E+01 -0.416425933E+01
     4
 # iter = 65500  time[fs]=65.50000
   C -0.755246443E+01 -0.256065917E+00 -0.154796076E+00
   C  0.729869679E+01 -0.672970929E-01  0.317607811E+00
   H -0.341417465E+02  0.254257285E+01  0.395643497E+01
   H  0.329441659E+02  0.192086528E+01 -0.420924906E+01
     4
 # iter = 66000  time[fs]=66.00000
   C -0.764268441E+01 -0.259047453E+00 -0.157102844E+00
   C  0.738580023E+01 -0.680326701E-01  0.321797411E+00
   H -0.345075672E+02  0.256988590E+01  0.399884374E+01
   H  0.332947890E+02  0.194133919E+01 -0.425425062E+01
     4
 # iter = 66500  time[fs]=66.50000
   C -0.773296381E+01 -0.262030263E+00 -0.159411990E+00
   C  0.747296274E+01 -0.687678838E-01  0.325989549E+00
   H -0.348734603E+02  0.259720504E+01  0.404126217E+01
   H  0.336454887E+02  0.196181793E+01 -0.429926376E+01
     4
 # iter = 67000  time[fs]=67.00000
   C -0.782330123E+01 -0.265014318E+00 -0.161723466E+00
   C  0.756018292E+01 -0.695027437E-01  0.330184175E+00
   H -0.352394245E+02  0.262453015E+01  0.408369006E+01
   H  0.339962636E+02  0.198230139E+01 -0.434428826E+01
     4
 # iter = 67500  time[fs]=67.50000
   C -0.791369536E+01 -0.267999591E+00 -0.164037222E+00
   C  0.764745946E+01 -0.702372591E-01  0.334381235E+00
   H -0.356054581E+02  0.265186112E+01  0.412612724E+01
   H  0.343471121E+02  0.200278948E+01 -0.438932389E+01
     4
 # iter = 68000  time[fs]=68.00000
   C -0.800414488E+01 -0.270986056E+00 -0.166353212E+00
   C  0.773479106E+01 -0.709714391E-01  0.338580680E+00
   H -0.359715598E+02  0.267919783E+01  0.416857351E+01
   H  0.346980328E+02  0.202328212E+01 -0.443437043E+01
     4
 # iter = 68500  time[fs]=68.50000
   C -0.809464854E+01 -0.273973688E+00 -0.168671389E+00
   C  0.782217647E+01 -0.717052924E-01  0.342782461E+00
   H -0.363377282E+02  0.270654016E+01  0.421102870E+01
   H  0.350490241E+02  0.204377921E+01 -0.447942767E+01
     4
 # iter = 69000  time[fs]=69.00000
   C -0.818520514E+01 -0.276962462E+00 -0.170991710E+00
   C  0.790961450E+01 -0.724388275E-01  0.346986531E+00
   H -0.367039621E+02  0.273388801E+01  0.425349262E+01
   H  0.354000848E+02  0.206428066E+01 -0.452449540E+01
     4
 # iter = 69500  time[fs]=69.50000
   C -0.827581351E+01 -0.279952354E+00 -0.173314131E+00
   C  0.799710397E+01 -0.731720524E-01  0.351192846E+00
   H -0.370702601E+02  0.276124127E+01  0.429596513E+01
   H  0.357512134E+02  0.208478640E+01 -0.456957342E+01
     4
 # iter = 70000  time[fs]=70.00000
   C -0.836647250E+01 -0.282943340E+00 -0.175638611E+00
   C  0.808464376E+01 -0.739049749E-01  0.355401359E+00
   H -0.374366209E+02  0.278859984E+01  0.433844604E+01
   H  0.361024087E+02  0.210529634E+01 -0.461466155E+01
     4
 # iter = 70500  time[fs]=70.50000
   C -0.845718103E+01 -0.285935400E+00 -0.177965109E+00
   C  0.817223277E+01 -0.746376025E-01  0.359612029E+00
   H -0.378030435E+02  0.281596362E+01  0.438093521E+01
   H  0.364536693E+02  0.212581041E+01 -0.465975959E+01
     4
 # iter = 71000  time[fs]=71.00000
   C -0.854793803E+01 -0.288928510E+00 -0.180293586E+00
   C  0.825986995E+01 -0.753699425E-01  0.363824814E+00
   H -0.381695266E+02  0.284333251E+01  0.442343247E+01
   H  0.368049941E+02  0.214632852E+01 -0.470486736E+01
     4
 # iter = 71500  time[fs]=71.50000
   C -0.863874247E+01 -0.291922649E+00 -0.182624003E+00
   C  0.834755427E+01 -0.761020020E-01  0.368039672E+00
   H -0.385360690E+02  0.287070641E+01  0.446593769E+01
   H  0.371563819E+02  0.216685060E+01 -0.474998467E+01
     4
 # iter = 72000  time[fs]=72.00000
   C -0.872959335E+01 -0.294917798E+00 -0.184956323E+00
   C  0.843528475E+01 -0.768337877E-01  0.372256565E+00
   H -0.389026697E+02  0.289808524E+01  0.450845071E+01
   H  0.375078314E+02  0.218737659E+01 -0.479511136E+01
     4
 # iter = 72500  time[fs]=72.50000
   C -0.882048972E+01 -0.297913937E+00 -0.187290511E+00
   C  0.852306041E+01 -0.775653062E-01  0.376475454E+00
   H -0.392693276E+02  0.292546891E+01  0.455097138E+01
   H  0.378593415E+02  0.220790640E+01 -0.484024726E+01
     4
 # iter = 73000  time[fs]=73.00000
   C -0.891143062E+01 -0.300911045E+00 -0.189626531E+00
   C  0.861088033E+01 -0.782965638E-01  0.380696302E+00
   H -0.396360416E+02  0.295285732E+01  0.459349958E+01
   H  0.382109112E+02  0.222843997E+01 -0.488539221E+01
     4
 # iter = 73500  time[fs]=73.50000
   C -0.900241515E+01 -0.303909104E+00 -0.191964348E+00
   C  0.869874360E+01 -0.790275666E-01  0.384919072E+00
   H -0.400028107E+02  0.298025040E+01  0.463603517E+01
   H  0.385625393E+02  0.224897724E+01 -0.493054603E+01
     4
 # iter = 74000  time[fs]=74.00000
   C -0.909344243E+01 -0.306908097E+00 -0.194303930E+00
   C  0.878664935E+01 -0.797583205E-01  0.389143729E+00
   H -0.403696340E+02  0.300764806E+01  0.467857802E+01
   H  0.389142248E+02  0.226951814E+01 -0.497570859E+01
     4
 # iter = 74500  time[fs]=74.50000
   C -0.918451160E+01 -0.309908005E+00 -0.196645244E+00
   C  0.887459672E+01 -0.804888313E-01  0.393370239E+00
   H -0.407365104E+02  0.303505023E+01  0.472112799E+01
   H  0.392659667E+02  0.229006260E+01 -0.502087972E+01
     4
 # iter = 75000  time[fs]=75.00000
   C -0.927562183E+01 -0.312908811E+00 -0.198988259E+00
   C  0.896258488E+01 -0.812191045E-01  0.397598568E+00
   H -0.411034390E+02  0.306245681E+01  0.476368498E+01
   H  0.396177640E+02  0.231061056E+01 -0.506605927E+01
     4
 # iter = 75500  time[fs]=75.50000
   C -0.936677231E+01 -0.315910498E+00 -0.201332945E+00
   C  0.905061303E+01 -0.819491455E-01  0.401828684E+00
   H -0.414704189E+02  0.308986774E+01  0.480624885E+01
   H  0.399696158E+02  0.233116197E+01 -0.511124712E+01
     4
 # iter = 76000  time[fs]=76.00000
   C -0.945796226E+01 -0.318913051E+00 -0.203679271E+00
   C  0.913868040E+01 -0.826789594E-01  0.406060555E+00
   H -0.418374491E+02  0.311728295E+01  0.484881948E+01
   H  0.403215209E+02  0.235171677E+01 -0.515644310E+01
     4
 # iter = 76500  time[fs]=76.50000
   C -0.954919092E+01 -0.321916453E+00 -0.206027208E+00
   C  0.922678623E+01 -0.834085514E-01  0.410294150E+00
   H -0.422045290E+02  0.314470236E+01  0.489139677E+01
   H  0.406734787E+02  0.237227489E+01 -0.520164709E+01
     4
 # iter = 77000  time[fs]=77.00000
   C -0.964045755E+01 -0.324920689E+00 -0.208376728E+00
   C  0.931492977E+01 -0.841379262E-01  0.414529439E+00
   H -0.425716575E+02  0.317212589E+01  0.493398060E+01
   H  0.410254881E+02  0.239283628E+01 -0.524685896E+01
     4
 # iter = 77500  time[fs]=77.50000
   C -0.973176143E+01 -0.327925745E+00 -0.210727804E+00
   C  0.940311032E+01 -0.848670886E-01  0.418766393E+00
   H -0.429388338E+02  0.319955349E+01  0.497657086E+01
   H  0.413775484E+02  0.241340089E+01 -0.529207857E+01
     4
 # iter = 78000  time[fs]=78.00000
   C -0.982310186E+01 -0.330931604E+00 -0.213080408E+00
   C  0.949132717E+01 -0.855960432E-01  0.423004984E+00
   H -0.433060573E+02  0.322698508E+01  0.501916745E+01
   H  0.417296586E+02  0.243396867E+01 -0.533730579E+01
     4
 # iter = 78500  time[fs]=78.50000
   C -0.991447815E+01 -0.333938254E+00 -0.215434515E+00
   C  0.957957966E+01 -0.863247944E-01  0.427245182E+00
   H -0.436733270E+02  0.325442061E+01  0.506177026E+01
   H  0.420818179E+02  0.245453956E+01 -0.538254051E+01
     4
 # iter = 79000  time[fs]=79.00000
   C -0.100058897E+02 -0.336945680E+00 -0.217790099E+00
   C  0.966786712E+01 -0.870533466E-01  0.431486962E+00
   H -0.440406422E+02  0.328185999E+01  0.510437919E+01
   H  0.424340255E+02  0.247511352E+01 -0.542778260E+01
     4
 # iter = 79500  time[fs]=79.50000
   C -0.100973357E+02 -0.339953870E+00 -0.220147136E+00
   C  0.975618891E+01 -0.877817039E-01  0.435730297E+00
   H -0.444080021E+02  0.330930318E+01  0.514699414E+01
   H  0.427862806E+02  0.249569049E+01 -0.547303194E+01
     4
 # iter = 80000  time[fs]=80.00000
   C -0.101888157E+02 -0.342962809E+00 -0.222505600E+00
   C  0.984454441E+01 -0.885098703E-01  0.439975161E+00
   H -0.447754061E+02  0.333675011E+01  0.518961502E+01
   H  0.431385825E+02  0.251627042E+01 -0.551828842E+01
