     4
 # iter = 25000  time[fs]=25.00000
   C -0.100810464E+01  0.505808908E-01  0.446598346E-01
   C  0.993025449E+00 -0.113692522E-02  0.283030808E-01
   H -0.529956101E+01  0.374148643E+00 -0.179033527E+00
   H  0.536249012E+01 -0.202465350E+00  0.102824223E+00
     4
 # iter = 25500  time[fs]=25.50000
   C -0.105519956E+01  0.509777357E-01  0.468643726E-01
   C  0.103574586E+01 -0.963559588E-03  0.290313076E-01
   H -0.563552787E+01  0.396209990E+00 -0.192135014E+00
   H  0.568263942E+01 -0.216301597E+00  0.109122334E+00
     4
 # iter = 26000  time[fs]=26.00000
   C -0.110596177E+01  0.514598193E-01  0.491073028E-01
   C  0.108213696E+01 -0.880825852E-03  0.297275013E-01
   H -0.597417541E+01  0.418455380E+00 -0.205354724E+00
   H  0.600542858E+01 -0.230257167E+00  0.115462357E+00
     4
 # iter = 26500  time[fs]=26.50000
   C -0.116007635E+01  0.520168537E-01  0.513862339E-01
   C  0.113188245E+01 -0.877751035E-03  0.303933140E-01
   H -0.631520413E+01  0.440864110E+00 -0.218679621E+00
   H  0.633057474E+01 -0.244319581E+00  0.121840130E+00
     4
 # iter = 27000  time[fs]=27.00000
   C -0.121724864E+01  0.526397343E-01  0.536988133E-01
   C  0.118468664E+01 -0.944667198E-03  0.310304816E-01
   H -0.665836148E+01  0.463418789E+00 -0.232098743E+00
   H  0.665783761E+01 -0.258478206E+00  0.128252089E+00
     4
 # iter = 27500  time[fs]=27.50000
   C -0.127720648E+01  0.533204760E-01  0.560427630E-01
   C  0.124027663E+01 -0.107312081E-02  0.316407624E-01
   H -0.700343261E+01  0.486104671E+00 -0.245602781E+00
   H  0.698701139E+01 -0.272723918E+00  0.134695160E+00
     4
 # iter = 28000  time[fs]=28.00000
   C -0.133970090E+01  0.540521183E-01  0.584159060E-01
   C  0.129840286E+01 -0.125575762E-02  0.322258914E-01
   H -0.735023330E+01  0.508909139E+00 -0.259183757E+00
   H  0.731791857E+01 -0.287048825E+00  0.141166673E+00
     4
 # iter = 28500  time[fs]=28.50000
   C -0.140450568E+01  0.548286170E-01  0.608161845E-01
   C  0.135883872E+01 -0.148619939E-02  0.327875471E-01
   H -0.769860441E+01  0.531821319E+00 -0.272834781E+00
   H  0.765040500E+01 -0.301446061E+00  0.147664289E+00
     4
 # iter = 29000  time[fs]=29.00000
   C -0.147141631E+01  0.556447343E-01  0.632416694E-01
   C  0.142137939E+01 -0.175892264E-02  0.333273302E-01
   H -0.804840758E+01  0.554831769E+00 -0.286549861E+00
   H  0.798433600E+01 -0.315909612E+00  0.154185952E+00
     4
 # iter = 29500  time[fs]=29.50000
   C -0.154024852E+01  0.564959345E-01  0.656905652E-01
   C  0.148584038E+01 -0.206914551E-02  0.338467510E-01
   H -0.839952181E+01  0.577932241E+00 -0.300323750E+00
   H  0.831959322E+01 -0.330434185E+00  0.160729845E+00
     4
 # iter = 30000  time[fs]=30.00000
   C -0.161083661E+01  0.573782890E-01  0.681612085E-01
   C  0.155205582E+01 -0.241272548E-02  0.343472224E-01
   H -0.875184064E+01  0.601115484E+00 -0.314151829E+00
   H  0.865607216E+01 -0.345015095E+00  0.167294348E+00
     4
 # iter = 30500  time[fs]=30.50000
   C -0.168303174E+01  0.582883908E-01  0.706520644E-01
   C  0.161987677E+01 -0.278606904E-02  0.348300589E-01
   H -0.910526998E+01  0.624375095E+00 -0.328030008E+00
   H  0.899368007E+01 -0.359648177E+00  0.173878017E+00
     4
 # iter = 31000  time[fs]=31.00000
   C -0.175670029E+01  0.592232806E-01  0.731617207E-01
   C  0.168916952E+01 -0.318605303E-02  0.352964776E-01
   H -0.945972624E+01  0.647705385E+00 -0.341954646E+00
   H  0.933233428E+01 -0.374329711E+00  0.180479557E+00
     4
 # iter = 31500  time[fs]=31.50000
   C -0.183172224E+01  0.601803828E-01  0.756888798E-01
   C  0.175981400E+01 -0.360995690E-02  0.357476022E-01
   H -0.981513486E+01  0.671101282E+00 -0.355922492E+00
   H  0.967196081E+01 -0.389056361E+00  0.187097799E+00
     4
 # iter = 32000  time[fs]=32.00000
   C -0.190798971E+01  0.611574500E-01  0.782323513E-01
   C  0.183170232E+01 -0.405540479E-02  0.361844677E-01
   H -0.101714290E+02  0.694558241E+00 -0.369930625E+00
   H  0.100124932E+02 -0.403825124E+00  0.193731689E+00
     4
 # iter = 32500  time[fs]=32.50000
   C -0.198540565E+01  0.621525160E-01  0.807910437E-01
   C  0.190473741E+01 -0.452031616E-02  0.366080264E-01
   H -0.105285487E+02  0.718072177E+00 -0.383976417E+00
   H  0.103538715E+02 -0.418633289E+00  0.200380269E+00
     4
 # iter = 33000  time[fs]=33.00000
   C -0.206388266E+01  0.631638564E-01  0.833639562E-01
   C  0.197883186E+01 -0.500286390E-02  0.370191532E-01
   H -0.108864397E+02  0.741639400E+00 -0.398057487E+00
   H  0.106960414E+02 -0.433478396E+00  0.207042668E+00
     4
 # iter = 33500  time[fs]=33.50000
   C -0.214334184E+01  0.641899540E-01  0.859501710E-01
   C  0.205390679E+01 -0.550143876E-02  0.374186525E-01
   H -0.112450529E+02  0.765256569E+00 -0.412171679E+00
   H  0.110389539E+02 -0.448358212E+00  0.213718091E+00
     4
 # iter = 34000  time[fs]=34.00000
   C -0.222371192E+01  0.652294704E-01  0.885488459E-01
   C  0.212989097E+01 -0.601461921E-02  0.378072633E-01
   H -0.116043438E+02  0.788920651E+00 -0.426317026E+00
   H  0.113825639E+02 -0.463270697E+00  0.220405811E+00
     4
 # iter = 34500  time[fs]=34.50000
   C -0.230492837E+01  0.662812214E-01  0.911592078E-01
   C  0.220671987E+01 -0.654114584E-02  0.381856649E-01
   H -0.119642717E+02  0.812628878E+00 -0.440491737E+00
   H  0.117268308E+02 -0.478213989E+00  0.227105161E+00
     4
 # iter = 35000  time[fs]=35.00000
   C -0.238693267E+01  0.673441562E-01  0.937805461E-01
   C  0.228433501E+01 -0.707989964E-02  0.385544822E-01
   H -0.123247997E+02  0.836378723E+00 -0.454694168E+00
   H  0.120717170E+02 -0.493186379E+00  0.233815525E+00
     4
 # iter = 35500  time[fs]=35.50000
   C -0.246967166E+01  0.684173400E-01  0.964122072E-01
   C  0.236268326E+01 -0.762988349E-02  0.389142906E-01
   H -0.126858937E+02  0.860167869E+00 -0.468922815E+00
   H  0.124171883E+02 -0.508186298E+00  0.240536338E+00
     4
 # iter = 36000  time[fs]=36.00000
   C -0.255309695E+01  0.694999384E-01  0.990535891E-01
   C  0.244171626E+01 -0.819020639E-02  0.392656201E-01
   H -0.130475225E+02  0.883994190E+00 -0.483176289E+00
   H  0.127632129E+02 -0.523212299E+00  0.247267077E+00
     4
 # iter = 36500  time[fs]=36.50000
   C -0.263716439E+01  0.705912053E-01  0.101704137E+00
   C  0.252138990E+01 -0.876007000E-02  0.396089597E-01
   H -0.134096576E+02  0.907855726E+00 -0.497453314E+00
   H  0.131097619E+02 -0.538263047E+00  0.254007256E+00
     4
 # iter = 37000  time[fs]=37.00000
   C -0.272183367E+01  0.716904711E-01  0.104363338E+00
   C  0.260166391E+01 -0.933875708E-02  0.399447607E-01
   H -0.137722724E+02  0.931750670E+00 -0.511752707E+00
   H  0.134568083E+02 -0.553337308E+00  0.260756426E+00
     4
 # iter = 37500  time[fs]=37.50000
   C -0.280706787E+01  0.727971336E-01  0.107030718E+00
   C  0.268250141E+01 -0.992562161E-02  0.402734404E-01
   H -0.141353426E+02  0.955677349E+00 -0.526073374E+00
   H  0.138043273E+02 -0.568433936E+00  0.267514169E+00
     4
 # iter = 38000  time[fs]=38.00000
   C -0.289283317E+01  0.739106501E-01  0.109705840E+00
   C  0.276386859E+01 -0.105200802E-01  0.405953852E-01
   H -0.144988454E+02  0.979634215E+00 -0.540414300E+00
   H  0.141522958E+02 -0.583551869E+00  0.274280096E+00
     4
 # iter = 38500  time[fs]=38.50000
   C -0.297909847E+01  0.750305299E-01  0.112388297E+00
   C  0.284573441E+01 -0.111216050E-01  0.409109528E-01
   H -0.148627599E+02  0.100361983E+01 -0.554774541E+00
   H  0.145006923E+02 -0.598690118E+00  0.281053843E+00
     4
 # iter = 39000  time[fs]=39.00000
   C -0.306583516E+01  0.761563287E-01  0.115077712E+00
   C  0.292807031E+01 -0.117297167E-01  0.412204754E-01
   H -0.152270667E+02  0.102763285E+01 -0.569153218E+00
   H  0.148494970E+02 -0.613847761E+00  0.287835070E+00
     4
 # iter = 39500  time[fs]=39.50000
   C -0.315301689E+01  0.772876430E-01  0.117773735E+00
   C  0.301084995E+01 -0.123439798E-01  0.415242613E-01
   H -0.155917474E+02  0.105167204E+01 -0.583549510E+00
   H  0.151986912E+02 -0.629023938E+00  0.294623462E+00
     4
 # iter = 40000  time[fs]=40.00000
   C -0.324061932E+01  0.784241056E-01  0.120476039E+00
   C  0.309404902E+01 -0.129639973E-01  0.418225975E-01
   H -0.159567852E+02  0.107573624E+01 -0.597962652E+00
   H  0.155482575E+02 -0.644217844E+00  0.301418718E+00
     4
 # iter = 40500  time[fs]=40.50000
   C -0.332861993E+01  0.795653819E-01  0.123184321E+00
   C  0.317764505E+01 -0.135894066E-01  0.421157511E-01
   H -0.163221643E+02  0.109982434E+01 -0.612391926E+00
   H  0.158981798E+02 -0.659428728E+00  0.308220561E+00
     4
 # iter = 41000  time[fs]=41.00000
   C -0.341699787E+01  0.807111661E-01  0.125898299E+00
   C  0.326161724E+01 -0.142198759E-01  0.424039712E-01
   H -0.166878698E+02  0.112393535E+01 -0.626836660E+00
   H  0.162484429E+02 -0.674655882E+00  0.315028728E+00
     4
 # iter = 41500  time[fs]=41.50000
   C -0.350573383E+01  0.818611781E-01  0.128617706E+00
   C  0.334594627E+01 -0.148551010E-01  0.426874902E-01
   H -0.170538880E+02  0.114806829E+01 -0.641296223E+00
   H  0.165990324E+02 -0.689898644E+00  0.321842971E+00
     4
 # iter = 42000  time[fs]=42.00000
   C -0.359480982E+01  0.830151612E-01  0.131342297E+00
   C  0.343061422E+01 -0.154948026E-01  0.429665255E-01
   H -0.174202057E+02  0.117222229E+01 -0.655770023E+00
   H  0.169499350E+02 -0.705156392E+00  0.328663058E+00
     4
 # iter = 42500  time[fs]=42.50000
   C -0.368420915E+01  0.841728795E-01  0.134071840E+00
   C  0.351560440E+01 -0.161387233E-01  0.432412803E-01
   H -0.177868109E+02  0.119639649E+01 -0.670257502E+00
   H  0.173011382E+02 -0.720428537E+00  0.335488769E+00
     4
 # iter = 43000  time[fs]=43.00000
   C -0.377391624E+01  0.853341159E-01  0.136806117E+00
   C  0.360090129E+01 -0.167866261E-01  0.435119451E-01
   H -0.181536920E+02  0.122059011E+01 -0.684758135E+00
   H  0.176526301E+02 -0.735714529E+00  0.342319896E+00
     4
 # iter = 43500  time[fs]=43.50000
   C -0.386391657E+01  0.864986700E-01  0.139544926E+00
   C  0.368649038E+01 -0.174382921E-01  0.437786983E-01
   H -0.185208382E+02  0.124480239E+01 -0.699271425E+00
   H  0.180043996E+02 -0.751013844E+00  0.349156245E+00
     4
 # iter = 44000  time[fs]=44.00000
   C -0.395419659E+01  0.876663571E-01  0.142288075E+00
   C  0.377235815E+01 -0.180935187E-01  0.440417078E-01
   H -0.188882393E+02  0.126903264E+01 -0.713796904E+00
   H  0.183564361E+02 -0.766325991E+00  0.355997628E+00
     4
 # iter = 44500  time[fs]=44.50000
   C -0.404474361E+01  0.888370060E-01  0.145035384E+00
   C  0.385849194E+01 -0.187521182E-01  0.443011309E-01
   H -0.192558857E+02  0.129328019E+01 -0.728334131E+00
   H  0.187087296E+02 -0.781650504E+00  0.362843870E+00
     4
 # iter = 45000  time[fs]=45.00000
   C -0.413554576E+01  0.900104583E-01  0.147786684E+00
   C  0.394487989E+01 -0.194139166E-01  0.445571158E-01
   H -0.196237684E+02  0.131754441E+01 -0.742882686E+00
   H  0.190612709E+02 -0.796986942E+00  0.369694805E+00
     4
 # iter = 45500  time[fs]=45.50000
   C -0.422659189E+01  0.911865670E-01  0.150541815E+00
   C  0.403151090E+01 -0.200787521E-01  0.448098022E-01
   H -0.199918786E+02  0.134182470E+01 -0.757442173E+00
   H  0.194140509E+02 -0.812334887E+00  0.376550275E+00
     4
 # iter = 46000  time[fs]=46.00000
   C -0.431787155E+01  0.923651955E-01  0.153300629E+00
   C  0.411837454E+01 -0.207464740E-01  0.450593216E-01
   H -0.203602084E+02  0.136612051E+01 -0.772012216E+00
   H  0.197670613E+02 -0.827693944E+00  0.383410128E+00
     4
 # iter = 46500  time[fs]=46.50000
   C -0.440937494E+01  0.935462166E-01  0.156062981E+00
   C  0.420546102E+01 -0.214169422E-01  0.453057980E-01
   H -0.207287500E+02  0.139043129E+01 -0.786592457E+00
   H  0.201202941E+02 -0.843063736E+00  0.390274223E+00
     4
 # iter = 47000  time[fs]=47.00000
   C -0.450109281E+01  0.947295121E-01  0.158828739E+00
   C  0.429276112E+01 -0.220900257E-01  0.455493488E-01
   H -0.210974960E+02  0.141475654E+01 -0.801182558E+00
   H  0.204737417E+02 -0.858443905E+00  0.397142422E+00
     4
 # iter = 47500  time[fs]=47.50000
   C -0.459301646E+01  0.959149714E-01  0.161597775E+00
   C  0.438026616E+01 -0.227656023E-01  0.457900846E-01
   H -0.214664396E+02  0.143909578E+01 -0.815782196E+00
   H  0.208273969E+02 -0.873834113E+00  0.404014596E+00
     4
 # iter = 48000  time[fs]=48.00000
   C -0.468513769E+01  0.971024914E-01  0.164369970E+00
   C  0.446796797E+01 -0.234435574E-01  0.460281103E-01
   H -0.218355741E+02  0.146344855E+01 -0.830391065E+00
   H  0.211812528E+02 -0.889234036E+00  0.410890623E+00
     4
 # iter = 48500  time[fs]=48.50000
   C -0.477744878E+01  0.982919756E-01  0.167145209E+00
   C  0.455585884E+01 -0.241237840E-01  0.462635253E-01
   H -0.222048933E+02  0.148781442E+01 -0.845008871E+00
   H  0.215353029E+02 -0.904643366E+00  0.417770383E+00
     4
 # iter = 49000  time[fs]=49.00000
   C -0.486994241E+01  0.994833337E-01  0.169923384E+00
   C  0.464393148E+01 -0.248061815E-01  0.464964235E-01
   H -0.225743912E+02  0.151219296E+01 -0.859635337E+00
   H  0.218895411E+02 -0.920061810E+00  0.424653765E+00
     4
 # iter = 49500  time[fs]=49.50000
   C -0.496261167E+01  0.100676481E+00  0.172704394E+00
   C  0.473217899E+01 -0.254906558E-01  0.467268943E-01
   H -0.229440621E+02  0.153658379E+01 -0.874270197E+00
   H  0.222439613E+02 -0.935489087E+00  0.431540661E+00
     4
 # iter = 50000  time[fs]=50.00000
   C -0.505545004E+01  0.101871338E+00  0.175488140E+00
   C  0.482059487E+01 -0.261771181E-01  0.469550223E-01
   H -0.233139006E+02  0.156098652E+01 -0.888913197E+00
   H  0.225985581E+02 -0.950924930E+00  0.438430968E+00
     4
 # iter = 50500  time[fs]=50.50000
   C -0.514845132E+01  0.103067831E+00  0.178274531E+00
   C  0.490917294E+01 -0.268654851E-01  0.471808880E-01
   H -0.236839015E+02  0.158540080E+01 -0.903564095E+00
   H  0.229533258E+02 -0.966369084E+00  0.445324588E+00
     4
 # iter = 51000  time[fs]=51.00000
   C -0.524160964E+01  0.104265888E+00  0.181063478E+00
   C  0.499790735E+01 -0.275556782E-01  0.474045679E-01
   H -0.240540600E+02  0.160982628E+01 -0.918222660E+00
   H  0.233082596E+02 -0.981821305E+00  0.452221427E+00
     4
 # iter = 51500  time[fs]=51.50000
   C -0.533491945E+01  0.105465444E+00  0.183854898E+00
   C  0.508679256E+01 -0.282476235E-01  0.476261349E-01
   H -0.244243712E+02  0.163426262E+01 -0.932888669E+00
   H  0.236633543E+02 -0.997281359E+00  0.459121395E+00
     4
 # iter = 52000  time[fs]=52.00000
   C -0.542837545E+01  0.106666438E+00  0.186648711E+00
   C  0.517582329E+01 -0.289412511E-01  0.478456582E-01
   H -0.247948307E+02  0.165870953E+01 -0.947561911E+00
   H  0.240186054E+02 -0.101274902E+01  0.466024405E+00
     4
 # iter = 52500  time[fs]=52.50000
   C -0.552197263E+01  0.107868809E+00  0.189444840E+00
   C  0.526499455E+01 -0.296364950E-01  0.480632040E-01
   H -0.251654342E+02  0.168316669E+01 -0.962242183E+00
   H  0.243740082E+02 -0.102822408E+01  0.472930375E+00
     4
 # iter = 53000  time[fs]=53.00000
   C -0.561570622E+01  0.109072503E+00  0.192243214E+00
   C  0.535430157E+01 -0.303332930E-01  0.482788352E-01
   H -0.255361775E+02  0.170763381E+01 -0.976929290E+00
   H  0.247295586E+02 -0.104370633E+01  0.479839225E+00
     4
 # iter = 53500  time[fs]=53.50000
   C -0.570957166E+01  0.110277467E+00  0.195043763E+00
   C  0.544373983E+01 -0.310315861E-01  0.484926119E-01
   H -0.259070567E+02  0.173211063E+01 -0.991623046E+00
   H  0.250852524E+02 -0.105919558E+01  0.486750878E+00
     4
 # iter = 54000  time[fs]=54.00000
   C -0.580356464E+01  0.111483652E+00  0.197846420E+00
   C  0.553330501E+01 -0.317313183E-01  0.487045915E-01
   H -0.262780680E+02  0.175659687E+01 -0.100632327E+01
   H  0.254410855E+02 -0.107469162E+01  0.493665262E+00
     4
 # iter = 54500  time[fs]=54.50000
   C -0.589768103E+01  0.112691011E+00  0.200651123E+00
   C  0.562299301E+01 -0.324324368E-01  0.489148288E-01
   H -0.266492077E+02  0.178109228E+01 -0.102102979E+01
   H  0.257970544E+02 -0.109019430E+01  0.500582306E+00
     4
 # iter = 55000  time[fs]=55.00000
   C -0.599191690E+01  0.113899500E+00  0.203457810E+00
   C  0.571279991E+01 -0.331348913E-01  0.491233762E-01
   H -0.270204725E+02  0.180559662E+01 -0.103574245E+01
   H  0.261531551E+02 -0.110570342E+01  0.507501942E+00
     4
 # iter = 55500  time[fs]=55.50000
   C -0.608626850E+01  0.115109077E+00  0.206266425E+00
   C  0.580272197E+01 -0.338386342E-01  0.493302838E-01
   H -0.273918589E+02  0.183010965E+01 -0.105046108E+01
   H  0.265093844E+02 -0.112121882E+01  0.514424104E+00
     4
 # iter = 56000  time[fs]=56.00000
   C -0.618073225E+01  0.116319701E+00  0.209076911E+00
   C  0.589275561E+01 -0.345436203E-01  0.495355996E-01
   H -0.277633637E+02  0.185463114E+01 -0.106518553E+01
   H  0.268657388E+02 -0.113674035E+01  0.521348731E+00
     4
 # iter = 56500  time[fs]=56.50000
   C -0.627530472E+01  0.117531335E+00  0.211889215E+00
   C  0.598289743E+01 -0.352498064E-01  0.497393696E-01
   H -0.281349839E+02  0.187916088E+01 -0.107991565E+01
   H  0.272222150E+02 -0.115226784E+01  0.528275761E+00
     4
 # iter = 57000  time[fs]=57.00000
   C -0.636998264E+01  0.118743943E+00  0.214703287E+00
   C  0.607314417E+01 -0.359571517E-01  0.499416377E-01
   H -0.285067164E+02  0.190369866E+01 -0.109465130E+01
   H  0.275788101E+02 -0.116780115E+01  0.535205137E+00
     4
 # iter = 57500  time[fs]=57.50000
   C -0.646476288E+01  0.119957491E+00  0.217519078E+00
   C  0.616349271E+01 -0.366656171E-01  0.501424462E-01
   H -0.288785584E+02  0.192824428E+01 -0.110939236E+01
   H  0.279355209E+02 -0.118334013E+01  0.542136802E+00
     4
 # iter = 58000  time[fs]=58.00000
   C -0.655964245E+01  0.121171946E+00  0.220336540E+00
   C  0.625394006E+01 -0.373751656E-01  0.503418356E-01
   H -0.292505072E+02  0.195279755E+01 -0.112413867E+01
   H  0.282923446E+02 -0.119888465E+01  0.549070702E+00
     4
 # iter = 58500  time[fs]=58.50000
   C -0.665461847E+01  0.122387277E+00  0.223155629E+00
   C  0.634448337E+01 -0.380857616E-01  0.505398448E-01
   H -0.296225602E+02  0.197735827E+01 -0.113889013E+01
   H  0.286492784E+02 -0.121443457E+01  0.556006784E+00
     4
 # iter = 59000  time[fs]=59.00000
   C -0.674968819E+01  0.123603455E+00  0.225976301E+00
   C  0.643511988E+01 -0.387973716E-01  0.507365110E-01
   H -0.299947146E+02  0.200192628E+01 -0.115364660E+01
   H  0.290063197E+02 -0.122998976E+01  0.562944999E+00
     4
 # iter = 59500  time[fs]=59.50000
   C -0.684484897E+01  0.124820452E+00  0.228798515E+00
   C  0.652584698E+01 -0.395099631E-01  0.509318701E-01
   H -0.303669682E+02  0.202650139E+01 -0.116840798E+01
   H  0.293634658E+02 -0.124555010E+01  0.569885297E+00
     4
 # iter = 60000  time[fs]=60.00000
   C -0.694009829E+01  0.126038240E+00  0.231622230E+00
   C  0.661666215E+01 -0.402235055E-01  0.511259566E-01
   H -0.307393186E+02  0.205108344E+01 -0.118317414E+01
   H  0.297207144E+02 -0.126111548E+01  0.576827632E+00
     4
 # iter = 60500  time[fs]=60.50000
   C -0.703543372E+01  0.127256794E+00  0.234447409E+00
   C  0.670756296E+01 -0.409379692E-01  0.513188035E-01
   H -0.311117633E+02  0.207567227E+01 -0.119794497E+01
   H  0.300780628E+02 -0.127668577E+01  0.583771958E+00
     4
 # iter = 61000  time[fs]=61.00000
   C -0.713085292E+01  0.128476090E+00  0.237274014E+00
   C  0.679854709E+01 -0.416533262E-01  0.515104429E-01
   H -0.314843003E+02  0.210026772E+01 -0.121272038E+01
   H  0.304355090E+02 -0.129226086E+01  0.590718231E+00
     4
 # iter = 61500  time[fs]=61.50000
   C -0.722635365E+01  0.129696104E+00  0.240102010E+00
   C  0.688961231E+01 -0.423695496E-01  0.517009054E-01
   H -0.318569275E+02  0.212486965E+01 -0.122750025E+01
   H  0.307930506E+02 -0.130784064E+01  0.597666408E+00
     4
 # iter = 62000  time[fs]=62.00000
   C -0.732193375E+01  0.130916814E+00  0.242931361E+00
   C  0.698075647E+01 -0.430866135E-01  0.518902205E-01
   H -0.322296427E+02  0.214947790E+01 -0.124228449E+01
   H  0.311506854E+02 -0.132342502E+01  0.604616448E+00
     4
 # iter = 62500  time[fs]=62.50000
   C -0.741759116E+01  0.132138199E+00  0.245762036E+00
   C  0.707197752E+01 -0.438044933E-01  0.520784168E-01
   H -0.326024439E+02  0.217409233E+01 -0.125707300E+01
   H  0.315084114E+02 -0.133901389E+01  0.611568312E+00
     4
 # iter = 63000  time[fs]=63.00000
   C -0.751332389E+01  0.133360237E+00  0.248594002E+00
   C  0.716327346E+01 -0.445231653E-01  0.522655216E-01
   H -0.329753293E+02  0.219871282E+01 -0.127186570E+01
   H  0.318662265E+02 -0.135460715E+01  0.618521961E+00
     4
 # iter = 63500  time[fs]=63.50000
   C -0.760913001E+01  0.134582910E+00  0.251427228E+00
   C  0.725464238E+01 -0.452426068E-01  0.524515614E-01
   H -0.333482970E+02  0.222333923E+01 -0.128666249E+01
   H  0.322241289E+02 -0.137020470E+01  0.625477358E+00
     4
 # iter = 64000  time[fs]=64.00000
   C -0.770500767E+01  0.135806199E+00  0.254261684E+00
   C  0.734608245E+01 -0.459627961E-01  0.526365619E-01
   H -0.337213452E+02  0.224797143E+01 -0.130146328E+01
   H  0.325821165E+02 -0.138580647E+01  0.632434465E+00
     4
 # iter = 64500  time[fs]=64.50000
   C -0.780095509E+01  0.137030085E+00  0.257097343E+00
   C  0.743759188E+01 -0.466837122E-01  0.528205475E-01
   H -0.340944721E+02  0.227260929E+01 -0.131626799E+01
   H  0.329401876E+02 -0.140141235E+01  0.639393249E+00
     4
 # iter = 65000  time[fs]=65.00000
   C -0.789697056E+01  0.138254552E+00  0.259934175E+00
   C  0.752916898E+01 -0.474053351E-01  0.530035421E-01
   H -0.344676761E+02  0.229725271E+01 -0.133107654E+01
   H  0.332983404E+02 -0.141702226E+01  0.646353675E+00
     4
 # iter = 65500  time[fs]=65.50000
   C -0.799305243E+01  0.139479582E+00  0.262772155E+00
   C  0.762081209E+01 -0.481276455E-01  0.531855686E-01
   H -0.348409555E+02  0.232190156E+01 -0.134588885E+01
   H  0.336565732E+02 -0.143263612E+01  0.653315711E+00
     4
 # iter = 66000  time[fs]=66.00000
   C -0.808919909E+01  0.140705161E+00  0.265611256E+00
   C  0.771251963E+01 -0.488506249E-01  0.533666493E-01
   H -0.352143087E+02  0.234655573E+01 -0.136070484E+01
   H  0.340148843E+02 -0.144825385E+01  0.660279324E+00
     4
 # iter = 66500  time[fs]=66.50000
   C -0.818540900E+01  0.141931271E+00  0.268451453E+00
   C  0.780429005E+01 -0.495742554E-01  0.535468056E-01
   H -0.355877343E+02  0.237121511E+01 -0.137552444E+01
   H  0.343732721E+02 -0.146387537E+01  0.667244482E+00
     4
 # iter = 67000  time[fs]=67.00000
   C -0.828168068E+01  0.143157900E+00  0.271292723E+00
   C  0.789612188E+01 -0.502985200E-01  0.537260582E-01
   H -0.359612307E+02  0.239587960E+01 -0.139034758E+01
   H  0.347317351E+02 -0.147950061E+01  0.674211157E+00
     4
 # iter = 67500  time[fs]=67.50000
   C -0.837801269E+01  0.144385033E+00  0.274135041E+00
   C  0.798801369E+01 -0.510234020E-01  0.539044272E-01
   H -0.363347966E+02  0.242054910E+01 -0.140517419E+01
   H  0.350902716E+02 -0.149512949E+01  0.681179319E+00
     4
 # iter = 68000  time[fs]=68.00000
   C -0.847440365E+01  0.145612655E+00  0.276978385E+00
   C  0.807996410E+01 -0.517488856E-01  0.540819321E-01
   H -0.367084304E+02  0.244522351E+01 -0.142000420E+01
   H  0.354488804E+02 -0.151076193E+01  0.688148939E+00
     4
 # iter = 68500  time[fs]=68.50000
   C -0.857085220E+01  0.146840755E+00  0.279822734E+00
   C  0.817197176E+01 -0.524749556E-01  0.542585914E-01
   H -0.370821309E+02  0.246990272E+01 -0.143483754E+01
   H  0.358075598E+02 -0.152639788E+01  0.695119990E+00
     4
 # iter = 69000  time[fs]=69.00000
   C -0.866735705E+01  0.148069320E+00  0.282668065E+00
   C  0.826403540E+01 -0.532015971E-01  0.544344236E-01
   H -0.374558967E+02  0.249458665E+01 -0.144967415E+01
   H  0.361663086E+02 -0.154203726E+01  0.702092444E+00
     4
 # iter = 69500  time[fs]=69.50000
   C -0.876391696E+01  0.149298336E+00  0.285514358E+00
   C  0.835615375E+01 -0.539287959E-01  0.546094461E-01
   H -0.378297266E+02  0.251927521E+01 -0.146451397E+01
   H  0.365251254E+02 -0.155768001E+01  0.709066276E+00
     4
 # iter = 70000  time[fs]=70.00000
   C -0.886053070E+01  0.150527794E+00  0.288361593E+00
   C  0.844832562E+01 -0.546565383E-01  0.547836761E-01
   H -0.382036193E+02  0.254396831E+01 -0.147935694E+01
   H  0.368840089E+02 -0.157332606E+01  0.716041461E+00
     4
 # iter = 70500  time[fs]=70.50000
   C -0.895719709E+01  0.151757681E+00  0.291209751E+00
   C  0.854054983E+01 -0.553848110E-01  0.549571301E-01
   H -0.385775736E+02  0.256866586E+01 -0.149420299E+01
   H  0.372429578E+02 -0.158897535E+01  0.723017973E+00
     4
 # iter = 71000  time[fs]=71.00000
   C -0.905391501E+01  0.152987987E+00  0.294058813E+00
   C  0.863282525E+01 -0.561136013E-01  0.551298241E-01
   H -0.389515884E+02  0.259336778E+01 -0.150905208E+01
   H  0.376019709E+02 -0.160462783E+01  0.729995789E+00
     4
 # iter = 71500  time[fs]=71.50000
   C -0.915068335E+01  0.154218700E+00  0.296908761E+00
   C  0.872515078E+01 -0.568428969E-01  0.553017736E-01
   H -0.393256624E+02  0.261807398E+01 -0.152390414E+01
   H  0.379610470E+02 -0.162028343E+01  0.736974886E+00
     4
 # iter = 72000  time[fs]=72.00000
   C -0.924750104E+01  0.155449812E+00  0.299759577E+00
   C  0.881752536E+01 -0.575726858E-01  0.554729938E-01
   H -0.396997947E+02  0.264278440E+01 -0.153875913E+01
   H  0.383201849E+02 -0.163594209E+01  0.743955240E+00
     4
 # iter = 72500  time[fs]=72.50000
   C -0.934436705E+01  0.156681313E+00  0.302611244E+00
   C  0.890994797E+01 -0.583029565E-01  0.556434992E-01
   H -0.400739841E+02  0.266749895E+01 -0.155361699E+01
   H  0.386793835E+02 -0.165160377E+01  0.750936829E+00
     4
 # iter = 73000  time[fs]=73.00000
   C -0.944128037E+01  0.157913192E+00  0.305463745E+00
   C  0.900241759E+01 -0.590336979E-01  0.558133041E-01
   H -0.404482296E+02  0.269221756E+01 -0.156847766E+01
   H  0.390386417E+02 -0.166726841E+01  0.757919632E+00
     4
 # iter = 73500  time[fs]=73.50000
   C -0.953824004E+01  0.159145441E+00  0.308317064E+00
   C  0.909493328E+01 -0.597648992E-01  0.559824223E-01
   H -0.408225302E+02  0.271694016E+01 -0.158334111E+01
   H  0.393979584E+02 -0.168293595E+01  0.764903628E+00
     4
 # iter = 74000  time[fs]=74.00000
   C -0.963524510E+01  0.160378051E+00  0.311171186E+00
   C  0.918749408E+01 -0.604965500E-01  0.561508671E-01
   H -0.411968849E+02  0.274166667E+01 -0.159820728E+01
   H  0.397573325E+02 -0.169860634E+01  0.771888797E+00
     4
 # iter = 74500  time[fs]=74.50000
   C -0.973229465E+01  0.161611013E+00  0.314026095E+00
   C  0.928009909E+01 -0.612286402E-01  0.563186515E-01
   H -0.415712927E+02  0.276639703E+01 -0.161307612E+01
   H  0.401167631E+02 -0.171427955E+01  0.778875118E+00
     4
 # iter = 75000  time[fs]=75.00000
   C -0.982938780E+01  0.162844320E+00  0.316881776E+00
   C  0.937274742E+01 -0.619611601E-01  0.564857883E-01
   H -0.419457526E+02  0.279113117E+01 -0.162794758E+01
   H  0.404762492E+02 -0.172995550E+01  0.785862571E+00
     4
 # iter = 75500  time[fs]=75.50000
   C -0.992652367E+01  0.164077964E+00  0.319738215E+00
   C  0.946543821E+01 -0.626941003E-01  0.566522896E-01
   H -0.423202639E+02  0.281586903E+01 -0.164282163E+01
   H  0.408357897E+02 -0.174563417E+01  0.792851140E+00
     4
 # iter = 76000  time[fs]=76.00000
   C -0.100237014E+02  0.165311936E+00  0.322595398E+00
   C  0.955817064E+01 -0.634274515E-01  0.568181674E-01
   H -0.426948255E+02  0.284061053E+01 -0.165769822E+01
   H  0.411953838E+02 -0.176131550E+01  0.799840803E+00
     4
 # iter = 76500  time[fs]=76.50000
   C -0.101209203E+02  0.166546229E+00  0.325453311E+00
   C  0.965094389E+01 -0.641612050E-01  0.569834333E-01
   H -0.430694366E+02  0.286535563E+01 -0.167257731E+01
   H  0.415550306E+02 -0.177699945E+01  0.806831544E+00
     4
 # iter = 77000  time[fs]=77.00000
   C -0.102181794E+02  0.167780837E+00  0.328311940E+00
   C  0.974375717E+01 -0.648953521E-01  0.571480986E-01
   H -0.434440964E+02  0.289010426E+01 -0.168745885E+01
   H  0.419147291E+02 -0.179268598E+01  0.813823346E+00
     4
 # iter = 77500  time[fs]=77.50000
   C -0.103154781E+02  0.169015752E+00  0.331171274E+00
   C  0.983660973E+01 -0.656298845E-01  0.573121744E-01
   H -0.438188041E+02  0.291485636E+01 -0.170234280E+01
   H  0.422744784E+02 -0.180837504E+01  0.820816190E+00
     4
 # iter = 78000  time[fs]=78.00000
   C -0.104128156E+02  0.170250967E+00  0.334031299E+00
   C  0.992950081E+01 -0.663647942E-01  0.574756712E-01
   H -0.441935588E+02  0.293961187E+01 -0.171722914E+01
   H  0.426342778E+02 -0.182406658E+01  0.827810060E+00
     4
 # iter = 78500  time[fs]=78.50000
   C -0.105101911E+02  0.171486476E+00  0.336892003E+00
   C  0.100224297E+02 -0.671000733E-01  0.576385995E-01
   H -0.445683597E+02  0.296437073E+01 -0.173211780E+01
   H  0.429941264E+02 -0.183976058E+01  0.834804940E+00
     4
 # iter = 79000  time[fs]=79.00000
   C -0.106076039E+02  0.172722272E+00  0.339753374E+00
   C  0.101153957E+02 -0.678357143E-01  0.578009694E-01
   H -0.449432062E+02  0.298913291E+01 -0.174700877E+01
   H  0.433540234E+02 -0.185545699E+01  0.841800814E+00
     4
 # iter = 79500  time[fs]=79.50000
   C -0.107050534E+02  0.173958350E+00  0.342615401E+00
   C  0.102083981E+02 -0.685717097E-01  0.579627908E-01
   H -0.453180974E+02  0.301389833E+01 -0.176190200E+01
   H  0.437139680E+02 -0.187115577E+01  0.848797666E+00
     4
 # iter = 80000  time[fs]=80.00000
   C -0.108025389E+02  0.175194703E+00  0.345478072E+00
   C  0.103014363E+02 -0.693080525E-01  0.581240732E-01
   H -0.456930326E+02  0.303866694E+01 -0.177679746E+01
   H  0.440739594E+02 -0.188685689E+01  0.855795481E+00
