     4
 # iter = 25000  time[fs]=25.00000
   C -0.977117260E+00 -0.444458085E-01  0.124616096E-01
   C  0.104313770E+01  0.450535706E-01  0.215406351E-01
   H -0.524388191E+01  0.436468638E+00 -0.509874522E+00
   H  0.536387252E+01 -0.706914596E+00  0.548875347E+00
     4
 # iter = 25500  time[fs]=25.50000
   C -0.102283002E+01 -0.464815787E-01  0.143747255E-01
   C  0.108946057E+01  0.493696081E-01  0.206733691E-01
   H -0.557541956E+01  0.467932910E+00 -0.543680084E+00
   H  0.568314858E+01 -0.751178139E+00  0.582584146E+00
     4
 # iter = 26000  time[fs]=26.00000
   C -0.107099967E+01 -0.486405767E-01  0.162913398E-01
   C  0.113824720E+01  0.538186966E-01  0.198034254E-01
   H -0.590960107E+01  0.499656048E+00 -0.577774581E+00
   H  0.600498606E+01 -0.795818425E+00  0.616572031E+00
     4
 # iter = 26500  time[fs]=26.50000
   C -0.112141804E+01 -0.509142034E-01  0.182139991E-01
   C  0.118928767E+01  0.583912805E-01  0.189280451E-01
   H -0.624613124E+01  0.531609804E+00 -0.612125966E+00
   H  0.632911065E+01 -0.840795730E+00  0.650809505E+00
     4
 # iter = 27000  time[fs]=27.00000
   C -0.117389382E+01 -0.532943449E-01  0.201446386E-01
   C  0.124238937E+01  0.630784201E-01  0.180451315E-01
   H -0.658476077E+01  0.563770312E+00 -0.646707210E+00
   H  0.665528893E+01 -0.886076278E+00  0.685271474E+00
     4
 # iter = 27500  time[fs]=27.50000
   C -0.122825238E+01 -0.557734009E-01  0.220846844E-01
   C  0.129737663E+01  0.678717981E-01  0.171531350E-01
   H -0.692527728E+01  0.596117227E+00 -0.681495308E+00
   H  0.698332073E+01 -0.931631119E+00  0.719936416E+00
     4
 # iter = 28000  time[fs]=28.00000
   C -0.128433501E+01 -0.583442949E-01  0.240351465E-01
   C  0.135408997E+01  0.727637113E-01  0.162509501E-01
   H -0.726749854E+01  0.628633063E+00 -0.716470526E+00
   H  0.731303323E+01 -0.977435249E+00  0.754785744E+00
     4
 # iter = 28500  time[fs]=28.50000
   C -0.134199795E+01 -0.610004686E-01  0.259967018E-01
   C  0.141238501E+01  0.777470511E-01  0.153378255E-01
   H -0.761126702E+01  0.661302686E+00 -0.751615810E+00
   H  0.764427623E+01 -0.102346693E+01  0.789803293E+00
     4
 # iter = 29000  time[fs]=29.00000
   C -0.140111121E+01 -0.637358664E-01  0.279697637E-01
   C  0.147213128E+01  0.828152757E-01  0.144132902E-01
   H -0.795644575E+01  0.694112904E+00 -0.786916323E+00
   H  0.797691847E+01 -0.106970713E+01  0.824974924E+00
     4
 # iter = 29500  time[fs]=29.50000
   C -0.146155742E+01 -0.665449113E-01  0.299545399E-01
   C  0.153321105E+01  0.879623771E-01  0.134770908E-01
   H -0.830291486E+01  0.727052154E+00 -0.822359080E+00
   H  0.831084458E+01 -0.111613912E+01  0.860288194E+00
     4
 # iter = 30000  time[fs]=30.00000
   C -0.152323061E+01 -0.694224771E-01  0.319510801E-01
   C  0.159551805E+01  0.931828450E-01  0.125291420E-01
   H -0.865056892E+01  0.760110241E+00 -0.857932652E+00
   H  0.864595265E+01 -0.116274809E+01  0.895732106E+00
     4
 # iter = 30500  time[fs]=30.50000
   C -0.158603514E+01 -0.723638575E-01  0.339593140E-01
   C  0.165895640E+01  0.984716294E-01  0.115694861E-01
   H -0.899931475E+01  0.793278133E+00 -0.893626931E+00
   H  0.898215226E+01 -0.120952090E+01  0.931296885E+00
     4
 # iter = 31000  time[fs]=31.00000
   C -0.164988460E+01 -0.753647348E-01  0.359790813E-01
   C  0.172343953E+01  0.103824104E+00  0.105982610E-01
   H -0.934906957E+01  0.826547790E+00 -0.929432928E+00
   H  0.931936283E+01 -0.125644578E+01  0.966973811E+00
     4
 # iter = 31500  time[fs]=31.50000
   C -0.171470088E+01 -0.784211491E-01  0.380101564E-01
   C  0.178888917E+01  0.109236031E+00  0.961567522E-02
   H -0.969975957E+01  0.859912021E+00 -0.965342623E+00
   H  0.965751223E+01 -0.130351223E+01  0.100275507E+01
     4
 # iter = 32000  time[fs]=32.00000
   C -0.178041330E+01 -0.815294679E-01  0.400522668E-01
   C  0.185523452E+01  0.114703525E+00  0.862198772E-02
   H -0.100513186E+02  0.893364374E+00 -0.100134882E+01
   H  0.999653570E+01 -0.135071075E+01  0.103863363E+01
     4
 # iter = 32500  time[fs]=32.50000
   C -0.184695778E+01 -0.846863579E-01  0.421051076E-01
   C  0.192241144E+01  0.120223026E+00  0.761749266E-02
   H -0.104036873E+02  0.926899033E+00 -0.103744506E+01
   H  0.103363749E+02 -0.139803281E+01  0.107460315E+01
     4
 # iter = 33000  time[fs]=33.00000
   C -0.191427619E+01 -0.878887589E-01  0.441683535E-01
   C  0.199036171E+01  0.125791266E+00  0.660250736E-02
   H -0.107568120E+02  0.960510739E+00 -0.107362548E+01
   H  0.106769769E+02 -0.144547064E+01  0.111065788E+01
     4
 # iter = 33500  time[fs]=33.50000
   C -0.198231568E+01 -0.911338587E-01  0.462416670E-01
   C  0.205903245E+01  0.131405242E+00  0.557736305E-02
   H -0.111106441E+02  0.994194722E+00 -0.110988480E+01
   H  0.110182939E+02 -0.149301720E+01  0.114679261E+01
     4
 # iter = 34000  time[fs]=34.00000
   C -0.205102815E+01 -0.944190709E-01  0.483247056E-01
   C  0.212837549E+01  0.137062196E+00  0.454239787E-02
   H -0.114651398E+02  0.102794664E+01 -0.114621821E+01
   H  0.113602823E+02 -0.154066608E+01  0.118300257E+01
     4
 # iter = 34500  time[fs]=34.50000
   C -0.212036972E+01 -0.977420144E-01  0.504171261E-01
   C  0.219834695E+01  0.142759586E+00  0.349795147E-02
   H -0.118202588E+02  0.106176254E+01 -0.118262131E+01
   H  0.117029023E+02 -0.158841140E+01  0.121928342E+01
     4
 # iter = 35000  time[fs]=35.00000
   C -0.219030032E+01 -0.101100495E+00  0.525185892E-01
   C  0.226890673E+01  0.148495072E+00  0.244436103E-02
   H -0.121759645E+02  0.109563879E+01 -0.121909010E+01
   H  0.120461176E+02 -0.163624778E+01  0.125563118E+01
     4
 # iter = 35500  time[fs]=35.50000
   C -0.226078328E+01 -0.104492486E+00  0.546287618E-01
   C  0.234001816E+01  0.154266495E+00  0.138195828E-02
   H -0.125322235E+02  0.112957206E+01 -0.125562092E+01
   H  0.123898948E+02 -0.168417029E+01  0.129204219E+01
     4
 # iter = 36000  time[fs]=36.00000
   C -0.233178501E+01 -0.107916119E+00  0.567473188E-01
   C  0.241164762E+01  0.160071858E+00  0.311067398E-03
   H -0.128890050E+02  0.116355930E+01 -0.129221037E+01
   H  0.127342033E+02 -0.173217436E+01  0.132851308E+01
     4
 # iter = 36500  time[fs]=36.50000
   C -0.240327466E+01 -0.111369661E+00  0.588739451E-01
   C  0.248376426E+01  0.165909316E+00 -0.767996573E-03
   H -0.132462806E+02  0.119759769E+01 -0.132885536E+01
   H  0.130790147E+02 -0.178025580E+01  0.136504076E+01
     4
 # iter = 37000  time[fs]=37.00000
   C -0.247522385E+01 -0.114851511E+00  0.610083360E-01
   C  0.255633971E+01  0.171777159E+00 -0.185492869E-02
   H -0.136040244E+02  0.123168462E+01 -0.136555302E+01
   H  0.134243030E+02 -0.182841072E+01  0.140162235E+01
     4
 # iter = 37500  time[fs]=37.50000
   C -0.254760645E+01 -0.118360181E+00  0.631501979E-01
   C  0.262934785E+01  0.177673803E+00 -0.294943478E-02
   H -0.139622123E+02  0.126581769E+01 -0.140230069E+01
   H  0.137700441E+02 -0.187663553E+01  0.143825519E+01
     4
 # iter = 38000  time[fs]=38.00000
   C -0.262039837E+01 -0.121894293E+00  0.652992486E-01
   C  0.270276459E+01  0.183597774E+00 -0.405123178E-02
   H -0.143208220E+02  0.129999466E+01 -0.143909592E+01
   H  0.141162157E+02 -0.192492688E+01  0.147493681E+01
     4
 # iter = 38500  time[fs]=38.50000
   C -0.269357733E+01 -0.125452562E+00  0.674552175E-01
   C  0.277656764E+01  0.189547704E+00 -0.516004790E-02
   H -0.146798327E+02  0.133421346E+01 -0.147593644E+01
   H  0.144627970E+02 -0.197328166E+01  0.151166493E+01
     4
 # iter = 39000  time[fs]=39.00000
   C -0.276712271E+01 -0.129033796E+00  0.696178453E-01
   C  0.285073643E+01  0.195522319E+00 -0.627562257E-02
   H -0.150392254E+02  0.136847214E+01 -0.151282011E+01
   H  0.148097686E+02 -0.202169698E+01  0.154843740E+01
     4
 # iter = 39500  time[fs]=39.50000
   C -0.284101543E+01 -0.132636880E+00  0.717868840E-01
   C  0.292525185E+01  0.201520430E+00 -0.739770629E-02
   H -0.153989822E+02  0.140276892E+01 -0.154974497E+01
   H  0.151571126E+02 -0.207017014E+01  0.158525223E+01
     4
 # iter = 40000  time[fs]=40.00000
   C -0.291523774E+01 -0.136260777E+00  0.739620964E-01
   C  0.300009618E+01  0.207540929E+00 -0.852606039E-02
   H -0.157590864E+02  0.143710211E+01 -0.158670916E+01
   H  0.155048123E+02 -0.211869862E+01  0.162210757E+01
     4
 # iter = 40500  time[fs]=40.50000
   C -0.298977317E+01 -0.139904516E+00  0.761432561E-01
   C  0.307525296E+01  0.213582779E+00 -0.966045675E-02
   H -0.161195224E+02  0.147147013E+01 -0.162371098E+01
   H  0.158528519E+02 -0.216728003E+01  0.165900166E+01
     4
 # iter = 41000  time[fs]=41.00000
   C -0.306460639E+01 -0.143567191E+00  0.783301468E-01
   C  0.315070687E+01  0.219645013E+00 -0.108006774E-01
   H -0.164802759E+02  0.150587151E+01 -0.166074880E+01
   H  0.162012168E+02 -0.221591219E+01  0.169593288E+01
     4
 # iter = 41500  time[fs]=41.50000
   C -0.313972310E+01 -0.147247951E+00  0.805225621E-01
   C  0.322644362E+01  0.225726721E+00 -0.119465142E-01
   H -0.168413331E+02  0.154030487E+01 -0.169782112E+01
   H  0.165498931E+02 -0.226459299E+01  0.173289969E+01
     4
 # iter = 42000  time[fs]=42.00000
   C -0.321510996E+01 -0.150946000E+00  0.827203050E-01
   C  0.330244989E+01  0.231827053E+00 -0.130977684E-01
   H -0.172026812E+02  0.157476891E+01 -0.173492652E+01
   H  0.168988681E+02 -0.231332049E+01  0.176990066E+01
     4
 # iter = 42500  time[fs]=42.50000
   C -0.329075451E+01 -0.154660591E+00  0.849231876E-01
   C  0.337871323E+01  0.237945211E+00 -0.142542501E-01
   H -0.175643084E+02  0.160926241E+01 -0.177206367E+01
   H  0.172481296E+02 -0.236209285E+01  0.180693443E+01
     4
 # iter = 43000  time[fs]=43.00000
   C -0.336664509E+01 -0.158391023E+00  0.871310303E-01
   C  0.345522199E+01  0.244080444E+00 -0.154157784E-01
   H -0.179262034E+02  0.164378422E+01 -0.180923130E+01
   H  0.175976661E+02 -0.241090833E+01  0.184399973E+01
     4
 # iter = 43500  time[fs]=43.50000
   C -0.344277077E+01 -0.162136634E+00  0.893436621E-01
   C  0.353196526E+01  0.250232044E+00 -0.165821802E-01
   H -0.182883556E+02  0.167833326E+01 -0.184642825E+01
   H  0.179474669E+02 -0.245976531E+01  0.188109535E+01
     4
 # iter = 44000  time[fs]=44.00000
   C -0.351912132E+01 -0.165896803E+00  0.915609196E-01
   C  0.360893281E+01  0.256399349E+00 -0.177532903E-01
   H -0.186507550E+02  0.171290850E+01 -0.188365339E+01
   H  0.182975220E+02 -0.250866224E+01  0.191822016E+01
     4
 # iter = 44500  time[fs]=44.50000
   C -0.359568711E+01 -0.169670946E+00  0.937826468E-01
   C  0.368611504E+01  0.262581730E+00 -0.189289510E-01
   H -0.190133922E+02  0.174750898E+01 -0.192090569E+01
   H  0.186478216E+02 -0.255759765E+01  0.195537309E+01
     4
 # iter = 45000  time[fs]=45.00000
   C -0.367245911E+01 -0.173458509E+00  0.960086948E-01
   C  0.376350292E+01  0.268778597E+00 -0.201090117E-01
   H -0.193762582E+02  0.178213379E+01 -0.195818413E+01
   H  0.189983568E+02 -0.260657017E+01  0.199255312E+01
     4
 # iter = 45500  time[fs]=45.50000
   C -0.374942881E+01 -0.177258971E+00  0.982389212E-01
   C  0.384108796E+01  0.274989392E+00 -0.212933283E-01
   H -0.197393448E+02  0.181678206E+01 -0.199548778E+01
   H  0.193491191E+02 -0.265557849E+01  0.202975930E+01
     4
 # iter = 46000  time[fs]=46.00000
   C -0.382658822E+01 -0.181071839E+00  0.100473190E+00
   C  0.391886217E+01  0.281213586E+00 -0.224817634E-01
   H -0.201026439E+02  0.185145297E+01 -0.203281576E+01
   H  0.197001002E+02 -0.270462137E+01  0.206699070E+01
     4
 # iter = 46500  time[fs]=46.50000
   C -0.390392977E+01 -0.184896648E+00  0.102711372E+00
   C  0.399681800E+01  0.287450680E+00 -0.236741853E-01
   H -0.204661481E+02  0.188614575E+01 -0.207016721E+01
   H  0.200512926E+02 -0.275369764E+01  0.210424648E+01
     4
 # iter = 47000  time[fs]=47.00000
   C -0.398144634E+01 -0.188732955E+00  0.104953342E+00
   C  0.407494835E+01  0.293700201E+00 -0.248704683E-01
   H -0.208298501E+02  0.192085965E+01 -0.210754134E+01
   H  0.204026890E+02 -0.280280617E+01  0.214152579E+01
     4
 # iter = 47500  time[fs]=47.50000
   C -0.405913120E+01 -0.192580344E+00  0.107198981E+00
   C  0.415324650E+01  0.299961702E+00 -0.260704919E-01
   H -0.211937432E+02  0.195559397E+01 -0.214493738E+01
   H  0.207542825E+02 -0.285194590E+01  0.217882788E+01
     4
 # iter = 48000  time[fs]=48.00000
   C -0.413697799E+01 -0.196438418E+00  0.109448177E+00
   C  0.423170608E+01  0.306234758E+00 -0.272741409E-01
   H -0.215578210E+02  0.199034806E+01 -0.218235461E+01
   H  0.211060664E+02 -0.290111583E+01  0.221615199E+01
     4
 # iter = 48500  time[fs]=48.50000
   C -0.421498068E+01 -0.200306800E+00  0.111700820E+00
   C  0.431032110E+01  0.312518964E+00 -0.284813051E-01
   H -0.219220773E+02  0.202512126E+01 -0.221979235E+01
   H  0.214580345E+02 -0.295031498E+01  0.225349742E+01
     4
 # iter = 49000  time[fs]=49.00000
   C -0.429313358E+01 -0.204185134E+00  0.113956806E+00
   C  0.438908585E+01  0.318813937E+00 -0.296918788E-01
   H -0.222865063E+02  0.205991299E+01 -0.225724993E+01
   H  0.218101810E+02 -0.299954245E+01  0.229086349E+01
     4
 # iter = 49500  time[fs]=49.50000
   C -0.437143127E+01 -0.208073079E+00  0.116216035E+00
   C  0.446799494E+01  0.325119314E+00 -0.309057607E-01
   H -0.226511025E+02  0.209472265E+01 -0.229472674E+01
   H  0.221625000E+02 -0.304879735E+01  0.232824956E+01
     4
 # iter = 50000  time[fs]=50.00000
   C -0.444986862E+01 -0.211970313E+00  0.118478411E+00
   C  0.454704326E+01  0.331434747E+00 -0.321228538E-01
   H -0.230158606E+02  0.212954971E+01 -0.233222217E+01
   H  0.225149863E+02 -0.309807886E+01  0.236565503E+01
     4
 # iter = 50500  time[fs]=50.50000
   C -0.452844076E+01 -0.215876529E+00  0.120743843E+00
   C  0.462622593E+01  0.337759907E+00 -0.333430650E-01
   H -0.233807755E+02  0.216439363E+01 -0.236973566E+01
   H  0.228676346E+02 -0.314738617E+01  0.240307931E+01
     4
 # iter = 51000  time[fs]=51.00000
   C -0.460714307E+01 -0.219791433E+00  0.123012243E+00
   C  0.470553834E+01  0.344094478E+00 -0.345663051E-01
   H -0.237458425E+02  0.219925392E+01 -0.240726667E+01
   H  0.232204401E+02 -0.319671852E+01  0.244052183E+01
     4
 # iter = 51500  time[fs]=51.50000
   C -0.468597114E+01 -0.223714747E+00  0.125283527E+00
   C  0.478497610E+01  0.350438161E+00 -0.357924883E-01
   H -0.241110570E+02  0.223413009E+01 -0.244481467E+01
   H  0.235733979E+02 -0.324607518E+01  0.247798207E+01
     4
 # iter = 52000  time[fs]=52.00000
   C -0.476492078E+01 -0.227646205E+00  0.127557612E+00
   C  0.486453503E+01  0.356790670E+00 -0.370215323E-01
   H -0.244764145E+02  0.226902169E+01 -0.248237918E+01
   H  0.239265038E+02 -0.329545546E+01  0.251545951E+01
     4
 # iter = 52500  time[fs]=52.50000
   C -0.484398801E+01 -0.231585551E+00  0.129834423E+00
   C  0.494421114E+01  0.363151731E+00 -0.382533581E-01
   H -0.248419109E+02  0.230392827E+01 -0.251995971E+01
   H  0.242797532E+02 -0.334485869E+01  0.255295367E+01
     4
 # iter = 53000  time[fs]=53.00000
   C -0.492316902E+01 -0.235532543E+00  0.132113883E+00
   C  0.502400065E+01  0.369521083E+00 -0.394878898E-01
   H -0.252075421E+02  0.233884942E+01 -0.255755582E+01
   H  0.246331422E+02 -0.339428422E+01  0.259046406E+01
     4
 # iter = 53500  time[fs]=53.50000
   C -0.500246018E+01 -0.239486951E+00  0.134395921E+00
   C  0.510389993E+01  0.375898478E+00 -0.407250543E-01
   H -0.255733044E+02  0.237378473E+01 -0.259516706E+01
   H  0.249866667E+02 -0.344373144E+01  0.262799026E+01
     4
 # iter = 54000  time[fs]=54.00000
   C -0.508185804E+01 -0.243448550E+00  0.136680468E+00
   C  0.518390554E+01  0.382283675E+00 -0.419647814E-01
   H -0.259391940E+02  0.240873382E+01 -0.263279302E+01
   H  0.253403231E+02 -0.349319977E+01  0.266553182E+01
     4
 # iter = 54500  time[fs]=54.50000
   C -0.516135929E+01 -0.247417130E+00  0.138967458E+00
   C  0.526401418E+01  0.388676448E+00 -0.432070036E-01
   H -0.263052074E+02  0.244369631E+01 -0.267043330E+01
   H  0.256941076E+02 -0.354268863E+01  0.270308833E+01
     4
 # iter = 55000  time[fs]=55.00000
   C -0.524096078E+01 -0.251392487E+00  0.141256825E+00
   C  0.534422270E+01  0.395076576E+00 -0.444516557E-01
   H -0.266713413E+02  0.247867185E+01 -0.270808752E+01
   H  0.260480167E+02 -0.359219749E+01  0.274065939E+01
     4
 # iter = 55500  time[fs]=55.50000
   C -0.532065948E+01 -0.255374426E+00  0.143548510E+00
   C  0.542452808E+01  0.401483851E+00 -0.456986753E-01
   H -0.270375923E+02  0.251366010E+01 -0.274575530E+01
   H  0.264020473E+02 -0.364172583E+01  0.277824463E+01
     4
 # iter = 56000  time[fs]=56.00000
   C -0.540045251E+01 -0.259362761E+00  0.145842452E+00
   C  0.550492745E+01  0.407898071E+00 -0.469480020E-01
   H -0.274039573E+02  0.254866072E+01 -0.278343629E+01
   H  0.267561960E+02 -0.369127313E+01  0.281584367E+01
     4
 # iter = 56500  time[fs]=56.50000
   C -0.548033711E+01 -0.263357313E+00  0.148138595E+00
   C  0.558541805E+01  0.414319044E+00 -0.481995776E-01
   H -0.277704334E+02  0.258367339E+01 -0.282113015E+01
   H  0.271104597E+02 -0.374083892E+01  0.285345616E+01
     4
 # iter = 57000  time[fs]=57.00000
   C -0.556031062E+01 -0.267357910E+00  0.150436883E+00
   C  0.566599724E+01  0.420746585E+00 -0.494533462E-01
   H -0.281370177E+02  0.261869783E+01 -0.285883656E+01
   H  0.274648355E+02 -0.379042274E+01  0.289108177E+01
     4
 # iter = 57500  time[fs]=57.50000
   C -0.564037050E+01 -0.271364388E+00  0.152737264E+00
   C  0.574666248E+01  0.427180515E+00 -0.507092538E-01
   H -0.285037073E+02  0.265373372E+01 -0.289655519E+01
   H  0.278193206E+02 -0.384002414E+01  0.292872016E+01
     4
 # iter = 58000  time[fs]=58.00000
   C -0.572051434E+01 -0.275376587E+00  0.155039685E+00
   C  0.582741136E+01  0.433620665E+00 -0.519672482E-01
   H -0.288704997E+02  0.268878080E+01 -0.293428574E+01
   H  0.281739122E+02 -0.388964268E+01  0.296637102E+01
     4
 # iter = 58500  time[fs]=58.50000
   C -0.580073978E+01 -0.279394356E+00  0.157344098E+00
   C  0.590824153E+01  0.440066870E+00 -0.532272791E-01
   H -0.292373922E+02  0.272383878E+01 -0.297202792E+01
   H  0.285286076E+02 -0.393927796E+01  0.300403405E+01
     4
 # iter = 59000  time[fs]=59.00000
   C -0.588104459E+01 -0.283417548E+00  0.159650455E+00
   C  0.598915078E+01  0.446518972E+00 -0.544892980E-01
   H -0.296043825E+02  0.275890741E+01 -0.300978145E+01
   H  0.288834044E+02 -0.398892957E+01  0.304170896E+01
     4
 # iter = 59500  time[fs]=59.50000
   C -0.596142662E+01 -0.287446024E+00  0.161958710E+00
   C  0.607013695E+01  0.452976820E+00 -0.557532580E-01
   H -0.299714680E+02  0.279398643E+01 -0.304754606E+01
   H  0.292383000E+02 -0.403859712E+01  0.307939546E+01
     4
 # iter = 60000  time[fs]=60.00000
   C -0.604188380E+01 -0.291479646E+00  0.164268819E+00
   C  0.615119797E+01  0.459440268E+00 -0.570191138E-01
   H -0.303386465E+02  0.282907560E+01 -0.308532148E+01
   H  0.295932920E+02 -0.408828025E+01  0.311709328E+01
     4
 # iter = 60500  time[fs]=60.50000
   C -0.612241414E+01 -0.295518286E+00  0.166580738E+00
   C  0.623233188E+01  0.465909174E+00 -0.582868217E-01
   H -0.307059159E+02  0.286417468E+01 -0.312310746E+01
   H  0.299483783E+02 -0.413797859E+01  0.315480216E+01
     4
 # iter = 61000  time[fs]=61.00000
   C -0.620301573E+01 -0.299561817E+00  0.168894426E+00
   C  0.631353676E+01  0.472383403E+00 -0.595563393E-01
   H -0.310732739E+02  0.289928344E+01 -0.316090375E+01
   H  0.303035566E+02 -0.418769179E+01  0.319252184E+01
     4
 # iter = 61500  time[fs]=61.50000
   C -0.628368674E+01 -0.303610119E+00  0.171209843E+00
   C  0.639481077E+01  0.478862825E+00 -0.608276257E-01
   H -0.314407184E+02  0.293440168E+01 -0.319871013E+01
   H  0.306588247E+02 -0.423741953E+01  0.323025209E+01
     4
 # iter = 62000  time[fs]=62.00000
   C -0.636442538E+01 -0.307663074E+00  0.173526950E+00
   C  0.647615216E+01  0.485347313E+00 -0.621006413E-01
   H -0.318082476E+02  0.296952916E+01 -0.323652635E+01
   H  0.310141807E+02 -0.428716147E+01  0.326799266E+01
     4
 # iter = 62500  time[fs]=62.50000
   C -0.644522997E+01 -0.311720571E+00  0.175845709E+00
   C  0.655755923E+01  0.491836746E+00 -0.633753479E-01
   H -0.321758594E+02  0.300466569E+01 -0.327435221E+01
   H  0.313696225E+02 -0.433691731E+01  0.330574332E+01
     4
 # iter = 63000  time[fs]=63.00000
   C -0.652609884E+01 -0.315782500E+00  0.178166085E+00
   C  0.663903033E+01  0.498331007E+00 -0.646517083E-01
   H -0.325435521E+02  0.303981107E+01 -0.331218749E+01
   H  0.317251482E+02 -0.438668674E+01  0.334350385E+01
     4
 # iter = 63500  time[fs]=63.50000
   C -0.660703043E+01 -0.319848757E+00  0.180488041E+00
   C  0.672056388E+01  0.504829983E+00 -0.659296867E-01
   H -0.329113238E+02  0.307496511E+01 -0.335003198E+01
   H  0.320807559E+02 -0.443646946E+01  0.338127405E+01
     4
 # iter = 64000  time[fs]=64.00000
   C -0.668802320E+01 -0.323919241E+00  0.182811544E+00
   C  0.680215837E+01  0.511333564E+00 -0.672092484E-01
   H -0.332791727E+02  0.311012763E+01 -0.338788548E+01
   H  0.324364439E+02 -0.448626519E+01  0.341905369E+01
     4
 # iter = 64500  time[fs]=64.50000
   C -0.676907568E+01 -0.327993855E+00  0.185136560E+00
   C  0.688381233E+01  0.517841644E+00 -0.684903595E-01
   H -0.336470973E+02  0.314529843E+01 -0.342574781E+01
   H  0.327922105E+02 -0.453607366E+01  0.345684259E+01
     4
 # iter = 65000  time[fs]=65.00000
   C -0.685018645E+01 -0.332072503E+00  0.187463058E+00
   C  0.696552433E+01  0.524354121E+00 -0.697729875E-01
   H -0.340150958E+02  0.318047735E+01 -0.346361876E+01
   H  0.331480539E+02 -0.458589459E+01  0.349464054E+01
     4
 # iter = 65500  time[fs]=65.50000
   C -0.693135414E+01 -0.336155094E+00  0.189791007E+00
   C  0.704729302E+01  0.530870898E+00 -0.710571008E-01
   H -0.343831666E+02  0.321566422E+01 -0.350149817E+01
   H  0.335039725E+02 -0.463572774E+01  0.353244736E+01
     4
 # iter = 66000  time[fs]=66.00000
   C -0.701257741E+01 -0.340241541E+00  0.192120377E+00
   C  0.712911706E+01  0.537391877E+00 -0.723426686E-01
   H -0.347513084E+02  0.325085887E+01 -0.353938586E+01
   H  0.338599647E+02 -0.468557285E+01  0.357026286E+01
     4
 # iter = 66500  time[fs]=66.50000
   C -0.709385500E+01 -0.344331757E+00  0.194451137E+00
   C  0.721099519E+01  0.543916967E+00 -0.736296612E-01
   H -0.351195195E+02  0.328606115E+01 -0.357728165E+01
   H  0.342160290E+02 -0.473542968E+01  0.360808687E+01
     4
 # iter = 67000  time[fs]=67.00000
   C -0.717518566E+01 -0.348425661E+00  0.196783261E+00
   C  0.729292617E+01  0.550446079E+00 -0.749180497E-01
   H -0.354877986E+02  0.332127090E+01 -0.361518539E+01
   H  0.345721639E+02 -0.478529799E+01  0.364591922E+01
     4
 # iter = 67500  time[fs]=67.50000
   C -0.725656819E+01 -0.352523171E+00  0.199116720E+00
   C  0.737490881E+01  0.556979126E+00 -0.762078061E-01
   H -0.358561442E+02  0.335648797E+01 -0.365309691E+01
   H  0.349283681E+02 -0.483517756E+01  0.368375974E+01
     4
 # iter = 68000  time[fs]=68.00000
   C -0.733800145E+01 -0.356624212E+00  0.201451489E+00
   C  0.745694195E+01  0.563516023E+00 -0.774989031E-01
   H -0.362245551E+02  0.339171223E+01 -0.369101605E+01
   H  0.352846400E+02 -0.488506816E+01  0.372160827E+01
     4
 # iter = 68500  time[fs]=68.50000
   C -0.741948430E+01 -0.360728707E+00  0.203787540E+00
   C  0.753902447E+01  0.570056690E+00 -0.787913145E-01
   H -0.365930298E+02  0.342694352E+01 -0.372894267E+01
   H  0.356409784E+02 -0.493496957E+01  0.375946464E+01
     4
 # iter = 69000  time[fs]=69.00000
   C -0.750101567E+01 -0.364836585E+00  0.206124849E+00
   C  0.762115531E+01  0.576601049E+00 -0.800850144E-01
   H -0.369615672E+02  0.346218171E+01 -0.376687663E+01
   H  0.359973819E+02 -0.498488160E+01  0.379732872E+01
     4
 # iter = 69500  time[fs]=69.50000
   C -0.758259450E+01 -0.368947774E+00  0.208463392E+00
   C  0.770333340E+01  0.583149022E+00 -0.813799779E-01
   H -0.373301660E+02  0.349742667E+01 -0.380481777E+01
   H  0.363538492E+02 -0.503480403E+01  0.383520035E+01
     4
 # iter = 70000  time[fs]=70.00000
   C -0.766421978E+01 -0.373062207E+00  0.210803144E+00
   C  0.778555774E+01  0.589700536E+00 -0.826761810E-01
   H -0.376988249E+02  0.353267827E+01 -0.384276596E+01
   H  0.367103792E+02 -0.508473666E+01  0.387307939E+01
     4
 # iter = 70500  time[fs]=70.50000
   C -0.774589053E+01 -0.377179817E+00  0.213144083E+00
   C  0.786782735E+01  0.596255519E+00 -0.839735999E-01
   H -0.380675430E+02  0.356793639E+01 -0.388072107E+01
   H  0.370669706E+02 -0.513467932E+01  0.391096569E+01
     4
 # iter = 71000  time[fs]=71.00000
   C -0.782760578E+01 -0.381300540E+00  0.215486187E+00
   C  0.795014128E+01  0.602813901E+00 -0.852722118E-01
   H -0.384363189E+02  0.360320089E+01 -0.391868297E+01
   H  0.374236222E+02 -0.518463180E+01  0.394885913E+01
     4
 # iter = 71500  time[fs]=71.50000
   C -0.790936463E+01 -0.385424313E+00  0.217829433E+00
   C  0.803249860E+01  0.609375615E+00 -0.865719944E-01
   H -0.388051517E+02  0.363847168E+01 -0.395665153E+01
   H  0.377803329E+02 -0.523459394E+01  0.398675956E+01
     4
 # iter = 72000  time[fs]=72.00000
   C -0.799116616E+01 -0.389551077E+00  0.220173800E+00
   C  0.811489842E+01  0.615940595E+00 -0.878729261E-01
   H -0.391740402E+02  0.367374862E+01 -0.399462663E+01
   H  0.381371017E+02 -0.528456554E+01  0.402466687E+01
     4
 # iter = 72500  time[fs]=72.50000
   C -0.807300951E+01 -0.393680771E+00  0.222519267E+00
   C  0.819733987E+01  0.622508778E+00 -0.891749858E-01
   H -0.395429834E+02  0.370903161E+01 -0.403260814E+01
   H  0.384939274E+02 -0.533454645E+01  0.406258092E+01
     4
 # iter = 73000  time[fs]=73.00000
   C -0.815489383E+01 -0.397813340E+00  0.224865816E+00
   C  0.827982212E+01  0.629080101E+00 -0.904781530E-01
   H -0.399119804E+02  0.374432054E+01 -0.407059596E+01
   H  0.388508090E+02 -0.538453650E+01  0.410050160E+01
     4
 # iter = 73500  time[fs]=73.50000
   C -0.823681831E+01 -0.401948728E+00  0.227213425E+00
   C  0.836234434E+01  0.635654505E+00 -0.917824077E-01
   H -0.402810301E+02  0.377961530E+01 -0.410858996E+01
   H  0.392077454E+02 -0.543453551E+01  0.413842879E+01
     4
 # iter = 74000  time[fs]=74.00000
   C -0.831878215E+01 -0.406086881E+00  0.229562076E+00
   C  0.844490575E+01  0.642231930E+00 -0.930877305E-01
   H -0.406501315E+02  0.381491580E+01 -0.414659005E+01
   H  0.395647358E+02 -0.548454334E+01  0.417636237E+01
     4
 # iter = 74500  time[fs]=74.50000
   C -0.840078458E+01 -0.410227746E+00  0.231911750E+00
   C  0.852750557E+01  0.648812321E+00 -0.943941024E-01
   H -0.410192838E+02  0.385022192E+01 -0.418459610E+01
   H  0.399217791E+02 -0.553455983E+01  0.421430223E+01
     4
 # iter = 75000  time[fs]=75.00000
   C -0.848282484E+01 -0.414371273E+00  0.234262430E+00
   C  0.861014306E+01  0.655395621E+00 -0.957015051E-01
   H -0.413884861E+02  0.388553357E+01 -0.422260802E+01
   H  0.402788744E+02 -0.558458483E+01  0.425224826E+01
     4
 # iter = 75500  time[fs]=75.50000
   C -0.856490222E+01 -0.418517412E+00  0.236614098E+00
   C  0.869281749E+01  0.661981778E+00 -0.970099206E-01
   H -0.417577374E+02  0.392085067E+01 -0.426062571E+01
   H  0.406360207E+02 -0.563461819E+01  0.429020035E+01
     4
 # iter = 76000  time[fs]=76.00000
   C -0.864701599E+01 -0.422666116E+00  0.238966737E+00
   C  0.877552816E+01  0.668570738E+00 -0.983193313E-01
   H -0.421270370E+02  0.395617310E+01 -0.429864906E+01
   H  0.409932173E+02 -0.568465977E+01  0.432815841E+01
     4
 # iter = 76500  time[fs]=76.50000
   C -0.872916547E+01 -0.426817336E+00  0.241320329E+00
   C  0.885827437E+01  0.675162452E+00 -0.996297202E-01
   H -0.424963839E+02  0.399150079E+01 -0.433667798E+01
   H  0.413504632E+02 -0.573470944E+01  0.436612233E+01
     4
 # iter = 77000  time[fs]=77.00000
   C -0.881135000E+01 -0.430971028E+00  0.243674859E+00
   C  0.894105546E+01  0.681756869E+00 -0.100941071E+00
   H -0.428657774E+02  0.402683364E+01 -0.437471238E+01
   H  0.417077576E+02 -0.578476705E+01  0.440409200E+01
     4
 # iter = 77500  time[fs]=77.50000
   C -0.889356892E+01 -0.435127147E+00  0.246030311E+00
   C  0.902387079E+01  0.688353941E+00 -0.102253367E+00
   H -0.432352166E+02  0.406217157E+01 -0.441275216E+01
   H  0.420650996E+02 -0.583483248E+01  0.444206734E+01
     4
 # iter = 78000  time[fs]=78.00000
   C -0.897582160E+01 -0.439285650E+00  0.248386670E+00
   C  0.910671972E+01  0.694953621E+00 -0.103566592E+00
   H -0.436047009E+02  0.409751450E+01 -0.445079723E+01
   H  0.424224885E+02 -0.588490560E+01  0.448004826E+01
     4
 # iter = 78500  time[fs]=78.50000
   C -0.905810741E+01 -0.443446495E+00  0.250743919E+00
   C  0.918960164E+01  0.701555864E+00 -0.104880731E+00
   H -0.439742294E+02  0.413286233E+01 -0.448884751E+01
   H  0.427799235E+02 -0.593498627E+01  0.451803465E+01
     4
 # iter = 79000  time[fs]=79.00000
   C -0.914042577E+01 -0.447609641E+00  0.253102045E+00
   C  0.927251595E+01  0.708160625E+00 -0.106195770E+00
   H -0.443438014E+02  0.416821501E+01 -0.452690291E+01
   H  0.431374038E+02 -0.598507439E+01  0.455602643E+01
     4
 # iter = 79500  time[fs]=79.50000
   C -0.922277609E+01 -0.451775048E+00  0.255461034E+00
   C  0.935546207E+01  0.714767861E+00 -0.107511693E+00
   H -0.447134162E+02  0.420357243E+01 -0.456496335E+01
   H  0.434949288E+02 -0.603516982E+01  0.459402352E+01
     4
 # iter = 80000  time[fs]=80.00000
   C -0.930515779E+01 -0.455942677E+00  0.257820870E+00
   C  0.943843943E+01  0.721377529E+00 -0.108828486E+00
   H -0.450830731E+02  0.423893454E+01 -0.460302875E+01
   H  0.438524975E+02 -0.608527246E+01  0.463202583E+01
