     4
 # iter = 25000  time[fs]=25.00000
   C -0.996537480E+00 -0.254184630E-01  0.360286645E-01
   C  0.972102790E+00 -0.152591522E-01 -0.376742109E-01
   H -0.526348114E+01 -0.350676849E+00  0.259300949E+00
   H  0.529957830E+01  0.441953287E+00  0.325816858E+00
     4
 # iter = 25500  time[fs]=25.50000
   C -0.104272266E+01 -0.255860033E-01  0.356720165E-01
   C  0.101402435E+01 -0.182612455E-01 -0.394351383E-01
   H -0.559809098E+01 -0.374472340E+00  0.271515839E+00
   H  0.561552680E+01  0.466633481E+00  0.346489452E+00
     4
 # iter = 26000  time[fs]=26.00000
   C -0.109257390E+01 -0.257612228E-01  0.354418417E-01
   C  0.105961742E+01 -0.212604026E-01 -0.413469583E-01
   H -0.593541585E+01 -0.398457421E+00  0.283851563E+00
   H  0.593412490E+01  0.491560183E+00  0.367334245E+00
     4
 # iter = 26500  time[fs]=26.50000
   C -0.114577701E+01 -0.259385966E-01  0.353246117E-01
   C  0.110856606E+01 -0.242616362E-01 -0.433934008E-01
   H -0.627515153E+01 -0.422611320E+00  0.296293318E+00
   H  0.625508941E+01  0.516706469E+00  0.388333139E+00
     4
 # iter = 27000  time[fs]=27.00000
   C -0.120203759E+01 -0.261138228E-01  0.353081445E-01
   C  0.116057455E+01 -0.272688151E-01 -0.455599854E-01
   H -0.661704158E+01 -0.446916516E+00  0.308828840E+00
   H  0.657817960E+01  0.542049628E+00  0.409470818E+00
     4
 # iter = 27500  time[fs]=27.50000
   C -0.126108340E+01 -0.262836319E-01  0.353815752E-01
   C  0.121536969E+01 -0.302848402E-01 -0.478339002E-01
   H -0.696086792E+01 -0.471358100E+00  0.321447856E+00
   H  0.690318918E+01  0.567570322E+00  0.430734191E+00
     4
 # iter = 28000  time[fs]=28.00000
   C -0.132266520E+01 -0.264456017E-01  0.355352771E-01
   C  0.127270149E+01 -0.333118165E-01 -0.502038547E-01
   H -0.730644363E+01 -0.495923273E+00  0.334141680E+00
   H  0.722994010E+01  0.593251950E+00  0.452111977E+00
     4
 # iter = 28500  time[fs]=28.50000
   C -0.138655645E+01 -0.265979924E-01  0.357607576E-01
   C  0.133234284E+01 -0.363512095E-01 -0.526599225E-01
   H -0.765360730E+01 -0.520600970E+00  0.346902906E+00
   H  0.755827768E+01  0.619080150E+00  0.473594378E+00
     4
 # iter = 29000  time[fs]=29.00000
   C -0.145255227E+01 -0.267396031E-01  0.360505446E-01
   C  0.139408845E+01 -0.394039806E-01 -0.551933869E-01
   H -0.800221864E+01 -0.545381556E+00  0.359725167E+00
   H  0.788806673E+01  0.645042419E+00  0.495172826E+00
     4
 # iter = 29500  time[fs]=29.50000
   C -0.152046802E+01 -0.268696535E-01  0.363980712E-01
   C  0.145775335E+01 -0.424707005E-01 -0.577965938E-01
   H -0.835215498E+01 -0.570256590E+00  0.372602952E+00
   H  0.821918842E+01  0.671127798E+00  0.516839783E+00
     4
 # iter = 30000  time[fs]=30.00000
   C -0.159013768E+01 -0.269876864E-01  0.367975678E-01
   C  0.152317128E+01 -0.455516411E-01 -0.604628175E-01
   H -0.870330846E+01 -0.595218639E+00  0.385531462E+00
   H  0.855153779E+01  0.697326628E+00  0.538588578E+00
     4
 # iter = 30500  time[fs]=30.50000
   C -0.166141214E+01 -0.270934900E-01  0.372439619E-01
   C  0.159019296E+01 -0.486468501E-01 -0.631861409E-01
   H -0.905558376E+01 -0.620261114E+00  0.398506490E+00
   H  0.888502167E+01  0.723630356E+00  0.560413281E+00
     4
 # iter = 31000  time[fs]=31.00000
   C -0.173415753E+01 -0.271870368E-01  0.377327886E-01
   C  0.165868437E+01 -0.517562088E-01 -0.659613484E-01
   H -0.940889620E+01 -0.645378158E+00  0.411524329E+00
   H  0.921955699E+01  0.750031366E+00  0.582308591E+00
     4
 # iter = 31500  time[fs]=31.50000
   C -0.180825363E+01 -0.272684352E-01  0.382601116E-01
   C  0.172852521E+01 -0.548794779E-01 -0.687838338E-01
   H -0.976317029E+01 -0.670564531E+00  0.424581697E+00
   H  0.955506942E+01  0.776522848E+00  0.604269752E+00
     4
 # iter = 32000  time[fs]=32.00000
   C -0.188359245E+01 -0.273378920E-01  0.388224532E-01
   C  0.179960741E+01 -0.580163329E-01 -0.716495191E-01
   H -0.101183384E+02 -0.695815531E+00  0.437675673E+00
   H  0.989149214E+01  0.803098691E+00  0.626292480E+00
     4
 # iter = 32500  time[fs]=32.50000
   C -0.196007682E+01 -0.273956839E-01  0.394167348E-01
   C  0.187183377E+01 -0.611663912E-01 -0.745547854E-01
   H -0.104743398E+02 -0.721126923E+00  0.450803649E+00
   H  0.102287649E+02  0.829753386E+00  0.648372899E+00
     4
 # iter = 33000  time[fs]=33.00000
   C -0.203761926E+01 -0.274421351E-01  0.400402242E-01
   C  0.194511675E+01 -0.643292324E-01 -0.774964123E-01
   H -0.108311195E+02 -0.746494876E+00  0.463963283E+00
   H  0.105668332E+02  0.856481948E+00  0.670507495E+00
     4
 # iter = 33500  time[fs]=33.50000
   C -0.211614083E+01 -0.274776007E-01  0.406904908E-01
   C  0.201937744E+01 -0.675044144E-01 -0.804715269E-01
   H -0.111886281E+02 -0.771915915E+00  0.477152467E+00
   H  0.109056475E+02  0.883279858E+00  0.692693065E+00
     4
 # iter = 34000  time[fs]=34.00000
   C -0.219557024E+01 -0.275024539E-01  0.413653670E-01
   C  0.209454452E+01 -0.706914842E-01 -0.834775592E-01
   H -0.115468203E+02 -0.797386877E+00  0.490369297E+00
   H  0.112451629E+02  0.910142998E+00  0.714926689E+00
     4
 # iter = 34500  time[fs]=34.50000
   C -0.227584297E+01 -0.275170769E-01  0.420629144E-01
   C  0.217055347E+01 -0.738899875E-01 -0.865122042E-01
   H -0.119056551E+02 -0.822904877E+00  0.503612045E+00
   H  0.115853382E+02  0.937067612E+00  0.737205691E+00
     4
 # iter = 35000  time[fs]=35.00000
   C -0.235690051E+01 -0.275218530E-01  0.427813957E-01
   C  0.224734582E+01 -0.770994740E-01 -0.895733890E-01
   H -0.122650951E+02 -0.848467272E+00  0.516879142E+00
   H  0.119261357E+02  0.964050259E+00  0.759527615E+00
     4
 # iter = 35500  time[fs]=35.50000
   C -0.243868973E+01 -0.275171625E-01  0.435192496E-01
   C  0.232486843E+01 -0.803195026E-01 -0.926592446E-01
   H -0.126251060E+02 -0.874071637E+00  0.530169156E+00
   H  0.122675210E+02  0.991087783E+00  0.781890201E+00
     4
 # iter = 36000  time[fs]=36.00000
   C -0.252116228E+01 -0.275033780E-01  0.442750696E-01
   C  0.240307299E+01 -0.835496443E-01 -0.957680815E-01
   H -0.129856561E+02 -0.899715744E+00  0.543480775E+00
   H  0.126094623E+02  0.101817728E+01  0.804291365E+00
     4
 # iter = 36500  time[fs]=36.50000
   C -0.260427407E+01 -0.274808626E-01  0.450475853E-01
   C  0.248191541E+01 -0.867894843E-01 -0.988983689E-01
   H -0.133467167E+02 -0.925397536E+00  0.556812801E+00
   H  0.129519304E+02  0.104531606E+01  0.826729179E+00
     4
 # iter = 37000  time[fs]=37.00000
   C -0.268798484E+01 -0.274499676E-01  0.458356471E-01
   C  0.256135548E+01 -0.900386231E-01 -0.102048716E+00
   H -0.137082608E+02 -0.951115113E+00  0.570164128E+00
   H  0.132948981E+02  0.107250167E+01  0.849201858E+00
     4
 # iter = 37500  time[fs]=37.50000
   C -0.277225774E+01 -0.274110314E-01  0.466382117E-01
   C  0.264135636E+01 -0.932966778E-01 -0.105217858E+00
   H -0.140702639E+02 -0.976866716E+00  0.583533741E+00
   H  0.136383406E+02  0.109973179E+01  0.871707746E+00
     4
 # iter = 38000  time[fs]=38.00000
   C -0.285705900E+01 -0.273643793E-01  0.474543304E-01
   C  0.272188431E+01 -0.965632819E-01 -0.108404638E+00
   H -0.144327030E+02 -0.100265071E+01  0.596920701E+00
   H  0.139822345E+02  0.112700432E+01  0.894245301E+00
     4
 # iter = 38500  time[fs]=38.50000
   C -0.294235759E+01 -0.273103227E-01  0.482831386E-01
   C  0.280290835E+01 -0.998380856E-01 -0.111608000E+00
   H -0.147955570E+02 -0.102846559E+01  0.610324139E+00
   H  0.143265583E+02  0.115431726E+01  0.916813090E+00
     4
 # iter = 39000  time[fs]=39.00000
   C -0.302812498E+01 -0.272491591E-01  0.491238469E-01
   C  0.288439996E+01 -0.103120755E+00 -0.114826976E+00
   H -0.151588062E+02 -0.105430993E+01  0.623743251E+00
   H  0.146712921E+02  0.118166877E+01  0.939409771E+00
     4
 # iter = 39500  time[fs]=39.50000
   C -0.311433487E+01 -0.271811727E-01  0.499757327E-01
   C  0.296633288E+01 -0.106410974E+00 -0.118060677E+00
   H -0.155224322E+02 -0.108018242E+01  0.637177290E+00
   H  0.150164170E+02  0.120905715E+01  0.962034095E+00
     4
 # iter = 40000  time[fs]=40.00000
   C -0.320096300E+01 -0.271066343E-01  0.508381333E-01
   C  0.304868286E+01 -0.109708438E+00 -0.121308285E+00
   H -0.158864180E+02 -0.110608183E+01  0.650625560E+00
   H  0.153619157E+02  0.123648077E+01  0.984684888E+00
     4
 # iter = 40500  time[fs]=40.50000
   C -0.328798693E+01 -0.270258018E-01  0.517104401E-01
   C  0.313142750E+01 -0.113012863E+00 -0.124569045E+00
   H -0.162507475E+02 -0.113200701E+01  0.664087413E+00
   H  0.157077718E+02  0.126393815E+01  0.100736105E+01
     4
 # iter = 41000  time[fs]=41.00000
   C -0.337538587E+01 -0.269389206E-01  0.525920929E-01
   C  0.321454605E+01 -0.116323973E+00 -0.127842261E+00
   H -0.166154059E+02 -0.115795687E+01  0.677562245E+00
   H  0.160539701E+02  0.129142787E+01  0.103006156E+01
     4
 # iter = 41500  time[fs]=41.50000
   C -0.346314057E+01 -0.268462242E-01  0.534825749E-01
   C  0.329801927E+01 -0.119641511E+00 -0.131127288E+00
   H -0.169803791E+02 -0.118393042E+01  0.691049490E+00
   H  0.164004962E+02  0.131894860E+01  0.105278544E+01
     4
 # iter = 42000  time[fs]=42.00000
   C -0.355123311E+01 -0.267479349E-01  0.543814092E-01
   C  0.338182928E+01 -0.122965229E+00 -0.134423530E+00
   H -0.173456541E+02 -0.120992668E+01  0.704548620E+00
   H  0.167473367E+02  0.134649912E+01  0.107553178E+01
     4
 # iter = 42500  time[fs]=42.50000
   C -0.363964686E+01 -0.266442637E-01  0.552881541E-01
   C  0.346595947E+01 -0.126294894E+00 -0.137730431E+00
   H -0.177112184E+02 -0.123594478E+01  0.718059138E+00
   H  0.170944789E+02  0.137407825E+01  0.109829972E+01
     4
 # iter = 43000  time[fs]=43.00000
   C -0.372836631E+01 -0.265354117E-01  0.562024006E-01
   C  0.355039436E+01 -0.129630284E+00 -0.141047477E+00
   H -0.180770606E+02 -0.126198387E+01  0.731580579E+00
   H  0.174419110E+02  0.140168489E+01  0.112108844E+01
     4
 # iter = 43500  time[fs]=43.50000
   C -0.381737701E+01 -0.264215699E-01  0.571237690E-01
   C  0.363511952E+01 -0.132971186E+00 -0.144374187E+00
   H -0.184431697E+02 -0.128804315E+01  0.745112504E+00
   H  0.177896217E+02  0.142931800E+01  0.114389720E+01
     4
 # iter = 44000  time[fs]=44.00000
   C -0.390666544E+01 -0.263029201E-01  0.580519063E-01
   C  0.372012148E+01 -0.136317401E+00 -0.147710113E+00
   H -0.188095355E+02 -0.131412188E+01  0.758654503E+00
   H  0.181376004E+02  0.145697660E+01  0.116672525E+01
     4
 # iter = 44500  time[fs]=44.50000
   C -0.399621899E+01 -0.261796353E-01  0.589864839E-01
   C  0.380538761E+01 -0.139668736E+00 -0.151054838E+00
   H -0.191761482E+02 -0.134021934E+01  0.772206185E+00
   H  0.184858372E+02  0.148465977E+01  0.118957191E+01
     4
 # iter = 45000  time[fs]=45.00000
   C -0.408602584E+01 -0.260518801E-01  0.599271956E-01
   C  0.389090614E+01 -0.143025010E+00 -0.154407971E+00
   H -0.195429987E+02 -0.136633487E+01  0.785767186E+00
   H  0.188343227E+02  0.151236662E+01  0.121243654E+01
     4
 # iter = 45500  time[fs]=45.50000
   C -0.417607489E+01 -0.259198112E-01  0.608737555E-01
   C  0.397666601E+01 -0.146386050E+00 -0.157769145E+00
   H -0.199100783E+02 -0.139246782E+01  0.799337159E+00
   H  0.191830477E+02  0.154009633E+01  0.123531852E+01
     4
 # iter = 46000  time[fs]=46.00000
   C -0.426635576E+01 -0.257835780E-01  0.618258962E-01
   C  0.406265683E+01 -0.149751692E+00 -0.161138018E+00
   H -0.202773788E+02 -0.141861760E+01  0.812915777E+00
   H  0.195320040E+02  0.156784812E+01  0.125821726E+01
     4
 # iter = 46500  time[fs]=46.50000
   C -0.435685868E+01 -0.256433227E-01  0.627833678E-01
   C  0.414886886E+01 -0.153121778E+00 -0.164514266E+00
   H -0.206448925E+02 -0.144478364E+01  0.826502732E+00
   H  0.198811835E+02  0.159562122E+01  0.128113222E+01
     4
 # iter = 47000  time[fs]=47.00000
   C -0.444757445E+01 -0.254991809E-01  0.637459359E-01
   C  0.423529293E+01 -0.156496159E+00 -0.167897589E+00
   H -0.210126119E+02 -0.147096539E+01  0.840097728E+00
   H  0.202305786E+02  0.162341494E+01  0.130406285E+01
     4
 # iter = 47500  time[fs]=47.50000
   C -0.453849443E+01 -0.253512819E-01  0.647133805E-01
   C  0.432192041E+01 -0.159874692E+00 -0.171287699E+00
   H -0.213805302E+02 -0.149716233E+01  0.853700490E+00
   H  0.205801819E+02  0.165122859E+01  0.132700866E+01
     4
 # iter = 48000  time[fs]=48.00000
   C -0.462961046E+01 -0.251997490E-01  0.656854952E-01
   C  0.440874317E+01 -0.163257241E+00 -0.174684330E+00
   H -0.217486405E+02 -0.152337398E+01  0.867310752E+00
   H  0.209299867E+02  0.167906154E+01  0.134996916E+01
     4
 # iter = 48500  time[fs]=48.50000
   C -0.472091485E+01 -0.250447001E-01  0.666620859E-01
   C  0.449575353E+01 -0.166643677E+00 -0.178087227E+00
   H -0.221169367E+02 -0.154959987E+01  0.880928264E+00
   H  0.212799864E+02  0.170691317E+01  0.137294391E+01
     4
 # iter = 49000  time[fs]=49.00000
   C -0.481240034E+01 -0.248862476E-01  0.676429698E-01
   C  0.458294426E+01 -0.170033876E+00 -0.181496153E+00
   H -0.224854127E+02 -0.157583955E+01  0.894552788E+00
   H  0.216301747E+02  0.173478291E+01  0.139593247E+01
     4
 # iter = 49500  time[fs]=49.50000
   C -0.490406005E+01 -0.247244990E-01  0.686279747E-01
   C  0.467030849E+01 -0.173427719E+00 -0.184910881E+00
   H -0.228540628E+02 -0.160209259E+01  0.908184097E+00
   H  0.219805457E+02  0.176267018E+01  0.141893441E+01
     4
 # iter = 50000  time[fs]=50.00000
   C -0.499588751E+01 -0.245595569E-01  0.696169382E-01
   C  0.475783976E+01 -0.176825093E+00 -0.188331197E+00
   H -0.232228814E+02 -0.162835860E+01  0.921821975E+00
   H  0.223310938E+02  0.179057447E+01  0.144194935E+01
     4
 # iter = 50500  time[fs]=50.50000
   C -0.508787654E+01 -0.243915195E-01  0.706097068E-01
   C  0.484553193E+01 -0.180225890E+00 -0.191756900E+00
   H -0.235918635E+02 -0.165463718E+01  0.935466216E+00
   H  0.226818135E+02  0.181849527E+01  0.146497690E+01
     4
 # iter = 51000  time[fs]=51.00000
   C -0.518002133E+01 -0.242204808E-01  0.716061357E-01
   C  0.493337918E+01 -0.183630006E+00 -0.195187798E+00
   H -0.239610040E+02 -0.168092797E+01  0.949116624E+00
   H  0.230326996E+02  0.184643209E+01  0.148801671E+01
     4
 # iter = 51500  time[fs]=51.50000
   C -0.527231635E+01 -0.240465308E-01  0.726060879E-01
   C  0.502137599E+01 -0.187037343E+00 -0.198623710E+00
   H -0.243302982E+02 -0.170723060E+01  0.962773011E+00
   H  0.233837473E+02  0.187438446E+01  0.151106841E+01
     4
 # iter = 52000  time[fs]=52.00000
   C -0.536475633E+01 -0.238697556E-01  0.736094334E-01
   C  0.510951715E+01 -0.190447805E+00 -0.202064462E+00
   H -0.246997415E+02 -0.173354475E+01  0.976435198E+00
   H  0.237349518E+02  0.190235195E+01  0.153413168E+01
     4
 # iter = 52500  time[fs]=52.50000
   C -0.545733630E+01 -0.236902378E-01  0.746160493E-01
   C  0.519779766E+01 -0.193861301E+00 -0.205509891E+00
   H -0.250693296E+02 -0.175987008E+01  0.990103015E+00
   H  0.240863085E+02  0.193033413E+01  0.155720620E+01
     4
 # iter = 53000  time[fs]=53.00000
   C -0.555005152E+01 -0.235080564E-01  0.756258189E-01
   C  0.528621282E+01 -0.197277745E+00 -0.208959841E+00
   H -0.254390584E+02 -0.178620629E+01  0.100377630E+01
   H  0.244378133E+02  0.195833059E+01  0.158029167E+01
     4
 # iter = 53500  time[fs]=53.50000
   C -0.564289747E+01 -0.233232873E-01  0.766386316E-01
   C  0.537475810E+01 -0.200697053E+00 -0.212414164E+00
   H -0.258089238E+02 -0.181255308E+01  0.101745489E+01
   H  0.247894618E+02  0.198634094E+01  0.160338778E+01
     4
 # iter = 54000  time[fs]=54.00000
   C -0.573586985E+01 -0.231360034E-01  0.776543822E-01
   C  0.546342924E+01 -0.204119145E+00 -0.215872719E+00
   H -0.261789221E+02 -0.183891016E+01  0.103113864E+01
   H  0.251412502E+02  0.201436481E+01  0.162649426E+01
     4
 # iter = 54500  time[fs]=54.50000
   C -0.582896457E+01 -0.229462745E-01  0.786729706E-01
   C  0.555222215E+01 -0.207543943E+00 -0.219335371E+00
   H -0.265490496E+02 -0.186527725E+01  0.104482741E+01
   H  0.254931745E+02  0.204240184E+01  0.164961083E+01
     4
 # iter = 55000  time[fs]=55.00000
   C -0.592217773E+01 -0.227541678E-01  0.796943018E-01
   C  0.564113294E+01 -0.210971373E+00 -0.222801992E+00
   H -0.269193027E+02 -0.189165410E+01  0.105852105E+01
   H  0.258452313E+02  0.207045167E+01  0.167273724E+01
     4
 # iter = 55500  time[fs]=55.50000
   C -0.601550560E+01 -0.225597477E-01  0.807182852E-01
   C  0.573015790E+01 -0.214401366E+00 -0.226272459E+00
   H -0.272896782E+02 -0.191804045E+01  0.107221944E+01
   H  0.261974169E+02  0.209851399E+01  0.169587324E+01
     4
 # iter = 56000  time[fs]=56.00000
   C -0.610894463E+01 -0.223630762E-01  0.817448346E-01
   C  0.581929348E+01 -0.217833852E+00 -0.229746655E+00
   H -0.276601727E+02 -0.194443605E+01  0.108592244E+01
   H  0.265497280E+02  0.212658846E+01  0.171901857E+01
     4
 # iter = 56500  time[fs]=56.50000
   C -0.620249141E+01 -0.221642130E-01  0.827738676E-01
   C  0.590853629E+01 -0.221268765E+00 -0.233224469E+00
   H -0.280307832E+02 -0.197084067E+01  0.109962995E+01
   H  0.269021612E+02  0.215467479E+01  0.174217302E+01
     4
 # iter = 57000  time[fs]=57.00000
   C -0.629614270E+01 -0.219632153E-01  0.838053057E-01
   C  0.599788310E+01 -0.224706043E+00 -0.236705793E+00
   H -0.284015067E+02 -0.199725409E+01  0.111334183E+01
   H  0.272547136E+02  0.218277268E+01  0.176533635E+01
     4
 # iter = 57500  time[fs]=57.50000
   C -0.638989538E+01 -0.217601383E-01  0.848390742E-01
   C  0.608733082E+01 -0.228145625E+00 -0.240190526E+00
   H -0.287723403E+02 -0.202367609E+01  0.112705798E+01
   H  0.276073821E+02  0.221088183E+01  0.178850836E+01
     4
 # iter = 58000  time[fs]=58.00000
   C -0.648374650E+01 -0.215550353E-01  0.858751012E-01
   C  0.617687646E+01 -0.231587452E+00 -0.243678569E+00
   H -0.291432812E+02 -0.205010646E+01  0.114077829E+01
   H  0.279601637E+02  0.223900199E+01  0.181168882E+01
     4
 # iter = 58500  time[fs]=58.50000
   C -0.657769318E+01 -0.213479573E-01  0.869133185E-01
   C  0.626651721E+01 -0.235031467E+00 -0.247169830E+00
   H -0.295143268E+02 -0.207654500E+01  0.115450265E+01
   H  0.283130558E+02  0.226713287E+01  0.183487756E+01
     4
 # iter = 59000  time[fs]=59.00000
   C -0.667173272E+01 -0.211389537E-01  0.879536606E-01
   C  0.635625033E+01 -0.238477617E+00 -0.250664216E+00
   H -0.298854745E+02 -0.210299151E+01  0.116823096E+01
   H  0.286660556E+02  0.229527424E+01  0.185807436E+01
     4
 # iter = 59500  time[fs]=59.50000
   C -0.676586248E+01 -0.209280720E-01  0.889960649E-01
   C  0.644607322E+01 -0.241925849E+00 -0.254161643E+00
   H -0.302567218E+02 -0.212944580E+01  0.118196313E+01
   H  0.290191606E+02  0.232342583E+01  0.188127904E+01
     4
 # iter = 60000  time[fs]=60.00000
   C -0.686007996E+01 -0.207153581E-01  0.900404713E-01
   C  0.653598338E+01 -0.245376112E+00 -0.257662028E+00
   H -0.306280664E+02 -0.215590770E+01  0.119569907E+01
   H  0.293723681E+02  0.235158742E+01  0.190449143E+01
     4
 # iter = 60500  time[fs]=60.50000
   C -0.695438274E+01 -0.205008562E-01  0.910868224E-01
   C  0.662597840E+01 -0.248828358E+00 -0.261165292E+00
   H -0.309995059E+02 -0.218237703E+01  0.120943868E+01
   H  0.297256759E+02  0.237975878E+01  0.192771134E+01
     4
 # iter = 61000  time[fs]=61.00000
   C -0.704876852E+01 -0.202846090E-01  0.921350632E-01
   C  0.671605598E+01 -0.252282539E+00 -0.264671357E+00
   H -0.313710381E+02 -0.220885362E+01  0.122318187E+01
   H  0.300790816E+02  0.240793968E+01  0.195093862E+01
     4
 # iter = 61500  time[fs]=61.50000
   C -0.714323507E+01 -0.200666577E-01  0.931851407E-01
   C  0.680621391E+01 -0.255738610E+00 -0.268180150E+00
   H -0.317426608E+02 -0.223533731E+01  0.123692857E+01
   H  0.304325830E+02  0.243612991E+01  0.197417309E+01
     4
 # iter = 62000  time[fs]=62.00000
   C -0.723778025E+01 -0.198470422E-01  0.942370043E-01
   C  0.689645006E+01 -0.259196528E+00 -0.271691602E+00
   H -0.321143721E+02 -0.226182793E+01  0.125067869E+01
   H  0.307861778E+02  0.246432926E+01  0.199741460E+01
     4
 # iter = 62500  time[fs]=62.50000
   C -0.733240201E+01 -0.196258009E-01  0.952906052E-01
   C  0.698676238E+01 -0.262656249E+00 -0.275205643E+00
   H -0.324861699E+02 -0.228832535E+01  0.126443216E+01
   H  0.311398640E+02  0.249253753E+01  0.202066301E+01
     4
 # iter = 63000  time[fs]=63.00000
   C -0.742709836E+01 -0.194029709E-01  0.963458967E-01
   C  0.707714890E+01 -0.266117733E+00 -0.278722210E+00
   H -0.328580523E+02 -0.231482940E+01  0.127818889E+01
   H  0.314936396E+02  0.252075454E+01  0.204391815E+01
     4
 # iter = 63500  time[fs]=63.50000
   C -0.752186741E+01 -0.191785881E-01  0.974028338E-01
   C  0.716760772E+01 -0.269580940E+00 -0.282241238E+00
   H -0.332300173E+02 -0.234133995E+01  0.129194882E+01
   H  0.318475026E+02  0.254898008E+01  0.206717989E+01
     4
 # iter = 64000  time[fs]=64.00000
   C -0.761670732E+01 -0.189526875E-01  0.984613734E-01
   C  0.725813702E+01 -0.273045832E+00 -0.285762667E+00
   H -0.336020632E+02 -0.236785686E+01  0.130571188E+01
   H  0.322014511E+02  0.257721398E+01  0.209044809E+01
     4
 # iter = 64500  time[fs]=64.50000
   C -0.771161633E+01 -0.187253025E-01  0.995214737E-01
   C  0.734873503E+01 -0.276512372E+00 -0.289286439E+00
   H -0.339741883E+02 -0.239438000E+01  0.131947799E+01
   H  0.325554832E+02  0.260545607E+01  0.211372262E+01
     4
 # iter = 65000  time[fs]=65.00000
   C -0.780659273E+01 -0.184964657E-01  0.100583095E+00
   C  0.743940007E+01 -0.279980523E+00 -0.292812498E+00
   H -0.343463908E+02 -0.242090923E+01  0.133324710E+01
   H  0.329095972E+02  0.263370618E+01  0.213700334E+01
     4
 # iter = 65500  time[fs]=65.50000
   C -0.790163489E+01 -0.182662087E-01  0.101646198E+00
   C  0.753013050E+01 -0.283450251E+00 -0.296340788E+00
   H -0.347186691E+02 -0.244744442E+01  0.134701913E+01
   H  0.332637914E+02  0.266196413E+01  0.216029013E+01
     4
 # iter = 66000  time[fs]=66.00000
   C -0.799674121E+01 -0.180345619E-01  0.102710746E+00
   C  0.762092475E+01 -0.286921522E+00 -0.299871258E+00
   H -0.350910216E+02 -0.247398547E+01  0.136079403E+01
   H  0.336180640E+02  0.269022977E+01  0.218358288E+01
     4
 # iter = 66500  time[fs]=66.50000
   C -0.809191017E+01 -0.178015549E-01  0.103776704E+00
   C  0.771178128E+01 -0.290394304E+00 -0.303403857E+00
   H -0.354634468E+02 -0.250053225E+01  0.137457173E+01
   H  0.339724135E+02  0.271850295E+01  0.220688145E+01
     4
 # iter = 67000  time[fs]=67.00000
   C -0.818714030E+01 -0.175672163E-01  0.104844037E+00
   C  0.780269863E+01 -0.293868565E+00 -0.306938536E+00
   H -0.358359432E+02 -0.252708464E+01  0.138835218E+01
   H  0.343268384E+02  0.274678351E+01  0.223018573E+01
     4
 # iter = 67500  time[fs]=67.50000
   C -0.828243017E+01 -0.173315740E-01  0.105912711E+00
   C  0.789367539E+01 -0.297344275E+00 -0.310475248E+00
   H -0.362085093E+02 -0.255364253E+01  0.140213532E+01
   H  0.346813370E+02  0.277507131E+01  0.225349563E+01
     4
 # iter = 68000  time[fs]=68.00000
   C -0.837777841E+01 -0.170946547E-01  0.106982694E+00
   C  0.798471018E+01 -0.300821403E+00 -0.314013947E+00
   H -0.365811437E+02 -0.258020583E+01  0.141592110E+01
   H  0.350359079E+02  0.280336620E+01  0.227681101E+01
     4
 # iter = 68500  time[fs]=68.50000
   C -0.847318367E+01 -0.168564847E-01  0.108053956E+00
   C  0.807580169E+01 -0.304299920E+00 -0.317554589E+00
   H -0.369538451E+02 -0.260677441E+01  0.142970947E+01
   H  0.353905497E+02  0.283166806E+01  0.230013179E+01
     4
 # iter = 69000  time[fs]=69.00000
   C -0.856864469E+01 -0.166170892E-01  0.109126466E+00
   C  0.816694861E+01 -0.307779800E+00 -0.321097131E+00
   H -0.373266122E+02 -0.263334818E+01  0.144350036E+01
   H  0.357452609E+02  0.285997674E+01  0.232345785E+01
     4
 # iter = 69500  time[fs]=69.50000
   C -0.866416021E+01 -0.163764929E-01  0.110200196E+00
   C  0.825814973E+01 -0.311261014E+00 -0.324641532E+00
   H -0.376994436E+02 -0.265992704E+01  0.145729374E+01
   H  0.361000403E+02  0.288829211E+01  0.234678910E+01
     4
 # iter = 70000  time[fs]=70.00000
   C -0.875972903E+01 -0.161347195E-01  0.111275118E+00
   C  0.834940384E+01 -0.314743536E+00 -0.328187752E+00
   H -0.380723381E+02 -0.268651090E+01  0.147108956E+01
   H  0.364548866E+02  0.291661405E+01  0.237012545E+01
     4
 # iter = 70500  time[fs]=70.50000
   C -0.885534999E+01 -0.158917923E-01  0.112351204E+00
   C  0.844070979E+01 -0.318227341E+00 -0.331735751E+00
   H -0.384452945E+02 -0.271309966E+01  0.148488776E+01
   H  0.368097983E+02  0.294494244E+01  0.239346679E+01
     4
 # iter = 71000  time[fs]=71.00000
   C -0.895102196E+01 -0.156477338E-01  0.113428428E+00
   C  0.853206644E+01 -0.321712403E+00 -0.335285494E+00
   H -0.388183117E+02 -0.273969322E+01  0.149868830E+01
   H  0.371647744E+02  0.297327716E+01  0.241681304E+01
     4
 # iter = 71500  time[fs]=71.50000
   C -0.904674384E+01 -0.154025657E-01  0.114506766E+00
   C  0.862347271E+01 -0.325198700E+00 -0.338836942E+00
   H -0.391913884E+02 -0.276629151E+01  0.151249114E+01
   H  0.375198136E+02  0.300161809E+01  0.244016411E+01
     4
 # iter = 72000  time[fs]=72.00000
   C -0.914251458E+01 -0.151563094E-01  0.115586193E+00
   C  0.871492756E+01 -0.328686206E+00 -0.342390061E+00
   H -0.395645236E+02 -0.279289444E+01  0.152629623E+01
   H  0.378749147E+02  0.302996512E+01  0.246351990E+01
     4
 # iter = 72500  time[fs]=72.50000
   C -0.923833316E+01 -0.149089855E-01  0.116666684E+00
   C  0.880642995E+01 -0.332174900E+00 -0.345944818E+00
   H -0.399377162E+02 -0.281950192E+01  0.154010354E+01
   H  0.382300767E+02  0.305831814E+01  0.248688035E+01
     4
 # iter = 73000  time[fs]=73.00000
   C -0.933419857E+01 -0.146606141E-01  0.117748218E+00
   C  0.889797891E+01 -0.335664759E+00 -0.349501177E+00
   H -0.403109651E+02 -0.284611387E+01  0.155391302E+01
   H  0.385852983E+02  0.308667704E+01  0.251024536E+01
     4
 # iter = 73500  time[fs]=73.50000
   C -0.943010986E+01 -0.144112147E-01  0.118830772E+00
   C  0.898957346E+01 -0.339155761E+00 -0.353059108E+00
   H -0.406842694E+02 -0.287273021E+01  0.156772463E+01
   H  0.389405785E+02  0.311504172E+01  0.253361486E+01
     4
 # iter = 74000  time[fs]=74.00000
   C -0.952606609E+01 -0.141608062E-01  0.119914324E+00
   C  0.908121269E+01 -0.342647886E+00 -0.356618580E+00
   H -0.410576280E+02 -0.289935087E+01  0.158153833E+01
   H  0.392959163E+02  0.314341207E+01  0.255698877E+01
     4
 # iter = 74500  time[fs]=74.50000
   C -0.962206635E+01 -0.139094071E-01  0.120998854E+00
   C  0.917289568E+01 -0.346141113E+00 -0.360179561E+00
   H -0.414310399E+02 -0.292597577E+01  0.159535409E+01
   H  0.396513107E+02  0.317178801E+01  0.258036700E+01
     4
 # iter = 75000  time[fs]=75.00000
   C -0.971810976E+01 -0.136570355E-01  0.122084341E+00
   C  0.926462156E+01 -0.349635422E+00 -0.363742023E+00
   H -0.418045043E+02 -0.295260484E+01  0.160917187E+01
   H  0.400067606E+02  0.320016943E+01  0.260374950E+01
     4
 # iter = 75500  time[fs]=75.50000
   C -0.981419548E+01 -0.134037088E-01  0.123170766E+00
   C  0.935638949E+01 -0.353130794E+00 -0.367305937E+00
   H -0.421780202E+02 -0.297923800E+01  0.162299163E+01
   H  0.403622651E+02  0.322855623E+01  0.262713619E+01
     4
 # iter = 76000  time[fs]=76.00000
   C -0.991032266E+01 -0.131494440E-01  0.124258109E+00
   C  0.944819863E+01 -0.356627210E+00 -0.370871275E+00
   H -0.425515866E+02 -0.300587519E+01  0.163681335E+01
   H  0.407178232E+02  0.325694834E+01  0.265052699E+01
     4
 # iter = 76500  time[fs]=76.50000
   C -0.100064905E+02 -0.128942578E-01  0.125346353E+00
   C  0.954004818E+01 -0.360124652E+00 -0.374438010E+00
   H -0.429252028E+02 -0.303251633E+01  0.165063697E+01
   H  0.410734341E+02  0.328534565E+01  0.267392183E+01
     4
 # iter = 77000  time[fs]=77.00000
   C -0.101026982E+02 -0.126381662E-01  0.126435479E+00
   C  0.963193737E+01 -0.363623101E+00 -0.378006116E+00
   H -0.432988679E+02 -0.305916137E+01  0.166446248E+01
   H  0.414290968E+02  0.331374808E+01  0.269732067E+01
     4
 # iter = 77500  time[fs]=77.50000
   C -0.101989451E+02 -0.123811851E-01  0.127525470E+00
   C  0.972386544E+01 -0.367122541E+00 -0.381575568E+00
   H -0.436725810E+02 -0.308581024E+01  0.167828984E+01
   H  0.417848104E+02  0.334215556E+01  0.272072341E+01
     4
 # iter = 78000  time[fs]=78.00000
   C -0.102952303E+02 -0.121233298E-01  0.128616309E+00
   C  0.981583164E+01 -0.370622954E+00 -0.385146340E+00
   H -0.440463414E+02 -0.311246288E+01  0.169211902E+01
   H  0.421405742E+02  0.337056798E+01  0.274413001E+01
     4
 # iter = 78500  time[fs]=78.50000
   C -0.103915532E+02 -0.118646152E-01  0.129707980E+00
   C  0.990783527E+01 -0.374124324E+00 -0.388718409E+00
   H -0.444201483E+02 -0.313911922E+01  0.170594999E+01
   H  0.424963872E+02  0.339898529E+01  0.276754041E+01
     4
 # iter = 79000  time[fs]=79.00000
   C -0.104879130E+02 -0.116050559E-01  0.130800466E+00
   C  0.999987563E+01 -0.377626635E+00 -0.392291751E+00
   H -0.447940008E+02 -0.316577920E+01  0.171978272E+01
   H  0.428522487E+02  0.342740739E+01  0.279095453E+01
     4
 # iter = 79500  time[fs]=79.50000
   C -0.105843091E+02 -0.113446661E-01  0.131893752E+00
   C  0.100919520E+02 -0.381129870E+00 -0.395866344E+00
   H -0.451678983E+02 -0.319244277E+01  0.173361718E+01
   H  0.432081579E+02  0.345583421E+01  0.281437232E+01
     4
 # iter = 80000  time[fs]=80.00000
   C -0.106807409E+02 -0.110834597E-01  0.132987824E+00
   C  0.101840638E+02 -0.384634015E+00 -0.399442165E+00
   H -0.455418400E+02 -0.321910987E+01  0.174745334E+01
   H  0.435641140E+02  0.348426567E+01  0.283779373E+01
