     4
 # iter = 25000  time[fs]=25.00000
   C -0.102012449E+01 -0.184173882E-01 -0.390200774E-01
   C  0.103223316E+01 -0.941813779E-02  0.491466037E-01
   H -0.533267401E+01  0.193819913E+00  0.653027578E+00
   H  0.533121307E+01  0.433097296E+00 -0.705191391E+00
     4
 # iter = 25500  time[fs]=25.50000
   C -0.107087172E+01 -0.192049126E-01 -0.410253718E-01
   C  0.107921868E+01 -0.113191230E-01  0.545983013E-01
   H -0.566399239E+01  0.206005118E+00  0.697344260E+00
   H  0.565084451E+01  0.459754686E+00 -0.750300286E+00
     4
 # iter = 26000  time[fs]=26.00000
   C -0.112562019E+01 -0.200183119E-01 -0.432259491E-01
   C  0.113020552E+01 -0.132205728E-01  0.602478856E-01
   H -0.599789457E+01  0.218285510E+00  0.742018641E+00
   H  0.597305875E+01  0.486632961E+00 -0.795798124E+00
     4
 # iter = 26500  time[fs]=26.50000
   C -0.118400533E+01 -0.208526030E-01 -0.456087661E-01
   C  0.118482871E+01 -0.151246334E-01  0.660821322E-01
   H -0.633409807E+01  0.230650582E+00  0.787012306E+00
   H  0.629757818E+01  0.513708588E+00 -0.841644319E+00
     4
 # iter = 27000  time[fs]=27.00000
   C -0.124568924E+01 -0.217037387E-01 -0.481609833E-01
   C  0.124275006E+01 -0.170329578E-01  0.720880347E-01
   H -0.667236381E+01  0.243091513E+00  0.832292837E+00
   H  0.662416710E+01  0.540961658E+00 -0.887804447E+00
     4
 # iter = 27500  time[fs]=27.50000
   C -0.131036263E+01 -0.225684496E-01 -0.508702194E-01
   C  0.130366010E+01 -0.189467750E-01  0.782530582E-01
   H -0.701248776E+01  0.255600820E+00  0.877832609E+00
   H  0.695262379E+01  0.568375167E+00 -0.934249043E+00
     4
 # iter = 28000  time[fs]=28.00000
   C -0.137774499E+01 -0.234441041E-01 -0.537247226E-01
   C  0.136727818E+01 -0.208669628E-01  0.845653104E-01
   H -0.735429440E+01  0.268172095E+00  0.923607882E+00
   H  0.728277429E+01  0.595934478E+00 -0.980952677E+00
     4
 # iter = 28500  time[fs]=28.50000
   C -0.144758349E+01 -0.243285878E-01 -0.567134722E-01
   C  0.143335139E+01 -0.227941163E-01  0.910136421E-01
   H -0.769763175E+01  0.280799806E+00  0.969598089E+00
   H  0.761446762E+01  0.623626893E+00 -0.102789324E+01
     4
 # iter = 29000  time[fs]=29.00000
   C -0.151965130E+01 -0.252202033E-01 -0.598262273E-01
   C  0.150165285E+01 -0.247286083E-01  0.975876952E-01
   H -0.804236732E+01  0.293479142E+00  0.101578529E+01
   H  0.794757191E+01  0.651441326E+00 -0.107505140E+01
     4
 # iter = 29500  time[fs]=29.50000
   C -0.159374545E+01 -0.261175873E-01 -0.630535354E-01
   C  0.157197956E+01 -0.266706392E-01  0.104277910E+00
   H -0.838838495E+01  0.306205891E+00  0.106215375E+01
   H  0.828197132E+01  0.679368034E+00 -0.112241011E+01
     4
 # iter = 30000  time[fs]=30.00000
   C -0.166968460E+01 -0.270196435E-01 -0.663867150E-01
   C  0.164415017E+01 -0.286202790E-01  0.111075507E+00
   H -0.873558227E+01  0.318976345E+00  0.110868957E+01
   H  0.861756359E+01  0.707398411E+00 -0.116995431E+01
     4
 # iter = 30500  time[fs]=30.50000
   C -0.174730685E+01 -0.279254894E-01 -0.698178196E-01
   C  0.171800280E+01 -0.305774998E-01  0.117972449E+00
   H -0.908386858E+01  0.331787219E+00  0.115538041E+01
   H  0.895425797E+01  0.735524815E+00 -0.121767057E+01
     4
 # iter = 31000  time[fs]=31.00000
   C -0.182646763E+01 -0.288344123E-01 -0.733395926E-01
   C  0.179339286E+01 -0.325422022E-01  0.124961398E+00
   H -0.943316317E+01  0.344635590E+00  0.120221527E+01
   H  0.929197362E+01  0.763740428E+00 -0.126554692E+01
     4
 # iter = 31500  time[fs]=31.50000
   C -0.190703773E+01 -0.297458362E-01 -0.769454167E-01
   C  0.187019119E+01 -0.345142355E-01  0.132035661E+00
   H -0.978339391E+01  0.357518845E+00  0.124918430E+01
   H  0.963063819E+01  0.792039139E+00 -0.131357259E+01
     4
 # iter = 32000  time[fs]=32.00000
   C -0.198890159E+01 -0.306592939E-01 -0.806292619E-01
   C  0.194828223E+01 -0.364934134E-01  0.139189138E+00
   H -0.101344961E+02  0.370434636E+00  0.129627865E+01
   H  0.997018668E+01  0.820415452E+00 -0.136173789E+01
     4
 # iter = 32500  time[fs]=32.50000
   C -0.207195566E+01 -0.315744057E-01 -0.843856338E-01
   C  0.202756246E+01 -0.384795255E-01  0.146416270E+00
   H -0.104864115E+02  0.383380851E+00  0.134349031E+01
   H  0.103105605E+02  0.848864404E+00 -0.141003405E+01
     4
 # iter = 33000  time[fs]=33.00000
   C -0.215610703E+01 -0.324908621E-01 -0.882095252E-01
   C  0.210793902E+01 -0.404723472E-01  0.153711991E+00
   H -0.108390873E+02  0.396355574E+00  0.139081204E+01
   H  0.106517067E+02  0.877381496E+00 -0.145845310E+01
     4
 # iter = 33500  time[fs]=33.50000
   C -0.224127217E+01 -0.334084103E-01 -0.920963698E-01
   C  0.218932839E+01 -0.424716457E-01  0.161071679E+00
   H -0.111924759E+02  0.409357070E+00  0.143823725E+01
   H  0.109935771E+02  0.905962639E+00 -0.150698782E+01
     4
 # iter = 34000  time[fs]=34.00000
   C -0.232737586E+01 -0.343268436E-01 -0.960419998E-01
   C  0.227165538E+01 -0.444771853E-01  0.168491117E+00
   H -0.115465339E+02  0.422383759E+00  0.148575993E+01
   H  0.113361279E+02  0.934604105E+00 -0.155563156E+01
     4
 # iter = 34500  time[fs]=34.50000
   C -0.241435019E+01 -0.352459920E-01 -0.100042607E+00
   C  0.235485211E+01 -0.464887315E-01  0.175966448E+00
   H -0.119012216E+02  0.435434194E+00  0.153337460E+01
   H  0.116793193E+02  0.963302483E+00 -0.160437829E+01
     4
 # iter = 35000  time[fs]=35.00000
   C -0.250213376E+01 -0.361657160E-01 -0.104094708E+00
   C  0.243885722E+01 -0.485060531E-01  0.183494146E+00
   H -0.122565028E+02  0.448507056E+00  0.158107621E+01
   H  0.120231146E+02  0.992054648E+00 -0.165322244E+01
     4
 # iter = 35500  time[fs]=35.50000
   C -0.259067093E+01 -0.370859007E-01 -0.108195112E+00
   C  0.252361509E+01 -0.505289242E-01  0.191070978E+00
   H -0.126123444E+02  0.461601129E+00  0.162886014E+01
   H  0.123674804E+02  0.102085772E+01 -0.170215889E+01
     4
 # iter = 36000  time[fs]=36.00000
   C -0.267991117E+01 -0.380064513E-01 -0.112340893E+00
   C  0.260907521E+01 -0.525571261E-01  0.198693980E+00
   H -0.129687159E+02  0.474715296E+00  0.167672213E+01
   H  0.127123857E+02  0.104970907E+01 -0.175118291E+01
     4
 # iter = 36500  time[fs]=36.50000
   C -0.276980849E+01 -0.389272895E-01 -0.116529360E+00
   C  0.269519164E+01 -0.545904472E-01  0.206360428E+00
   H -0.133255892E+02  0.487848527E+00  0.172465823E+01
   H  0.130578022E+02  0.107860622E+01 -0.180029014E+01
     4
 # iter = 37000  time[fs]=37.00000
   C -0.286032097E+01 -0.398483505E-01 -0.120758042E+00
   C  0.278192247E+01 -0.566286843E-01  0.214067815E+00
   H -0.136829382E+02  0.500999868E+00  0.177266480E+01
   H  0.134037035E+02  0.110754694E+01 -0.184947654E+01
     4
 # iter = 37500  time[fs]=37.50000
   C -0.295141032E+01 -0.407695809E-01 -0.125024661E+00
   C  0.286922944E+01 -0.586716426E-01  0.221813831E+00
   H -0.140407392E+02  0.514168436E+00  0.182073846E+01
   H  0.137500655E+02  0.113652911E+01 -0.189873835E+01
     4
 # iter = 38000  time[fs]=38.00000
   C -0.304304147E+01 -0.416909362E-01 -0.129327112E+00
   C  0.295707752E+01 -0.607191355E-01  0.229596345E+00
   H -0.143989698E+02  0.527353413E+00  0.186887607E+01
   H  0.140968656E+02  0.116555080E+01 -0.194807208E+01
     4
 # iter = 38500  time[fs]=38.50000
   C -0.313518229E+01 -0.426123800E-01 -0.133663455E+00
   C  0.304543457E+01 -0.627709850E-01  0.237413388E+00
   H -0.147576094E+02  0.540554037E+00  0.191707470E+01
   H  0.144440829E+02  0.119461017E+01 -0.199747449E+01
     4
 # iter = 39000  time[fs]=39.00000
   C -0.322780322E+01 -0.435338819E-01 -0.138031892E+00
   C  0.313427108E+01 -0.648270213E-01  0.245263135E+00
   H -0.151166388E+02  0.553769596E+00  0.196533163E+01
   H  0.147916978E+02  0.122370555E+01 -0.204694252E+01
     4
 # iter = 39500  time[fs]=39.50000
   C -0.332087709E+01 -0.444554170E-01 -0.142430756E+00
   C  0.322355989E+01 -0.668870825E-01  0.253143898E+00
   H -0.154760401E+02  0.566999430E+00  0.201364431E+01
   H  0.151396923E+02  0.125283535E+01 -0.209647335E+01
     4
 # iter = 40000  time[fs]=40.00000
   C -0.341437882E+01 -0.453769646E-01 -0.146858502E+00
   C  0.331327596E+01 -0.689510145E-01  0.261054106E+00
   H -0.158357967E+02  0.580242918E+00  0.206201037E+01
   H  0.154880494E+02  0.128199809E+01 -0.214606432E+01
     4
 # iter = 40500  time[fs]=40.50000
   C -0.350828527E+01 -0.462985078E-01 -0.151313693E+00
   C  0.340339615E+01 -0.710186707E-01  0.268992301E+00
   H -0.161958930E+02  0.593499482E+00  0.211042756E+01
   H  0.158367533E+02  0.131119240E+01 -0.219571294E+01
     4
 # iter = 41000  time[fs]=41.00000
   C -0.360257502E+01 -0.472200327E-01 -0.155794993E+00
   C  0.349389907E+01 -0.730899113E-01  0.276957127E+00
   H -0.165563144E+02  0.606768578E+00  0.215889380E+01
   H  0.161857892E+02  0.134041697E+01 -0.224541688E+01
     4
 # iter = 41500  time[fs]=41.50000
   C -0.369722822E+01 -0.481415281E-01 -0.160301154E+00
   C  0.358476488E+01 -0.751646038E-01  0.284947318E+00
   H -0.169170471E+02  0.620049696E+00  0.220740712E+01
   H  0.165351431E+02  0.136967059E+01 -0.229517393E+01
     4
 # iter = 42000  time[fs]=42.00000
   C -0.379222646E+01 -0.490629847E-01 -0.164831015E+00
   C  0.367597520E+01 -0.772426216E-01  0.292961693E+00
   H -0.172780784E+02  0.633342358E+00  0.225596567E+01
   H  0.168848020E+02  0.139895210E+01 -0.234498203E+01
     4
 # iter = 42500  time[fs]=42.50000
   C -0.388755262E+01 -0.499843953E-01 -0.169383489E+00
   C  0.376751292E+01 -0.793238445E-01  0.300999149E+00
   H -0.176393963E+02  0.646646110E+00  0.230456771E+01
   H  0.172347536E+02  0.142826043E+01 -0.239483922E+01
     4
 # iter = 43000  time[fs]=43.00000
   C -0.398319078E+01 -0.509057540E-01 -0.173957560E+00
   C  0.385936214E+01 -0.814081581E-01  0.309058653E+00
   H -0.180009892E+02  0.659960530E+00  0.235321160E+01
   H  0.175849864E+02  0.145759455E+01 -0.244474367E+01
     4
 # iter = 43500  time[fs]=43.50000
   C -0.407912608E+01 -0.518270562E-01 -0.178552277E+00
   C  0.395150801E+01 -0.834954535E-01  0.317139239E+00
   H -0.183628467E+02  0.673285215E+00  0.240189578E+01
   H  0.179354895E+02  0.148695352E+01 -0.249469365E+01
     4
 # iter = 44000  time[fs]=44.00000
   C -0.417534468E+01 -0.527482983E-01 -0.183166747E+00
   C  0.404393670E+01 -0.855856270E-01  0.325239998E+00
   H -0.187249585E+02  0.686619787E+00  0.245061878E+01
   H  0.182862527E+02  0.151633641E+01 -0.254468750E+01
     4
 # iter = 44500  time[fs]=44.50000
   C -0.427183361E+01 -0.536694778E-01 -0.187800133E+00
   C  0.413663527E+01 -0.876785797E-01  0.333360081E+00
   H -0.190873152E+02  0.699963888E+00  0.249937923E+01
   H  0.186372662E+02  0.154574238E+01 -0.259472368E+01
     4
 # iter = 45000  time[fs]=45.00000
   C -0.436858077E+01 -0.545905927E-01 -0.192451648E+00
   C  0.422959163E+01 -0.897742175E-01  0.341498685E+00
   H -0.194499077E+02  0.713317178E+00  0.254817580E+01
   H  0.189885209E+02  0.157517060E+01 -0.264480071E+01
     4
 # iter = 45500  time[fs]=45.50000
   C -0.446557479E+01 -0.555116418E-01 -0.197120550E+00
   C  0.432279442E+01 -0.918724506E-01  0.349655058E+00
   H -0.198127276E+02  0.726679337E+00  0.259700726E+01
   H  0.193400080E+02  0.160462030E+01 -0.269491719E+01
     4
 # iter = 46000  time[fs]=46.00000
   C -0.456280504E+01 -0.564326243E-01 -0.201806142E+00
   C  0.441623302E+01 -0.939731934E-01  0.357828490E+00
   H -0.201757668E+02  0.740050060E+00  0.264587242E+01
   H  0.196917195E+02  0.163409076E+01 -0.274507180E+01
     4
 # iter = 46500  time[fs]=46.50000
   C -0.466026151E+01 -0.573535399E-01 -0.206507767E+00
   C  0.450989744E+01 -0.960763643E-01  0.366018312E+00
   H -0.205390176E+02  0.753429057E+00  0.269477015E+01
   H  0.200436475E+02  0.166358128E+01 -0.279526327E+01
     4
 # iter = 47000  time[fs]=47.00000
   C -0.475793481E+01 -0.582743886E-01 -0.211224804E+00
   C  0.460377829E+01 -0.981818853E-01  0.374223892E+00
   H -0.209024728E+02  0.766816055E+00  0.274369940E+01
   H  0.203957845E+02  0.169309120E+01 -0.284549041E+01
     4
 # iter = 47500  time[fs]=47.50000
   C -0.485581607E+01 -0.591951708E-01 -0.215956666E+00
   C  0.469786673E+01 -0.100289682E+00  0.382444633E+00
   H -0.212661255E+02  0.780210792E+00  0.279265914E+01
   H  0.207481237E+02  0.172261989E+01 -0.289575207E+01
     4
 # iter = 48000  time[fs]=48.00000
   C -0.495389698E+01 -0.601158871E-01 -0.220702799E+00
   C  0.479215444E+01 -0.102399683E+00  0.390679971E+00
   H -0.216299692E+02  0.793613019E+00  0.284164841E+01
   H  0.211006582E+02  0.175216675E+01 -0.294604717E+01
     4
 # iter = 48500  time[fs]=48.50000
   C -0.505216966E+01 -0.610365381E-01 -0.225462679E+00
   C  0.488663357E+01 -0.104511820E+00  0.398929371E+00
   H -0.219939976E+02  0.807022500E+00  0.289066628E+01
   H  0.214533818E+02  0.178173121E+01 -0.299637467E+01
     4
 # iter = 49000  time[fs]=49.00000
   C -0.515062670E+01 -0.619571249E-01 -0.230235808E+00
   C  0.498129670E+01 -0.106626029E+00  0.407192329E+00
   H -0.223582048E+02  0.820439008E+00  0.293971188E+01
   H  0.218062884E+02  0.181131273E+01 -0.304673358E+01
     4
 # iter = 49500  time[fs]=49.50000
   C -0.524926108E+01 -0.628776485E-01 -0.235021715E+00
   C  0.507613683E+01 -0.108742248E+00  0.415468362E+00
   H -0.227225851E+02  0.833862329E+00  0.298878438E+01
   H  0.221593722E+02  0.184091079E+01 -0.309712297E+01
     4
 # iter = 50000  time[fs]=50.00000
   C -0.534806618E+01 -0.637981102E-01 -0.239819954E+00
   C  0.517114735E+01 -0.110860415E+00  0.423757017E+00
   H -0.230871332E+02  0.847292258E+00  0.303788296E+01
   H  0.225126278E+02  0.187052489E+01 -0.314754191E+01
     4
 # iter = 50500  time[fs]=50.50000
   C -0.544703570E+01 -0.647185110E-01 -0.244630099E+00
   C  0.526632197E+01 -0.112980476E+00  0.432057860E+00
   H -0.234518439E+02  0.860728596E+00  0.308700686E+01
   H  0.228660498E+02  0.190015456E+01 -0.319798956E+01
     4
 # iter = 51000  time[fs]=51.00000
   C -0.554616370E+01 -0.656388525E-01 -0.249451748E+00
   C  0.536165476E+01 -0.115102374E+00  0.440370480E+00
   H -0.238167124E+02  0.874171157E+00  0.313615535E+01
   H  0.232196333E+02  0.192979935E+01 -0.324846509E+01
     4
 # iter = 51500  time[fs]=51.50000
   C -0.564544455E+01 -0.665591358E-01 -0.254284516E+00
   C  0.545714008E+01 -0.117226057E+00  0.448694487E+00
   H -0.241817338E+02  0.887619762E+00  0.318532773E+01
   H  0.235733735E+02  0.195945883E+01 -0.329896771E+01
     4
 # iter = 52000  time[fs]=52.00000
   C -0.574487287E+01 -0.674793624E-01 -0.259128038E+00
   C  0.555277259E+01 -0.119351476E+00  0.457029507E+00
   H -0.245469038E+02  0.901074238E+00  0.323452333E+01
   H  0.239272658E+02  0.198913258E+01 -0.334949665E+01
     4
 # iter = 52500  time[fs]=52.50000
   C -0.584444360E+01 -0.683995338E-01 -0.263981966E+00
   C  0.564854721E+01 -0.121478581E+00  0.465375185E+00
   H -0.249122180E+02  0.914534420E+00  0.328374150E+01
   H  0.242813058E+02  0.201882020E+01 -0.340005121E+01
     4
 # iter = 53000  time[fs]=53.00000
   C -0.594415189E+01 -0.693196513E-01 -0.268845969E+00
   C  0.574445911E+01 -0.123607327E+00  0.473731185E+00
   H -0.252776724E+02  0.928000151E+00  0.333298163E+01
   H  0.246354893E+02  0.204852131E+01 -0.345063067E+01
     4
 # iter = 53500  time[fs]=53.50000
   C -0.604399314E+01 -0.702397164E-01 -0.273719729E+00
   C  0.584050370E+01 -0.125737669E+00  0.482097182E+00
   H -0.256432629E+02  0.941471280E+00  0.338224313E+01
   H  0.249898123E+02  0.207823554E+01 -0.350123437E+01
     4
 # iter = 54000  time[fs]=54.00000
   C -0.614396298E+01 -0.711597304E-01 -0.278602946E+00
   C  0.593667661E+01 -0.127869565E+00  0.490472868E+00
   H -0.260089859E+02  0.954947660E+00  0.343152542E+01
   H  0.253442710E+02  0.210796255E+01 -0.355186167E+01
     4
 # iter = 54500  time[fs]=54.50000
   C -0.624405722E+01 -0.720796948E-01 -0.283495331E+00
   C  0.603297366E+01 -0.130002972E+00  0.498857950E+00
   H -0.263748377E+02  0.968429153E+00  0.348082796E+01
   H  0.256988616E+02  0.213770200E+01 -0.360251196E+01
     4
 # iter = 55000  time[fs]=55.00000
   C -0.634427190E+01 -0.729996110E-01 -0.288396607E+00
   C  0.612939089E+01 -0.132137852E+00  0.507252147E+00
   H -0.267408148E+02  0.981915625E+00  0.353015023E+01
   H  0.260535806E+02  0.216745356E+01 -0.365318464E+01
     4
 # iter = 55500  time[fs]=55.50000
   C -0.644460322E+01 -0.739194803E-01 -0.293306512E+00
   C  0.622592451E+01 -0.134274167E+00  0.515655188E+00
   H -0.271069139E+02  0.995406946E+00  0.357949172E+01
   H  0.264084246E+02  0.219721693E+01 -0.370387914E+01
     4
 # iter = 56000  time[fs]=56.00000
   C -0.654504756E+01 -0.748393041E-01 -0.298224793E+00
   C  0.632257091E+01 -0.136411879E+00  0.524066816E+00
   H -0.274731317E+02  0.100890299E+01  0.362885195E+01
   H  0.267633902E+02  0.222699179E+01 -0.375459492E+01
     4
 # iter = 56500  time[fs]=56.50000
   C -0.664560145E+01 -0.757590837E-01 -0.303151208E+00
   C  0.641932662E+01 -0.138550954E+00  0.532486786E+00
   H -0.278394653E+02  0.102240365E+01  0.367823044E+01
   H  0.271184745E+02  0.225677788E+01 -0.380533144E+01
     4
 # iter = 57000  time[fs]=57.00000
   C -0.674626159E+01 -0.766788204E-01 -0.308085526E+00
   C  0.651618835E+01 -0.140691358E+00  0.540914860E+00
   H -0.282059116E+02  0.103590879E+01  0.372762676E+01
   H  0.274736742E+02  0.228657490E+01 -0.385608819E+01
     4
 # iter = 57500  time[fs]=57.50000
   C -0.684702481E+01 -0.775985154E-01 -0.313027525E+00
   C  0.661315293E+01 -0.142833058E+00  0.549350811E+00
   H -0.285724678E+02  0.104941832E+01  0.377704046E+01
   H  0.278289866E+02  0.231638258E+01 -0.390686470E+01
     4
 # iter = 58000  time[fs]=58.00000
   C -0.694788808E+01 -0.785181701E-01 -0.317976992E+00
   C  0.671021735E+01 -0.144976022E+00  0.557794423E+00
   H -0.289391312E+02  0.106293212E+01  0.382647113E+01
   H  0.281844087E+02  0.234620069E+01 -0.395766048E+01
     4
 # iter = 58500  time[fs]=58.50000
   C -0.704884851E+01 -0.794377855E-01 -0.322933723E+00
   C  0.680737871E+01 -0.147120220E+00  0.566245487E+00
   H -0.293058990E+02  0.107645010E+01  0.387591836E+01
   H  0.285399380E+02  0.237602895E+01 -0.400847508E+01
     4
 # iter = 59000  time[fs]=59.00000
   C -0.714990332E+01 -0.803573630E-01 -0.327897523E+00
   C  0.690463423E+01 -0.149265623E+00  0.574703803E+00
   H -0.296727688E+02  0.108997215E+01  0.392538177E+01
   H  0.288955717E+02  0.240586714E+01 -0.405930806E+01
     4
 # iter = 59500  time[fs]=59.50000
   C -0.725104984E+01 -0.812769036E-01 -0.332868201E+00
   C  0.700198126E+01 -0.151412201E+00  0.583169177E+00
   H -0.300397382E+02  0.110349818E+01  0.397486099E+01
   H  0.292513074E+02  0.243571502E+01 -0.411015900E+01
     4
 # iter = 60000  time[fs]=60.00000
   C -0.735228552E+01 -0.821964085E-01 -0.337845578E+00
   C  0.709941724E+01 -0.153559928E+00  0.591641426E+00
   H -0.304068046E+02  0.111702809E+01  0.402435564E+01
   H  0.296071427E+02  0.246557237E+01 -0.416102749E+01
     4
 # iter = 60500  time[fs]=60.50000
   C -0.745360790E+01 -0.831158787E-01 -0.342829480E+00
   C  0.719693973E+01 -0.155708778E+00  0.600120370E+00
   H -0.307739659E+02  0.113056180E+01  0.407386538E+01
   H  0.299630752E+02  0.249543898E+01 -0.421191312E+01
     4
 # iter = 61000  time[fs]=61.00000
   C -0.755501463E+01 -0.840353153E-01 -0.347819738E+00
   C  0.729454638E+01 -0.157858724E+00  0.608605840E+00
   H -0.311412198E+02  0.114409922E+01  0.412338988E+01
   H  0.303191026E+02  0.252531463E+01 -0.426281552E+01
     4
 # iter = 61500  time[fs]=61.50000
   C -0.765650345E+01 -0.849547193E-01 -0.352816192E+00
   C  0.739223493E+01 -0.160009742E+00  0.617097669E+00
   H -0.315085642E+02  0.115764027E+01  0.417292880E+01
   H  0.306752228E+02  0.255519912E+01 -0.431373432E+01
     4
 # iter = 62000  time[fs]=62.00000
   C -0.775807219E+01 -0.858740917E-01 -0.357818686E+00
   C  0.749000320E+01 -0.162161808E+00  0.625595700E+00
   H -0.318759971E+02  0.117118486E+01  0.422248183E+01
   H  0.310314337E+02  0.258509227E+01 -0.436466916E+01
     4
 # iter = 62500  time[fs]=62.50000
   C -0.785971874E+01 -0.867934335E-01 -0.362827071E+00
   C  0.758784912E+01 -0.164314899E+00  0.634099779E+00
   H -0.322435165E+02  0.118473293E+01  0.427204866E+01
   H  0.313877333E+02  0.261499387E+01 -0.441561970E+01
     4
 # iter = 63000  time[fs]=63.00000
   C -0.796144112E+01 -0.877127456E-01 -0.367841203E+00
   C  0.768577067E+01 -0.166468992E+00  0.642609759E+00
   H -0.326111203E+02  0.119828439E+01  0.432162900E+01
   H  0.317441195E+02  0.264490376E+01 -0.446658559E+01
     4
 # iter = 63500  time[fs]=63.50000
   C -0.806323737E+01 -0.886320290E-01 -0.372860943E+00
   C  0.778376593E+01 -0.168624066E+00  0.651125498E+00
   H -0.329788069E+02  0.121183917E+01  0.437122256E+01
   H  0.321005905E+02  0.267482174E+01 -0.451756652E+01
     4
 # iter = 64000  time[fs]=64.00000
   C -0.816510563E+01 -0.895512844E-01 -0.377886156E+00
   C  0.788183303E+01 -0.170780100E+00  0.659646859E+00
   H -0.333465744E+02  0.122539720E+01  0.442082906E+01
   H  0.324571444E+02  0.270474766E+01 -0.456856216E+01
     4
 # iter = 64500  time[fs]=64.50000
   C -0.826704411E+01 -0.904705128E-01 -0.382916713E+00
   C  0.797997018E+01 -0.172937073E+00  0.668173708E+00
   H -0.337144210E+02  0.123895842E+01  0.447044824E+01
   H  0.328137795E+02  0.273468134E+01 -0.461957223E+01
     4
 # iter = 65000  time[fs]=65.00000
   C -0.836905107E+01 -0.913897150E-01 -0.387952489E+00
   C  0.807817565E+01 -0.175094967E+00  0.676705920E+00
   H -0.340823450E+02  0.125252276E+01  0.452007983E+01
   H  0.331704940E+02  0.276462263E+01 -0.467059641E+01
     4
 # iter = 65500  time[fs]=65.50000
   C -0.847112485E+01 -0.923088918E-01 -0.392993365E+00
   C  0.817644778E+01 -0.177253760E+00  0.685243369E+00
   H -0.344503449E+02  0.126609014E+01  0.456972358E+01
   H  0.335272862E+02  0.279457137E+01 -0.472163443E+01
     4
 # iter = 66000  time[fs]=66.00000
   C -0.857326384E+01 -0.932280439E-01 -0.398039222E+00
   C  0.827478495E+01 -0.179413436E+00  0.693785938E+00
   H -0.348184190E+02  0.127966052E+01  0.461937925E+01
   H  0.338841546E+02  0.282452741E+01 -0.477268600E+01
     4
 # iter = 66500  time[fs]=66.50000
   C -0.867546648E+01 -0.941471721E-01 -0.403089949E+00
   C  0.837318563E+01 -0.181573977E+00  0.702333509E+00
   H -0.351865659E+02  0.129323383E+01  0.466904659E+01
   H  0.342410975E+02  0.285449060E+01 -0.482375086E+01
     4
 # iter = 67000  time[fs]=67.00000
   C -0.877773127E+01 -0.950662771E-01 -0.408145436E+00
   C  0.847164831E+01 -0.183735363E+00  0.710885973E+00
   H -0.355547839E+02  0.130681001E+01  0.471872539E+01
   H  0.345981135E+02  0.288446080E+01 -0.487482874E+01
     4
 # iter = 67500  time[fs]=67.50000
   C -0.888005677E+01 -0.959853597E-01 -0.413205579E+00
   C  0.857017154E+01 -0.185897580E+00  0.719443221E+00
   H -0.359230718E+02  0.132038901E+01  0.476841540E+01
   H  0.349552010E+02  0.291443787E+01 -0.492591940E+01
     4
 # iter = 68000  time[fs]=68.00000
   C -0.898244158E+01 -0.969044205E-01 -0.418270275E+00
   C  0.866875394E+01 -0.188060611E+00  0.728005149E+00
   H -0.362914280E+02  0.133397077E+01  0.481811643E+01
   H  0.353123586E+02  0.294442169E+01 -0.497702258E+01
     4
 # iter = 68500  time[fs]=68.50000
   C -0.908488434E+01 -0.978234602E-01 -0.423339426E+00
   C  0.876739415E+01 -0.190224438E+00  0.736571656E+00
   H -0.366598513E+02  0.134755523E+01  0.486782825E+01
   H  0.356695850E+02  0.297441211E+01 -0.502813805E+01
     4
 # iter = 69000  time[fs]=69.00000
   C -0.918738375E+01 -0.987424794E-01 -0.428412936E+00
   C  0.886609087E+01 -0.192389048E+00  0.745142644E+00
   H -0.370283403E+02  0.136114235E+01  0.491755066E+01
   H  0.360268788E+02  0.300440902E+01 -0.507926557E+01
     4
 # iter = 69500  time[fs]=69.50000
   C -0.928993854E+01 -0.996614787E-01 -0.433490713E+00
   C  0.896484283E+01 -0.194554425E+00  0.753718018E+00
   H -0.373968937E+02  0.137473207E+01  0.496728347E+01
   H  0.363842387E+02  0.303441229E+01 -0.513040492E+01
     4
 # iter = 70000  time[fs]=70.00000
   C -0.939254749E+01 -0.100580459E+00 -0.438572666E+00
   C  0.906364882E+01 -0.196720555E+00  0.762297687E+00
   H -0.377655103E+02  0.138832435E+01  0.501702647E+01
   H  0.367416634E+02  0.306442180E+01 -0.518155588E+01
     4
 # iter = 70500  time[fs]=70.50000
   C -0.949520942E+01 -0.101499420E+00 -0.443658711E+00
   C  0.916250765E+01 -0.198887422E+00  0.770881562E+00
   H -0.381341889E+02  0.140191914E+01  0.506677948E+01
   H  0.370991517E+02  0.309443744E+01 -0.523271823E+01
     4
 # iter = 71000  time[fs]=71.00000
   C -0.959792318E+01 -0.102418363E+00 -0.448748761E+00
   C  0.926141818E+01 -0.201055014E+00  0.779469556E+00
   H -0.385029283E+02  0.141551639E+01  0.511654232E+01
   H  0.374567024E+02  0.312445909E+01 -0.528389177E+01
     4
 # iter = 71500  time[fs]=71.50000
   C -0.970068766E+01 -0.103337289E+00 -0.453842735E+00
   C  0.936037930E+01 -0.203223317E+00  0.788061585E+00
   H -0.388717274E+02  0.142911606E+01  0.516631481E+01
   H  0.378143142E+02  0.315448665E+01 -0.533507629E+01
     4
 # iter = 72000  time[fs]=72.00000
   C -0.980350179E+01 -0.104256198E+00 -0.458940555E+00
   C  0.945938995E+01 -0.205392318E+00  0.796657569E+00
   H -0.392405850E+02  0.144271810E+01  0.521609677E+01
   H  0.381719862E+02  0.318452000E+01 -0.538627160E+01
     4
 # iter = 72500  time[fs]=72.50000
   C -0.990636452E+01 -0.105175090E+00 -0.464042143E+00
   C  0.955844907E+01 -0.207562004E+00  0.805257429E+00
   H -0.396095002E+02  0.145632247E+01  0.526588804E+01
   H  0.385297171E+02  0.321455904E+01 -0.543747750E+01
     4
 # iter = 73000  time[fs]=73.00000
   C -0.100092748E+02 -0.106093966E+00 -0.469147425E+00
   C  0.965755567E+01 -0.209732363E+00  0.813861089E+00
   H -0.399784718E+02  0.146992913E+01  0.531568845E+01
   H  0.388875059E+02  0.324460368E+01 -0.548869382E+01
     4
 # iter = 73500  time[fs]=73.50000
   C -0.101122318E+02 -0.107012826E+00 -0.474256328E+00
   C  0.975670876E+01 -0.211903383E+00  0.822468473E+00
   H -0.403474988E+02  0.148353804E+01  0.536549784E+01
   H  0.392453516E+02  0.327465382E+01 -0.553992036E+01
     4
 # iter = 74000  time[fs]=74.00000
   C -0.102152344E+02 -0.107931672E+00 -0.479368782E+00
   C  0.985590740E+01 -0.214075052E+00  0.831079511E+00
   H -0.407165803E+02  0.149714916E+01  0.541531606E+01
   H  0.396032531E+02  0.330470935E+01 -0.559115696E+01
     4
 # iter = 74500  time[fs]=74.50000
   C -0.103182817E+02 -0.108850502E+00 -0.484484718E+00
   C  0.995515067E+01 -0.216247359E+00  0.839694131E+00
   H -0.410857152E+02  0.151076245E+01  0.546514296E+01
   H  0.399612094E+02  0.333477019E+01 -0.564240343E+01
     4
 # iter = 75000  time[fs]=75.00000
   C -0.104213729E+02 -0.109769319E+00 -0.489604071E+00
   C  0.100544377E+02 -0.218420292E+00  0.848312267E+00
   H -0.414549027E+02  0.152437787E+01  0.551497838E+01
   H  0.403192197E+02  0.336483624E+01 -0.569365962E+01
     4
 # iter = 75500  time[fs]=75.50000
   C -0.105245071E+02 -0.110688121E+00 -0.494726776E+00
   C  0.101537675E+02 -0.220593841E+00  0.856933851E+00
   H -0.418241417E+02  0.153799539E+01  0.556482218E+01
   H  0.406772829E+02  0.339490742E+01 -0.574492535E+01
     4
 # iter = 76000  time[fs]=76.00000
   C -0.106276834E+02 -0.111606911E+00 -0.499852770E+00
   C  0.102531394E+02 -0.222767995E+00  0.865558820E+00
   H -0.421934315E+02  0.155161497E+01  0.561467423E+01
   H  0.410353981E+02  0.342498365E+01 -0.579620047E+01
     4
 # iter = 76500  time[fs]=76.50000
   C -0.107309010E+02 -0.112525687E+00 -0.504981992E+00
   C  0.103525526E+02 -0.224942744E+00  0.874187110E+00
   H -0.425627712E+02  0.156523658E+01  0.566453438E+01
   H  0.413935645E+02  0.345506482E+01 -0.584748482E+01
     4
 # iter = 77000  time[fs]=77.00000
   C -0.108341592E+02 -0.113444451E+00 -0.510114382E+00
   C  0.104520061E+02 -0.227118078E+00  0.882818662E+00
   H -0.429321598E+02  0.157886018E+01  0.571440250E+01
   H  0.417517811E+02  0.348515087E+01 -0.589877825E+01
     4
 # iter = 77500  time[fs]=77.50000
   C -0.109374571E+02 -0.114363202E+00 -0.515249884E+00
   C  0.105514993E+02 -0.229293987E+00  0.891453416E+00
   H -0.433015966E+02  0.159248574E+01  0.576427847E+01
   H  0.421100472E+02  0.351524171E+01 -0.595008062E+01
     4
 # iter = 78000  time[fs]=78.00000
   C -0.110407940E+02 -0.115281942E+00 -0.520388440E+00
   C  0.106510313E+02 -0.231470462E+00  0.900091314E+00
   H -0.436710808E+02  0.160611323E+01  0.581416215E+01
   H  0.424683618E+02  0.354533727E+01 -0.600139177E+01
     4
 # iter = 78500  time[fs]=78.50000
   C -0.111441691E+02 -0.116200670E+00 -0.525529997E+00
   C  0.107506016E+02 -0.233647493E+00  0.908732300E+00
   H -0.440406116E+02  0.161974262E+01  0.586405342E+01
   H  0.428267243E+02  0.357543747E+01 -0.605271157E+01
     4
 # iter = 79000  time[fs]=79.00000
   C -0.112475819E+02 -0.117119386E+00 -0.530674500E+00
   C  0.108502092E+02 -0.235825071E+00  0.917376320E+00
   H -0.444101882E+02  0.163337387E+01  0.591395215E+01
   H  0.431851338E+02  0.360554224E+01 -0.610403988E+01
     4
 # iter = 79500  time[fs]=79.50000
   C -0.113510315E+02 -0.118038092E+00 -0.535821898E+00
   C  0.109498537E+02 -0.238003188E+00  0.926023320E+00
   H -0.447798098E+02  0.164700696E+01  0.596385824E+01
   H  0.435435895E+02  0.363565149E+01 -0.615537657E+01
     4
 # iter = 80000  time[fs]=80.00000
   C -0.114545172E+02 -0.118956788E+00 -0.540972141E+00
   C  0.110495343E+02 -0.240181834E+00  0.934673249E+00
   H -0.451494759E+02  0.166064186E+01  0.601377157E+01
   H  0.439020907E+02  0.366576517E+01 -0.620672150E+01
