     4
 # iter = 25000  time[fs]=25.00000
   C -0.994603488E+00  0.653479404E-01  0.480131979E-02
   C  0.102062258E+01  0.373772557E-01 -0.174088243E-01
   H -0.533475578E+01 -0.475124976E+00 -0.182095566E-01
   H  0.537488278E+01 -0.241066582E+00  0.480307768E+00
     4
 # iter = 25500  time[fs]=25.50000
   C -0.104047773E+01  0.687637671E-01  0.522537488E-02
   C  0.106396881E+01  0.391533567E-01 -0.191844534E-01
   H -0.566657259E+01 -0.506443760E+00 -0.203166982E-01
   H  0.569505669E+01 -0.256979347E+00  0.510342438E+00
     4
 # iter = 26000  time[fs]=26.00000
   C -0.108809747E+01  0.722246058E-01  0.566645029E-02
   C  0.110906104E+01  0.409174867E-01 -0.209961662E-01
   H -0.600100278E+01 -0.538027169E+00 -0.224452494E-01
   H  0.601783804E+01 -0.273023979E+00  0.540627278E+00
     4
 # iter = 26500  time[fs]=26.50000
   C -0.113732137E+01  0.757264672E-01  0.612410834E-02
   C  0.115575727E+01  0.426700169E-01 -0.228414668E-01
   H -0.633775875E+01 -0.569845879E+00 -0.245932110E-01
   H  0.634294704E+01 -0.289186387E+00  0.571135591E+00
     4
 # iter = 27000  time[fs]=27.00000
   C -0.118802013E+01  0.792658297E-01  0.659780774E-02
   C  0.120392775E+01  0.444114075E-01 -0.247180678E-01
   H -0.667659678E+01 -0.601875130E+00 -0.267588393E-01
   H  0.667014546E+01 -0.305454589E+00  0.601844679E+00
     4
 # iter = 27500  time[fs]=27.50000
   C -0.124007589E+01  0.828395700E-01  0.708694056E-02
   C  0.125345429E+01  0.461421687E-01 -0.266238678E-01
   H -0.701730873E+01 -0.634093839E+00 -0.289406067E-01
   H  0.699922904E+01 -0.321818317E+00  0.632735092E+00
     4
 # iter = 28000  time[fs]=28.00000
   C -0.129338145E+01  0.864449072E-01  0.759086050E-02
   C  0.130422948E+01  0.478628345E-01 -0.285569335E-01
   H -0.735971552E+01 -0.666483904E+00 -0.311371691E-01
   H  0.733002138E+01 -0.338268705E+00  0.663790044E+00
     4
 # iter = 28500  time[fs]=28.50000
   C -0.134783951E+01  0.900793565E-01  0.810890404E-02
   C  0.135615585E+01  0.495739439E-01 -0.305154849E-01
   H -0.770366207E+01 -0.699029678E+00 -0.333473392E-01
   H  0.766236920E+01 -0.354798052E+00  0.694994949E+00
     4
 # iter = 29000  time[fs]=29.00000
   C -0.140336177E+01  0.937406908E-01  0.864040610E-02
   C  0.140914501E+01  0.512760279E-01 -0.324978824E-01
   H -0.804901321E+01 -0.731717543E+00 -0.355700632E-01
   H  0.799613856E+01 -0.371399624E+00  0.726337058E+00
     4
 # iter = 29500  time[fs]=29.50000
   C -0.145986815E+01  0.974269085E-01  0.918471123E-02
   C  0.146311681E+01  0.529696017E-01 -0.345026148E-01
   H -0.839565055E+01 -0.764535577E+00 -0.378044028E-01
   H  0.833121174E+01 -0.388067506E+00  0.757805166E+00
     4
 # iter = 30000  time[fs]=30.00000
   C -0.151728598E+01  0.101136206E+00  0.974118146E-02
   C  0.151799857E+01  0.546551590E-01 -0.365282891E-01
   H -0.874346975E+01 -0.797473288E+00 -0.400495188E-01
   H  0.866748480E+01 -0.404796468E+00  0.789389371E+00
     4
 # iter = 30500  time[fs]=30.50000
   C -0.157554930E+01  0.104866953E+00  0.103092015E-01
   C  0.157372432E+01  0.563331688E-01 -0.385736204E-01
   H -0.909237850E+01 -0.830521390E+00 -0.423046581E-01
   H  0.900486552E+01 -0.421581872E+00  0.821080885E+00
     4
 # iter = 31000  time[fs]=31.00000
   C -0.163459818E+01  0.108617676E+00  0.108881823E-01
   C  0.163023411E+01  0.580040745E-01 -0.406374229E-01
   H -0.944229468E+01 -0.863671632E+00 -0.445691429E-01
   H  0.934327175E+01 -0.438419580E+00  0.852871872E+00
     4
 # iter = 31500  time[fs]=31.50000
   C -0.169437811E+01  0.112387033E+00  0.114775624E-01
   C  0.168747346E+01  0.596682928E-01 -0.427186020E-01
   H -0.979314502E+01 -0.896916647E+00 -0.468423607E-01
   H  0.968262998E+01 -0.455305889E+00  0.884755317E+00
     4
 # iter = 32000  time[fs]=32.00000
   C -0.175483943E+01  0.116173807E+00  0.120768095E-01
   C  0.174539274E+01  0.613262143E-01 -0.448161459E-01
   H -0.101448638E+02 -0.930249832E+00 -0.491237564E-01
   H  0.100228742E+02 -0.472237473E+00  0.916724915E+00
     4
 # iter = 32500  time[fs]=32.50000
   C -0.181593689E+01  0.119976888E+00  0.126854198E-01
   C  0.180394673E+01  0.629782043E-01 -0.469291192E-01
   H -0.104973919E+02 -0.963665245E+00 -0.514128258E-01
   H  0.103639450E+02 -0.489211330E+00  0.948774980E+00
     4
 # iter = 33000  time[fs]=33.00000
   C -0.187762914E+01  0.123795262E+00  0.133029182E-01
   C  0.186309411E+01  0.646246037E-01 -0.490566562E-01
   H -0.108506761E+02 -0.997157522E+00 -0.537091092E-01
   H  0.107057885E+02 -0.506224747E+00  0.980900367E+00
     4
 # iter = 33500  time[fs]=33.50000
   C -0.193987838E+01  0.127628000E+00  0.139288569E-01
   C  0.192279713E+01  0.662657306E-01 -0.511979549E-01
   H -0.112046679E+02 -0.103072180E+01 -0.560121866E-01
   H  0.110483561E+02 -0.523275260E+00  0.101309641E+01
     4
 # iter = 34000  time[fs]=34.00000
   C -0.200264999E+01  0.131474251E+00  0.145628145E-01
   C  0.198302119E+01  0.679018811E-01 -0.533522716E-01
   H -0.115593234E+02 -0.106435368E+01 -0.583216734E-01
   H  0.113916033E+02 -0.540360625E+00  0.104535884E+01
     4
 # iter = 34500  time[fs]=34.50000
   C -0.206591221E+01  0.135333234E+00  0.152043950E-01
   C  0.204373458E+01  0.695333311E-01 -0.555189161E-01
   H -0.119146028E+02 -0.109804911E+01 -0.606372163E-01
   H  0.117354896E+02 -0.557478796E+00  0.107768379E+01
     4
 # iter = 35000  time[fs]=35.00000
   C -0.212963587E+01  0.139204228E+00  0.158532263E-01
   C  0.210490816E+01  0.711603378E-01 -0.576972472E-01
   H -0.122704695E+02 -0.113180444E+01 -0.629584904E-01
   H  0.120799782E+02 -0.574627899E+00  0.111006770E+01
     4
 # iter = 35500  time[fs]=35.50000
   C -0.219379410E+01  0.143086570E+00  0.165089586E-01
   C  0.216651511E+01  0.727831406E-01 -0.598866684E-01
   H -0.126268900E+02 -0.116561628E+01 -0.652851958E-01
   H  0.124250351E+02 -0.591806216E+00  0.114250732E+01
     4
 # iter = 36000  time[fs]=36.00000
   C -0.225836219E+01  0.146979649E+00  0.171712637E-01
   C  0.222853075E+01  0.744019626E-01 -0.620866245E-01
   H -0.129838336E+02 -0.119948155E+01 -0.676170555E-01
   H  0.127706291E+02 -0.609012166E+00  0.117499963E+01
     4
 # iter = 36500  time[fs]=36.50000
   C -0.232331728E+01  0.150882896E+00  0.178398329E-01
   C  0.229093227E+01  0.760170116E-01 -0.642965979E-01
   H -0.133412722E+02 -0.123339740E+01 -0.699538131E-01
   H  0.131167315E+02 -0.626244291E+00  0.120754188E+01
     4
 # iter = 37000  time[fs]=37.00000
   C -0.238863828E+01  0.154795788E+00  0.185143764E-01
   C  0.235369862E+01  0.776284819E-01 -0.665161056E-01
   H -0.136991795E+02 -0.126736120E+01 -0.722952305E-01
   H  0.134633158E+02 -0.643501248E+00  0.124013151E+01
     4
 # iter = 37500  time[fs]=37.50000
   C -0.245430566E+01  0.158717836E+00  0.191946218E-01
   C  0.241681028E+01  0.792365543E-01 -0.687446966E-01
   H -0.140575317E+02 -0.130137052E+01 -0.746410867E-01
   H  0.138103576E+02 -0.660781790E+00  0.127276615E+01
     4
 # iter = 38000  time[fs]=38.00000
   C -0.252030131E+01  0.162648588E+00  0.198803129E-01
   C  0.248024919E+01  0.808413981E-01 -0.709819492E-01
   H -0.144163064E+02 -0.133542312E+01 -0.769911758E-01
   H  0.141578341E+02 -0.678084763E+00  0.130544362E+01
     4
 # iter = 38500  time[fs]=38.50000
   C -0.258660841E+01  0.166587622E+00  0.205712086E-01
   C  0.254399857E+01  0.824431712E-01 -0.732274684E-01
   H -0.147754830E+02 -0.136951689E+01 -0.793453058E-01
   H  0.145057243E+02 -0.695409095E+00  0.133816187E+01
     4
 # iter = 39000  time[fs]=39.00000
   C -0.265321134E+01  0.170534546E+00  0.212670821E-01
   C  0.260804283E+01  0.840420216E-01 -0.754808844E-01
   H -0.151350422E+02 -0.140364991E+01 -0.817032976E-01
   H  0.148540086E+02 -0.712753788E+00  0.137091901E+01
     4
 # iter = 39500  time[fs]=39.50000
   C -0.272009556E+01  0.174488994E+00  0.219677197E-01
   C  0.267236746E+01  0.856380875E-01 -0.777418502E-01
   H -0.154949663E+02 -0.143782037E+01 -0.840649835E-01
   H  0.152026688E+02 -0.730117912E+00  0.140371328E+01
     4
 # iter = 40000  time[fs]=40.00000
   C -0.278724752E+01  0.178450622E+00  0.226729201E-01
   C  0.273695893E+01  0.872314986E-01 -0.800100400E-01
   H -0.158552384E+02 -0.147202657E+01 -0.864302065E-01
   H  0.155516878E+02 -0.747500599E+00  0.143654301E+01
     4
 # iter = 40500  time[fs]=40.50000
   C -0.285465456E+01  0.182419111E+00  0.233824935E-01
   C  0.280180462E+01  0.888223766E-01 -0.822851476E-01
   H -0.162158432E+02 -0.150626695E+01 -0.887988193E-01
   H  0.159010497E+02 -0.764901037E+00  0.146940668E+01
     4
 # iter = 41000  time[fs]=41.00000
   C -0.292230486E+01  0.186394159E+00  0.240962606E-01
   C  0.286689274E+01  0.904108355E-01 -0.845668848E-01
   H -0.165767660E+02 -0.154054003E+01 -0.911706837E-01
   H  0.162507397E+02 -0.782318467E+00  0.150230282E+01
     4
 # iter = 41500  time[fs]=41.50000
   C -0.299018737E+01  0.190375486E+00  0.248140522E-01
   C  0.293221225E+01  0.919969826E-01 -0.868549805E-01
   H -0.169379932E+02 -0.157484443E+01 -0.935456697E-01
   H  0.166007438E+02 -0.799752176E+00  0.153523010E+01
     4
 # iter = 42000  time[fs]=42.00000
   C -0.305829172E+01  0.194362827E+00  0.255357086E-01
   C  0.299775284E+01  0.935809185E-01 -0.891491789E-01
   H -0.172995121E+02 -0.160917885E+01 -0.959236547E-01
   H  0.169510490E+02 -0.817201495E+00  0.156818723E+01
     4
 # iter = 42500  time[fs]=42.50000
   C -0.312660822E+01  0.198355934E+00  0.262610785E-01
   C  0.306350481E+01  0.951627382E-01 -0.914492387E-01
   H -0.176613107E+02 -0.164354207E+01 -0.983045236E-01
   H  0.173016430E+02 -0.834665796E+00  0.160117301E+01
     4
 # iter = 43000  time[fs]=43.00000
   C -0.319512774E+01  0.202354571E+00  0.269900189E-01
   C  0.312945906E+01  0.967425307E-01 -0.937549322E-01
   H -0.180233777E+02 -0.167793296E+01 -0.100688167E+00
   H  0.176525141E+02 -0.852144486E+00  0.163418633E+01
     4
 # iter = 43500  time[fs]=43.50000
   C -0.326384171E+01  0.206358520E+00  0.277223944E-01
   C  0.319560706E+01  0.983203804E-01 -0.960660440E-01
   H -0.183857025E+02 -0.171235043E+01 -0.103074483E+00
   H  0.180036516E+02 -0.869637009E+00  0.166722613E+01
     4
 # iter = 44000  time[fs]=44.00000
   C -0.333274208E+01  0.210367571E+00  0.284580767E-01
   C  0.326194077E+01  0.998963665E-01 -0.983823704E-01
   H -0.187482750E+02 -0.174679347E+01 -0.105463374E+00
   H  0.183550452E+02 -0.887142839E+00  0.170029139E+01
     4
 # iter = 44500  time[fs]=44.50000
   C -0.340182126E+01  0.214381529E+00  0.291969441E-01
   C  0.332845261E+01  0.101470564E+00 -0.100703719E+00
   H -0.191110860E+02 -0.178126111E+01 -0.107854747E+00
   H  0.187066851E+02 -0.904661478E+00  0.173338117E+01
     4
 # iter = 45000  time[fs]=45.00000
   C -0.347107209E+01  0.218400208E+00  0.299388810E-01
   C  0.339513546E+01  0.103043044E+00 -0.103029906E+00
   H -0.194741264E+02 -0.181575246E+01 -0.110248516E+00
   H  0.190585623E+02 -0.922192458E+00  0.176649458E+01
     4
 # iter = 45500  time[fs]=45.50000
   C -0.354048782E+01  0.222423433E+00  0.306837780E-01
   C  0.346198258E+01  0.104613872E+00 -0.105360759E+00
   H -0.198373879E+02 -0.185026664E+01 -0.112644598E+00
   H  0.194106681E+02 -0.939735333E+00  0.179963078E+01
     4
 # iter = 46000  time[fs]=46.00000
   C -0.361006207E+01  0.226451037E+00  0.314315307E-01
   C  0.352898761E+01  0.106183114E+00 -0.107696113E+00
   H -0.202008624E+02 -0.188480286E+01 -0.115042914E+00
   H  0.197629943E+02 -0.957289683E+00  0.183278895E+01
     4
 # iter = 46500  time[fs]=46.50000
   C -0.367978883E+01  0.230482864E+00  0.321820403E-01
   C  0.359614455E+01  0.107750827E+00 -0.110035812E+00
   H -0.205645425E+02 -0.191936033E+01 -0.117443389E+00
   H  0.201155332E+02 -0.974855110E+00  0.186596834E+01
     4
 # iter = 47000  time[fs]=47.00000
   C -0.374966238E+01  0.234518764E+00  0.329352124E-01
   C  0.366344771E+01  0.109317070E+00 -0.112379708E+00
   H -0.209284210E+02 -0.195393834E+01 -0.119845954E+00
   H  0.204682773E+02 -0.992431234E+00  0.189916824E+01
     4
 # iter = 47500  time[fs]=47.50000
   C -0.381967732E+01  0.238558595E+00  0.336909574E-01
   C  0.373089170E+01  0.110881896E+00 -0.114727660E+00
   H -0.212924910E+02 -0.198853618E+01 -0.122250540E+00
   H  0.208212198E+02 -0.101001769E+01  0.193238794E+01
     4
 # iter = 48000  time[fs]=48.00000
   C -0.388982854E+01  0.242602223E+00  0.344491898E-01
   C  0.379847143E+01  0.112445357E+00 -0.117079532E+00
   H -0.216567461E+02 -0.202315319E+01 -0.124657082E+00
   H  0.211743539E+02 -0.102761415E+01  0.196562680E+01
     4
 # iter = 48500  time[fs]=48.50000
   C -0.396011119E+01  0.246649519E+00  0.352098283E-01
   C  0.386618205E+01  0.114007500E+00 -0.119435197E+00
   H -0.220211803E+02 -0.205778876E+01 -0.127065521E+00
   H  0.215276733E+02 -0.104522028E+01  0.199888420E+01
     4
 # iter = 49000  time[fs]=49.00000
   C -0.403052065E+01  0.250700363E+00  0.359727950E-01
   C  0.393401897E+01  0.115568372E+00 -0.121794533E+00
   H -0.223857875E+02 -0.209244228E+01 -0.129475796E+00
   H  0.218811721E+02 -0.106283577E+01  0.203215955E+01
     4
 # iter = 49500  time[fs]=49.50000
   C -0.410105254E+01  0.254754638E+00  0.367380159E-01
   C  0.400197782E+01  0.117128018E+00 -0.124157423E+00
   H -0.227505624E+02 -0.212711319E+01 -0.131887853E+00
   H  0.222348445E+02 -0.108046032E+01  0.206545228E+01
     4
 # iter = 50000  time[fs]=50.00000
   C -0.417170270E+01  0.258812233E+00  0.375054201E-01
   C  0.407005446E+01  0.118686478E+00 -0.126523757E+00
   H -0.231154996E+02 -0.216180094E+01 -0.134301638E+00
   H  0.225886850E+02 -0.109809366E+01  0.209876185E+01
     4
 # iter = 50500  time[fs]=50.50000
   C -0.424246718E+01  0.262873044E+00  0.382749401E-01
   C  0.413824493E+01  0.120243793E+00 -0.128893428E+00
   H -0.234805941E+02 -0.219650502E+01 -0.136717101E+00
   H  0.229426885E+02 -0.111573551E+01  0.213208777E+01
     4
 # iter = 51000  time[fs]=51.00000
   C -0.431334218E+01  0.266936970E+00  0.390465111E-01
   C  0.420654547E+01  0.121800000E+00 -0.131266334E+00
   H -0.238458410E+02 -0.223122492E+01 -0.139134191E+00
   H  0.232968499E+02 -0.113338562E+01  0.216542952E+01
     4
 # iter = 51500  time[fs]=51.50000
   C -0.438432414E+01  0.271003915E+00  0.398200714E-01
   C  0.427495251E+01  0.123355136E+00 -0.133642379E+00
   H -0.242112357E+02 -0.226596019E+01 -0.141552864E+00
   H  0.236511646E+02 -0.115104374E+01  0.219878665E+01
     4
 # iter = 52000  time[fs]=52.00000
   C -0.445540960E+01  0.275073787E+00  0.405955616E-01
   C  0.434346262E+01  0.124909236E+00 -0.136021470E+00
   H -0.245767738E+02 -0.230071037E+01 -0.143973074E+00
   H  0.240056280E+02 -0.116870964E+01  0.223215871E+01
     4
 # iter = 52500  time[fs]=52.50000
   C -0.452659531E+01  0.279146499E+00  0.413729251E-01
   C  0.441207256E+01  0.126462332E+00 -0.138403518E+00
   H -0.249424512E+02 -0.233547503E+01 -0.146394778E+00
   H  0.243602357E+02 -0.118638310E+01  0.226554527E+01
     4
 # iter = 53000  time[fs]=53.00000
   C -0.459787815E+01  0.283221967E+00  0.421521076E-01
   C  0.448077920E+01  0.128014455E+00 -0.140788438E+00
   H -0.253082638E+02 -0.237025375E+01 -0.148817935E+00
   H  0.247149836E+02 -0.120406389E+01  0.229894592E+01
     4
 # iter = 53500  time[fs]=53.50000
   C -0.466925512E+01  0.287300111E+00  0.429330570E-01
   C  0.454957957E+01  0.129565637E+00 -0.143176148E+00
   H -0.256742077E+02 -0.240504614E+01 -0.151242506E+00
   H  0.250698678E+02 -0.122175182E+01  0.233236026E+01
     4
 # iter = 54000  time[fs]=54.00000
   C -0.474072339E+01  0.291380854E+00  0.437157233E-01
   C  0.461847084E+01  0.131115905E+00 -0.145566571E+00
   H -0.260402793E+02 -0.243985182E+01 -0.153668453E+00
   H  0.254248843E+02 -0.123944668E+01  0.236578792E+01
     4
 # iter = 54500  time[fs]=54.50000
   C -0.481228021E+01  0.295464121E+00  0.445000587E-01
   C  0.468745028E+01  0.132665287E+00 -0.147959630E+00
   H -0.264064750E+02 -0.247467042E+01 -0.156095740E+00
   H  0.257800296E+02 -0.125714830E+01  0.239922853E+01
     4
 # iter = 55000  time[fs]=55.00000
   C -0.488392299E+01  0.299549844E+00  0.452860171E-01
   C  0.475651529E+01  0.134213809E+00 -0.150355255E+00
   H -0.267727914E+02 -0.250950160E+01 -0.158524332E+00
   H  0.261353002E+02 -0.127485647E+01  0.243268176E+01
     4
 # iter = 55500  time[fs]=55.50000
   C -0.495564922E+01  0.303637953E+00  0.460735543E-01
   C  0.482566340E+01  0.135761498E+00 -0.152753375E+00
   H -0.271392252E+02 -0.254434503E+01 -0.160954195E+00
   H  0.264906926E+02 -0.129257104E+01  0.246614726E+01
     4
 # iter = 56000  time[fs]=56.00000
   C -0.502745651E+01  0.307728385E+00  0.468626279E-01
   C  0.489489220E+01  0.137308376E+00 -0.155153924E+00
   H -0.275057734E+02 -0.257920037E+01 -0.163385297E+00
   H  0.268462037E+02 -0.131029183E+01  0.249962471E+01
     4
 # iter = 56500  time[fs]=56.50000
   C -0.509934256E+01  0.311821076E+00  0.476531971E-01
   C  0.496419940E+01  0.138854468E+00 -0.157556839E+00
   H -0.278724330E+02 -0.261406733E+01 -0.165817607E+00
   H  0.272018303E+02 -0.132801868E+01  0.253311381E+01
     4
 # iter = 57000  time[fs]=57.00000
   C -0.517130517E+01  0.315915966E+00  0.484452225E-01
   C  0.503358283E+01  0.140399795E+00 -0.159962058E+00
   H -0.282392009E+02 -0.264894560E+01 -0.168251095E+00
   H  0.275575695E+02 -0.134575144E+01  0.256661426E+01
     4
 # iter = 57500  time[fs]=57.50000
   C -0.524334222E+01  0.320012998E+00  0.492386664E-01
   C  0.510304036E+01  0.141944378E+00 -0.162369522E+00
   H -0.286060745E+02 -0.268383489E+01 -0.170685732E+00
   H  0.279134184E+02 -0.136348995E+01  0.260012577E+01
     4
 # iter = 58000  time[fs]=58.00000
   C -0.531545169E+01  0.324112117E+00  0.500334924E-01
   C  0.517256999E+01  0.143488239E+00 -0.164779173E+00
   H -0.289730511E+02 -0.271873493E+01 -0.173121491E+00
   H  0.282693741E+02 -0.138123408E+01  0.263364808E+01
     4
 # iter = 58500  time[fs]=58.50000
   C -0.538763163E+01  0.328213268E+00  0.508296655E-01
   C  0.524216975E+01  0.145031398E+00 -0.167190957E+00
   H -0.293401281E+02 -0.275364546E+01 -0.175558344E+00
   H  0.286254341E+02 -0.139898368E+01  0.266718090E+01
     4
 # iter = 59000  time[fs]=59.00000
   C -0.545988015E+01  0.332316401E+00  0.516271519E-01
   C  0.531183780E+01  0.146573872E+00 -0.169604822E+00
   H -0.297073031E+02 -0.278856622E+01 -0.177996266E+00
   H  0.289815958E+02 -0.141673863E+01  0.270072400E+01
     4
 # iter = 59500  time[fs]=59.50000
   C -0.553219547E+01  0.336421467E+00  0.524259191E-01
   C  0.538157233E+01  0.148115680E+00 -0.172020715E+00
   H -0.300745735E+02 -0.282349697E+01 -0.180435232E+00
   H  0.293378567E+02 -0.143449879E+01  0.273427712E+01
     4
 # iter = 60000  time[fs]=60.00000
   C -0.560457585E+01  0.340528416E+00  0.532259358E-01
   C  0.545137162E+01  0.149656841E+00 -0.174438589E+00
   H -0.304419372E+02 -0.285843745E+01 -0.182875217E+00
   H  0.296942145E+02 -0.145226404E+01  0.276784003E+01
     4
 # iter = 60500  time[fs]=60.50000
   C -0.567701961E+01  0.344637204E+00  0.540271715E-01
   C  0.552123400E+01  0.151197370E+00 -0.176858395E+00
   H -0.308093919E+02 -0.289338746E+01 -0.185316200E+00
   H  0.300506667E+02 -0.147003426E+01  0.280141250E+01
     4
 # iter = 61000  time[fs]=61.00000
   C -0.574952515E+01  0.348747787E+00  0.548295973E-01
   C  0.559115788E+01  0.152737283E+00 -0.179280088E+00
   H -0.311769355E+02 -0.292834675E+01 -0.187758156E+00
   H  0.304072113E+02 -0.148780933E+01  0.283499430E+01
     4
 # iter = 61500  time[fs]=61.50000
   C -0.582209093E+01  0.352860120E+00  0.556331848E-01
   C  0.566114171E+01  0.154276598E+00 -0.181703623E+00
   H -0.315445658E+02 -0.296331513E+01 -0.190201064E+00
   H  0.307638460E+02 -0.150558915E+01  0.286858522E+01
     4
 # iter = 62000  time[fs]=62.00000
   C -0.589471545E+01  0.356974164E+00  0.564379068E-01
   C  0.573118400E+01  0.155815328E+00 -0.184128959E+00
   H -0.319122810E+02 -0.299829238E+01 -0.192644904E+00
   H  0.311205689E+02 -0.152337360E+01  0.290218506E+01
     4
 # iter = 62500  time[fs]=62.50000
   C -0.596739727E+01  0.361089878E+00  0.572437370E-01
   C  0.580128334E+01  0.157353488E+00 -0.186556053E+00
   H -0.322800790E+02 -0.303327831E+01 -0.195089655E+00
   H  0.314773778E+02 -0.154116258E+01  0.293579362E+01
     4
 # iter = 63000  time[fs]=63.00000
   C -0.604013501E+01  0.365207224E+00  0.580506501E-01
   C  0.587143832E+01  0.158891093E+00 -0.188984866E+00
   H -0.326479581E+02 -0.306827272E+01 -0.197535298E+00
   H  0.318342709E+02 -0.155895600E+01  0.296941071E+01
     4
 # iter = 63500  time[fs]=63.50000
   C -0.611292733E+01  0.369326165E+00  0.588586213E-01
   C  0.594164763E+01  0.160428155E+00 -0.191415359E+00
   H -0.330159163E+02 -0.310327542E+01 -0.199981812E+00
   H  0.321912463E+02 -0.157675375E+01  0.300303613E+01
     4
 # iter = 64000  time[fs]=64.00000
   C -0.618577294E+01  0.373446664E+00  0.596676271E-01
   C  0.601190996E+01  0.161964688E+00 -0.193847496E+00
   H -0.333839520E+02 -0.313828624E+01 -0.202429181E+00
   H  0.325483022E+02 -0.159455573E+01  0.303666971E+01
     4
 # iter = 64500  time[fs]=64.50000
   C -0.625867058E+01  0.377568687E+00  0.604776442E-01
   C  0.608222410E+01  0.163500705E+00 -0.196281240E+00
   H -0.337520634E+02 -0.317330500E+01 -0.204877386E+00
   H  0.329054369E+02 -0.161236187E+01  0.307031127E+01
     4
 # iter = 65000  time[fs]=65.00000
   C -0.633161907E+01  0.381692200E+00  0.612886506E-01
   C  0.615258882E+01  0.165036217E+00 -0.198716556E+00
   H -0.341202490E+02 -0.320833152E+01 -0.207326409E+00
   H  0.332626486E+02 -0.163017206E+01  0.310396065E+01
     4
 # iter = 65500  time[fs]=65.50000
   C -0.640461722E+01  0.385817171E+00  0.621006247E-01
   C  0.622300297E+01  0.166571237E+00 -0.201153410E+00
   H -0.344885072E+02 -0.324336566E+01 -0.209776235E+00
   H  0.336199357E+02 -0.164798623E+01  0.313761768E+01
     4
 # iter = 66000  time[fs]=66.00000
   C -0.647766391E+01  0.389943568E+00  0.629135456E-01
   C  0.629346543E+01  0.168105775E+00 -0.203591769E+00
   H -0.348568363E+02 -0.327840724E+01 -0.212226846E+00
   H  0.339772967E+02 -0.166580429E+01  0.317128219E+01
     4
 # iter = 66500  time[fs]=66.50000
   C -0.655075806E+01  0.394071361E+00  0.637273931E-01
   C  0.636397512E+01  0.169639844E+00 -0.206031603E+00
   H -0.352252350E+02 -0.331345612E+01 -0.214678227E+00
   H  0.343347299E+02 -0.168362617E+01  0.320495405E+01
     4
 # iter = 67000  time[fs]=67.00000
   C -0.662389862E+01  0.398200520E+00  0.645421476E-01
   C  0.643453099E+01  0.171173452E+00 -0.208472880E+00
   H -0.355937018E+02 -0.334851214E+01 -0.217130363E+00
   H  0.346922340E+02 -0.170145177E+01  0.323863309E+01
     4
 # iter = 67500  time[fs]=67.50000
   C -0.669708455E+01  0.402331016E+00  0.653577901E-01
   C  0.650513202E+01  0.172706611E+00 -0.210915570E+00
   H -0.359622353E+02 -0.338357516E+01 -0.219583239E+00
   H  0.350498074E+02 -0.171928103E+01  0.327231918E+01
     4
 # iter = 68000  time[fs]=68.00000
   C -0.677031488E+01  0.406462822E+00  0.661743022E-01
   C  0.657577722E+01  0.174239331E+00 -0.213359645E+00
   H -0.363308342E+02 -0.341864505E+01 -0.222036840E+00
   H  0.354074487E+02 -0.173711388E+01  0.330601217E+01
     4
 # iter = 68500  time[fs]=68.50000
   C -0.684358866E+01  0.410595912E+00  0.669916662E-01
   C  0.664646566E+01  0.175771622E+00 -0.215805076E+00
   H -0.366994971E+02 -0.345372165E+01 -0.224491152E+00
   H  0.357651567E+02 -0.175495025E+01  0.333971193E+01
     4
 # iter = 69000  time[fs]=69.00000
   C -0.691690494E+01  0.414730258E+00  0.678098646E-01
   C  0.671719640E+01  0.177303491E+00 -0.218251836E+00
   H -0.370682228E+02 -0.348880485E+01 -0.226946163E+00
   H  0.361229299E+02 -0.177279005E+01  0.337341833E+01
     4
 # iter = 69500  time[fs]=69.50000
   C -0.699026285E+01  0.418865835E+00  0.686288807E-01
   C  0.678796856E+01  0.178834950E+00 -0.220699899E+00
   H -0.374370100E+02 -0.352389452E+01 -0.229401858E+00
   H  0.364807671E+02 -0.179063324E+01  0.340713123E+01
     4
 # iter = 70000  time[fs]=70.00000
   C -0.706366151E+01  0.423002619E+00  0.694486981E-01
   C  0.685878126E+01  0.180366006E+00 -0.223149240E+00
   H -0.378058575E+02 -0.355899052E+01 -0.231858225E+00
   H  0.368386671E+02 -0.180847973E+01  0.344085051E+01
     4
 # iter = 70500  time[fs]=70.50000
   C -0.713710007E+01  0.427140587E+00  0.702693011E-01
   C  0.692963367E+01  0.181896668E+00 -0.225599832E+00
   H -0.381747643E+02 -0.359409275E+01 -0.234315251E+00
   H  0.371966287E+02 -0.182632948E+01  0.347457605E+01
     4
 # iter = 71000  time[fs]=71.00000
   C -0.721057772E+01  0.431279714E+00  0.710906742E-01
   C  0.700052498E+01  0.183426944E+00 -0.228051653E+00
   H -0.385437290E+02 -0.362920107E+01 -0.236772924E+00
   H  0.375546506E+02 -0.184418242E+01  0.350830773E+01
     4
 # iter = 71500  time[fs]=71.50000
   C -0.728409367E+01  0.435419979E+00  0.719128025E-01
   C  0.707145439E+01  0.184956843E+00 -0.230504678E+00
   H -0.389127507E+02 -0.366431538E+01 -0.239231232E+00
   H  0.379127317E+02 -0.186203848E+01  0.354204545E+01
     4
 # iter = 72000  time[fs]=72.00000
   C -0.735764714E+01  0.439561359E+00  0.727356715E-01
   C  0.714242115E+01  0.186486371E+00 -0.232958886E+00
   H -0.392818283E+02 -0.369943557E+01 -0.241690165E+00
   H  0.382708710E+02 -0.187989762E+01  0.357578908E+01
     4
 # iter = 72500  time[fs]=72.50000
   C -0.743123740E+01  0.443703834E+00  0.735592671E-01
   C  0.721342450E+01  0.188015537E+00 -0.235414252E+00
   H -0.396509608E+02 -0.373456152E+01 -0.244149710E+00
   H  0.386290673E+02 -0.189775977E+01  0.360953852E+01
     4
 # iter = 73000  time[fs]=73.00000
   C -0.750486371E+01  0.447847382E+00  0.743835755E-01
   C  0.728446372E+01  0.189544347E+00 -0.237870757E+00
   H -0.400201470E+02 -0.376969314E+01 -0.246609857E+00
   H  0.389873196E+02 -0.191562488E+01  0.364329366E+01
     4
 # iter = 73500  time[fs]=73.50000
   C -0.757852537E+01  0.451991985E+00  0.752085834E-01
   C  0.735553811E+01  0.191072810E+00 -0.240328379E+00
   H -0.403893861E+02 -0.380483032E+01 -0.249070595E+00
   H  0.393456268E+02 -0.193349289E+01  0.367705440E+01
     4
 # iter = 74000  time[fs]=74.00000
   C -0.765222169E+01  0.456137621E+00  0.760342779E-01
   C  0.742664700E+01  0.192600931E+00 -0.242787097E+00
   H -0.407586771E+02 -0.383997295E+01 -0.251531914E+00
   H  0.397039881E+02 -0.195136376E+01  0.371082065E+01
     4
 # iter = 74500  time[fs]=74.50000
   C -0.772595202E+01  0.460284273E+00  0.768606463E-01
   C  0.749778971E+01  0.194128718E+00 -0.245246892E+00
   H -0.411280190E+02 -0.387512096E+01 -0.253993804E+00
   H  0.400624024E+02 -0.196923743E+01  0.374459230E+01
     4
 # iter = 75000  time[fs]=75.00000
   C -0.779971570E+01  0.464431921E+00  0.776876764E-01
   C  0.756896561E+01  0.195656176E+00 -0.247707744E+00
   H -0.414974110E+02 -0.391027423E+01 -0.256456255E+00
   H  0.404208688E+02 -0.198711386E+01  0.377836925E+01
     4
 # iter = 75500  time[fs]=75.50000
   C -0.787351210E+01  0.468580548E+00  0.785153561E-01
   C  0.764017407E+01  0.197183313E+00 -0.250169635E+00
   H -0.418668522E+02 -0.394543268E+01 -0.258919257E+00
   H  0.407793863E+02 -0.200499299E+01  0.381215143E+01
     4
 # iter = 76000  time[fs]=76.00000
   C -0.794734063E+01  0.472730136E+00  0.793436738E-01
   C  0.771141448E+01  0.198710134E+00 -0.252632546E+00
   H -0.422363417E+02 -0.398059622E+01 -0.261382801E+00
   H  0.411379541E+02 -0.202287478E+01  0.384593873E+01
     4
 # iter = 76500  time[fs]=76.50000
   C -0.802120067E+01  0.476880669E+00  0.801726183E-01
   C  0.778268625E+01  0.200236645E+00 -0.255096459E+00
   H -0.426058786E+02 -0.401576476E+01 -0.263846879E+00
   H  0.414965713E+02 -0.204075919E+01  0.387973107E+01
     4
 # iter = 77000  time[fs]=77.00000
   C -0.809509165E+01  0.481032129E+00  0.810021784E-01
   C  0.785398881E+01  0.201762853E+00 -0.257561357E+00
   H -0.429754622E+02 -0.405093822E+01 -0.266311481E+00
   H  0.418552371E+02 -0.205864616E+01  0.391352837E+01
     4
 # iter = 77500  time[fs]=77.50000
   C -0.816901302E+01  0.485184500E+00  0.818323434E-01
   C  0.792532159E+01  0.203288763E+00 -0.260027223E+00
   H -0.433450917E+02 -0.408611651E+01 -0.268776599E+00
   H  0.422139506E+02 -0.207653566E+01  0.394733054E+01
     4
 # iter = 78000  time[fs]=78.00000
   C -0.824296422E+01  0.489337768E+00  0.826631028E-01
   C  0.799668404E+01  0.204814380E+00 -0.262494040E+00
   H -0.437147662E+02 -0.412129955E+01 -0.271242224E+00
   H  0.425727111E+02 -0.209442765E+01  0.398113750E+01
     4
 # iter = 78500  time[fs]=78.50000
   C -0.831694472E+01  0.493491916E+00  0.834944464E-01
   C  0.806807565E+01  0.206339709E+00 -0.264961792E+00
   H -0.440844851E+02 -0.415648726E+01 -0.273708348E+00
   H  0.429315177E+02 -0.211232208E+01  0.401494917E+01
     4
 # iter = 79000  time[fs]=79.00000
   C -0.839095399E+01  0.497646929E+00  0.843263643E-01
   C  0.813949589E+01  0.207864757E+00 -0.267430464E+00
   H -0.444542476E+02 -0.419167958E+01 -0.276174962E+00
   H  0.432903696E+02 -0.213021891E+01  0.404876547E+01
     4
 # iter = 79500  time[fs]=79.50000
   C -0.846499154E+01  0.501802793E+00  0.851588466E-01
   C  0.821094425E+01  0.209389527E+00 -0.269900041E+00
   H -0.448240530E+02 -0.422687641E+01 -0.278642061E+00
   H  0.436492663E+02 -0.214811810E+01  0.408258634E+01
     4
 # iter = 80000  time[fs]=80.00000
   C -0.853905687E+01  0.505959494E+00  0.859918841E-01
   C  0.828242025E+01  0.210914025E+00 -0.272370506E+00
   H -0.451939006E+02 -0.426207770E+01 -0.281109634E+00
   H  0.440082068E+02 -0.216601962E+01  0.411641169E+01
