     4
 # iter = 25000  time[fs]=25.00000
   C -0.102071628E+01 -0.302088402E-01  0.468750244E-01
   C  0.994282533E+00  0.341940698E-01 -0.287113494E-01
   H -0.517426219E+01  0.748014980E+00 -0.703911242E+00
   H  0.528451086E+01 -0.692934387E+00  0.616862228E+00
     4
 # iter = 25500  time[fs]=25.50000
   C -0.106918089E+01 -0.336049591E-01  0.506870003E-01
   C  0.103820162E+01  0.379226277E-01 -0.313719032E-01
   H -0.550362571E+01  0.797154188E+00 -0.751664217E+00
   H  0.559829834E+01 -0.736168550E+00  0.655707388E+00
     4
 # iter = 26000  time[fs]=26.00000
   C -0.112023960E+01 -0.371097367E-01  0.546210531E-01
   C  0.108472086E+01  0.417558888E-01 -0.341484292E-01
   H -0.583564165E+01  0.846721373E+00 -0.799827191E+00
   H  0.591466571E+01 -0.779783226E+00  0.694889291E+00
     4
 # iter = 26500  time[fs]=26.50000
   C -0.117367017E+01 -0.407175608E-01  0.586692003E-01
   C  0.113361610E+01  0.456889006E-01 -0.370337863E-01
   H -0.617001178E+01  0.896668426E+00 -0.848354544E+00
   H  0.623333741E+01 -0.823738218E+00  0.734372412E+00
     4
 # iter = 27000  time[fs]=27.00000
   C -0.122926828E+01 -0.444227854E-01  0.628238258E-01
   C  0.118468163E+01  0.497165409E-01 -0.400210441E-01
   H -0.650648453E+01  0.946954890E+00 -0.897207850E+00
   H  0.655407882E+01 -0.867999359E+00  0.774126557E+00
     4
 # iter = 27500  time[fs]=27.50000
   C -0.128684748E+01 -0.482198334E-01  0.670777211E-01
   C  0.123772992E+01  0.538336538E-01 -0.431035597E-01
   H -0.684484579E+01  0.997546431E+00 -0.946354443E+00
   H  0.687668870E+01 -0.912537365E+00  0.814125842E+00
     4
 # iter = 28000  time[fs]=28.00000
   C -0.134623840E+01 -0.521032772E-01  0.714241108E-01
   C  0.129259079E+01  0.580351535E-01 -0.462750283E-01
   H -0.718491200E+01  0.104841366E+01 -0.995766321E+00
   H  0.720099321E+01 -0.957326951E+00  0.854347918E+00
     4
 # iter = 28500  time[fs]=28.50000
   C -0.140728774E+01 -0.560678963E-01  0.758566630E-01
   C  0.134911032E+01  0.623161004E-01 -0.495295139E-01
   H -0.752652463E+01  0.109953122E+01 -0.104541930E+01
   H  0.752684121E+01 -0.100234614E+01  0.894773351E+00
     4
 # iter = 29000  time[fs]=29.00000
   C -0.146985708E+01 -0.601087174E-01  0.803694875E-01
   C  0.140714963E+01  0.666717532E-01 -0.528614619E-01
   H -0.786954591E+01  0.115087711E+01 -0.109529236E+01
   H  0.785410060E+01 -0.104757570E+01  0.935385144E+00
     4
 # iter = 29500  time[fs]=29.50000
   C -0.153382154E+01 -0.642210363E-01  0.849571246E-01
   C  0.146658347E+01  0.710976017E-01 -0.562656991E-01
   H -0.821385541E+01  0.120243209E+01 -0.114536710E+01
   H  0.818265520E+01 -0.109299871E+01  0.976168338E+00
     4
 # iter = 30000  time[fs]=30.00000
   C -0.159906857E+01 -0.684004294E-01  0.896145270E-01
   C  0.152729903E+01  0.755893850E-01 -0.597374251E-01
   H -0.855934725E+01  0.125417924E+01 -0.119562734E+01
   H  0.851240239E+01 -0.113860024E+01  0.101710971E+01
     4
 # iter = 30500  time[fs]=30.50000
   C -0.166549668E+01 -0.726427550E-01  0.943370378E-01
   C  0.158919461E+01  0.801430989E-01 -0.632721962E-01
   H -0.890592791E+01  0.130610363E+01 -0.124605875E+01
   H  0.884325110E+01 -0.118436697E+01  0.105819749E+01
     4
 # iter = 31000  time[fs]=31.00000
   C -0.173301436E+01 -0.769441474E-01  0.991203660E-01
   C  0.165217855E+01  0.847549952E-01 -0.668659074E-01
   H -0.925351437E+01  0.135819198E+01 -0.129664862E+01
   H  0.917512012E+01 -0.123028706E+01  0.109942120E+01
     4
 # iter = 31500  time[fs]=31.50000
   C -0.180153895E+01 -0.813010080E-01  0.103960560E+00
   C  0.171616808E+01  0.894215756E-01 -0.705147701E-01
   H -0.960203262E+01  0.141043247E+01 -0.134738558E+01
   H  0.950793679E+01 -0.127634987E+01  0.114077143E+01
     4
 # iter = 32000  time[fs]=32.00000
   C -0.187099580E+01 -0.857099919E-01  0.108853984E+00
   C  0.178108847E+01  0.941395816E-01 -0.742152908E-01
   H -0.995141645E+01  0.146281449E+01 -0.139825945E+01
   H  0.984163581E+01 -0.132254584E+01  0.118223972E+01
     4
 # iter = 32500  time[fs]=32.50000
   C -0.194131730E+01 -0.901679939E-01  0.113797290E+00
   C  0.184687206E+01  0.989059828E-01 -0.779642489E-01
   H -0.103016063E+02  0.151532851E+01 -0.144926107E+01
   H  0.101761583E+02 -0.136886634E+01  0.122381842E+01
     4
 # iter = 33000  time[fs]=33.00000
   C -0.201244221E+01 -0.946721334E-01  0.118787396E+00
   C  0.191345757E+01  0.103717963E+00 -0.817586748E-01
   H -0.106525486E+02  0.156796593E+01 -0.150038217E+01
   H  0.105114511E+02 -0.141530354E+01  0.126550061E+01
     4
 # iter = 33500  time[fs]=33.50000
   C -0.208431493E+01 -0.992197387E-01  0.123821463E+00
   C  0.198078939E+01  0.108572908E+00 -0.855958302E-01
   H -0.110041948E+02  0.162071896E+01 -0.155161525E+01
   H  0.108474658E+02 -0.146185033E+01  0.130727999E+01
     4
 # iter = 34000  time[fs]=34.00000
   C -0.215688491E+01 -0.103808332E+00  0.128896875E+00
   C  0.204881694E+01  0.113468390E+00 -0.894731878E-01
   H -0.113565007E+02  0.167358052E+01 -0.160295350E+01
   H  0.111841586E+02 -0.150850025E+01  0.134915084E+01
     4
 # iter = 34500  time[fs]=34.50000
   C -0.223010611E+01 -0.108435615E+00  0.134011218E+00
   C  0.211749421E+01  0.118402153E+00 -0.933884146E-01
   H -0.117094265E+02  0.172654418E+01 -0.165439070E+01
   H  0.115214892E+02 -0.155524735E+01  0.139110790E+01
     4
 # iter = 35000  time[fs]=35.00000
   C -0.230393652E+01 -0.113099456E+00  0.139162263E+00
   C  0.218677918E+01  0.123372104E+00 -0.973393541E-01
   H -0.120629354E+02  0.177960404E+01 -0.170592119E+01
   H  0.118594210E+02 -0.160208622E+01  0.143314637E+01
     4
 # iter = 35500  time[fs]=35.50000
   C -0.237833775E+01 -0.117797873E+00  0.144347949E+00
   C  0.225663349E+01  0.128376296E+00 -0.101324012E+00
   H -0.124169939E+02  0.183275471E+01 -0.175753974E+01
   H  0.121979203E+02 -0.164901188E+01  0.147526183E+01
     4
 # iter = 36000  time[fs]=36.00000
   C -0.245327466E+01 -0.122529027E+00  0.149566371E+00
   C  0.232702201E+01  0.133412920E+00 -0.105340541E+00
   H -0.127715715E+02  0.188599123E+01 -0.180924160E+01
   H  0.125369563E+02 -0.169601973E+01  0.151745023E+01
     4
 # iter = 36500  time[fs]=36.50000
   C -0.252871501E+01 -0.127291208E+00  0.154815763E+00
   C  0.239791254E+01  0.138480293E+00 -0.109387231E+00
   H -0.131266399E+02  0.193930905E+01 -0.186102234E+01
   H  0.128765003E+02 -0.174310553E+01  0.155970779E+01
     4
 # iter = 37000  time[fs]=37.00000
   C -0.260462921E+01 -0.132082823E+00  0.160094488E+00
   C  0.246927549E+01  0.143576846E+00 -0.113462492E+00
   H -0.134821731E+02  0.199270396E+01 -0.191287792E+01
   H  0.132165261E+02 -0.179026538E+01  0.160203106E+01
     4
 # iter = 37500  time[fs]=37.50000
   C -0.268099000E+01 -0.136902390E+00  0.165401024E+00
   C  0.254108364E+01  0.148701118E+00 -0.117564851E+00
   H -0.138381470E+02  0.204617206E+01 -0.196480456E+01
   H  0.135570093E+02 -0.183749564E+01  0.164441682E+01
     4
 # iter = 38000  time[fs]=38.00000
   C -0.275777227E+01 -0.141748528E+00  0.170733959E+00
   C  0.261331192E+01  0.153851748E+00 -0.121692934E+00
   H -0.141945395E+02  0.209970977E+01 -0.201679880E+01
   H  0.138979274E+02 -0.188479294E+01  0.168686209E+01
     4
 # iter = 38500  time[fs]=38.50000
   C -0.283495285E+01 -0.146619944E+00  0.176091979E+00
   C  0.268593717E+01  0.159027462E+00 -0.125845465E+00
   H -0.145513299E+02  0.215331372E+01 -0.206885740E+01
   H  0.142392594E+02 -0.193215415E+01  0.172936408E+01
     4
 # iter = 39000  time[fs]=39.00000
   C -0.291251030E+01 -0.151515436E+00  0.181473857E+00
   C  0.275893800E+01  0.164227071E+00 -0.130021254E+00
   H -0.149084991E+02  0.220698083E+01 -0.212097735E+01
   H  0.145809859E+02 -0.197957635E+01  0.177192020E+01
     4
 # iter = 39500  time[fs]=39.50000
   C -0.299042478E+01 -0.156433877E+00  0.186878451E+00
   C  0.283229459E+01  0.169449463E+00 -0.134219189E+00
   H -0.152660294E+02  0.226070819E+01 -0.217315586E+01
   H  0.149230886E+02 -0.202705681E+01  0.181452805E+01
     4
 # iter = 40000  time[fs]=40.00000
   C -0.306867788E+01 -0.161374212E+00  0.192304693E+00
   C  0.290598855E+01  0.174693597E+00 -0.138438233E+00
   H -0.156239042E+02  0.231449310E+01 -0.222539030E+01
   H  0.152655507E+02 -0.207459300E+01  0.185718537E+01
     4
 # iter = 40500  time[fs]=40.50000
   C -0.314725251E+01 -0.166335454E+00  0.197751585E+00
   C  0.298000284E+01  0.179958497E+00 -0.142677416E+00
   H -0.159821079E+02  0.236833304E+01 -0.227767823E+01
   H  0.156083562E+02 -0.212218253E+01  0.189989005E+01
     4
 # iter = 41000  time[fs]=41.00000
   C -0.322613277E+01 -0.171316676E+00  0.203218194E+00
   C  0.305432157E+01  0.185243247E+00 -0.146935829E+00
   H -0.163406262E+02  0.242222565E+01 -0.233001738E+01
   H  0.159514904E+02 -0.216982316E+01  0.194264009E+01
     4
 # iter = 41500  time[fs]=41.50000
   C -0.330530385E+01 -0.176317009E+00  0.208703644E+00
   C  0.312892998E+01  0.190546988E+00 -0.151212621E+00
   H -0.166994455E+02  0.247616871E+01 -0.238240559E+01
   H  0.162949394E+02 -0.221751280E+01  0.198543366E+01
     4
 # iter = 42000  time[fs]=42.00000
   C -0.338475194E+01 -0.181335636E+00  0.214207114E+00
   C  0.320381428E+01  0.195868910E+00 -0.155506993E+00
   H -0.170585530E+02  0.253016015E+01 -0.243484086E+01
   H  0.166386902E+02 -0.226524948E+01  0.202826900E+01
     4
 # iter = 42500  time[fs]=42.50000
   C -0.346446415E+01 -0.186371788E+00  0.219727834E+00
   C  0.327896161E+01  0.201208255E+00 -0.159818194E+00
   H -0.174179370E+02  0.258419803E+01 -0.248732130E+01
   H  0.169827304E+02 -0.231303135E+01  0.207114446E+01
     4
 # iter = 43000  time[fs]=43.00000
   C -0.354442842E+01 -0.191424743E+00  0.225265077E+00
   C  0.335435994E+01  0.206564307E+00 -0.164145518E+00
   H -0.177775862E+02  0.263828049E+01 -0.253984511E+01
   H  0.173270487E+02 -0.236085666E+01  0.211405850E+01
     4
 # iter = 43500  time[fs]=43.50000
   C -0.362463348E+01 -0.196493819E+00  0.230818164E+00
   C  0.342999801E+01  0.211936389E+00 -0.168488303E+00
   H -0.181374901E+02  0.269240583E+01 -0.259241064E+01
   H  0.176716340E+02 -0.240872376E+01  0.215700965E+01
     4
 # iter = 44000  time[fs]=44.00000
   C -0.370506873E+01 -0.201578372E+00  0.236386450E+00
   C  0.350586527E+01  0.217323867E+00 -0.172845921E+00
   H -0.184976387E+02  0.274657239E+01 -0.264501630E+01
   H  0.180164762E+02 -0.245663111E+01  0.219999655E+01
     4
 # iter = 44500  time[fs]=44.50000
   C -0.378572426E+01 -0.206677797E+00  0.241969332E+00
   C  0.358195183E+01  0.222726138E+00 -0.177217785E+00
   H -0.188580227E+02  0.280077866E+01 -0.269766059E+01
   H  0.183615657E+02 -0.250457722E+01  0.224301787E+01
     4
 # iter = 45000  time[fs]=45.00000
   C -0.386659075E+01 -0.211791520E+00  0.247566236E+00
   C  0.365824837E+01  0.228142635E+00 -0.181603336E+00
   H -0.192186333E+02  0.285502316E+01 -0.275034211E+01
   H  0.187068933E+02 -0.255256070E+01  0.228607240E+01
     4
 # iter = 45500  time[fs]=45.50000
   C -0.394765942E+01 -0.216918998E+00  0.253176624E+00
   C  0.373474617E+01  0.233572820E+00 -0.186002048E+00
   H -0.195794621E+02  0.290930453E+01 -0.280305952E+01
   H  0.190524503E+02 -0.260058025E+01  0.232915895E+01
     4
 # iter = 46000  time[fs]=46.00000
   C -0.402892202E+01 -0.222059718E+00  0.258799985E+00
   C  0.381143699E+01  0.239016186E+00 -0.190413426E+00
   H -0.199405012E+02  0.296362147E+01 -0.285581155E+01
   H  0.193982285E+02 -0.264863461E+01  0.237227643E+01
     4
 # iter = 46500  time[fs]=46.50000
   C -0.411037078E+01 -0.227213195E+00  0.264435836E+00
   C  0.388831307E+01  0.244472249E+00 -0.194836997E+00
   H -0.203017432E+02  0.301797273E+01 -0.290859700E+01
   H  0.197442203E+02 -0.269672259E+01  0.241542377E+01
     4
 # iter = 47000  time[fs]=47.00000
   C -0.419199837E+01 -0.232378968E+00  0.270083721E+00
   C  0.396536711E+01  0.249940554E+00 -0.199272316E+00
   H -0.206631810E+02  0.307235714E+01 -0.296141475E+01
   H  0.200904182E+02 -0.274484308E+01  0.245859999E+01
     4
 # iter = 47500  time[fs]=47.50000
   C -0.427379784E+01 -0.237556599E+00  0.275743204E+00
   C  0.404259220E+01  0.255420666E+00 -0.203718961E+00
   H -0.210248077E+02  0.312677360E+01 -0.301426370E+01
   H  0.204368153E+02 -0.279299499E+01  0.250180412E+01
     4
 # iter = 48000  time[fs]=48.00000
   C -0.435576267E+01 -0.242745674E+00  0.281413876E+00
   C  0.411998181E+01  0.260912173E+00 -0.208176530E+00
   H -0.213866171E+02  0.318122104E+01 -0.306714282E+01
   H  0.207834050E+02 -0.284117731E+01  0.254503527E+01
     4
 # iter = 48500  time[fs]=48.50000
   C -0.443788665E+01 -0.247945798E+00  0.287095345E+00
   C  0.419752978E+01  0.266414686E+00 -0.212644643E+00
   H -0.217486030E+02  0.323569845E+01 -0.312005115E+01
   H  0.211301808E+02 -0.288938907E+01  0.258829258E+01
     4
 # iter = 49000  time[fs]=49.00000
   C -0.452016392E+01 -0.253156596E+00  0.292787241E+00
   C  0.427523025E+01  0.271927830E+00 -0.217122939E+00
   H -0.221107598E+02  0.329020489E+01 -0.317298775E+01
   H  0.214771369E+02 -0.293762935E+01  0.263157522E+01
     4
 # iter = 49500  time[fs]=49.50000
   C -0.460258894E+01 -0.258377712E+00  0.298489210E+00
   C  0.435307769E+01  0.277451253E+00 -0.221611072E+00
   H -0.224730818E+02  0.334473942E+01 -0.322595173E+01
   H  0.218242674E+02 -0.298589726E+01  0.267488242E+01
     4
 # iter = 50000  time[fs]=50.00000
   C -0.468515642E+01 -0.263608805E+00  0.304200919E+00
   C  0.443106686E+01  0.282984617E+00 -0.226108717E+00
   H -0.228355638E+02  0.339930119E+01 -0.327894224E+01
   H  0.221715669E+02 -0.303419196E+01  0.271821342E+01
     4
 # iter = 50500  time[fs]=50.50000
   C -0.476786137E+01 -0.268849552E+00  0.309922045E+00
   C  0.450919276E+01  0.288527600E+00 -0.230615561E+00
   H -0.231982009E+02  0.345388937E+01 -0.333195848E+01
   H  0.225190303E+02 -0.308251266E+01  0.276156751E+01
     4
 # iter = 51000  time[fs]=51.00000
   C -0.485069904E+01 -0.274099644E+00  0.315652287E+00
   C  0.458745067E+01  0.294079896E+00 -0.235131306E+00
   H -0.235609883E+02  0.350850315E+01 -0.338499968E+01
   H  0.228666525E+02 -0.313085857E+01  0.280494402E+01
     4
 # iter = 51500  time[fs]=51.50000
   C -0.493366491E+01 -0.279358787E+00  0.321391351E+00
   C  0.466583609E+01  0.299641212E+00 -0.239655671E+00
   H -0.239239214E+02  0.356314178E+01 -0.343806510E+01
   H  0.232144287E+02 -0.317922897E+01  0.284834228E+01
     4
 # iter = 52000  time[fs]=52.00000
   C -0.501675468E+01 -0.284626699E+00  0.327138963E+00
   C  0.474434473E+01  0.305211269E+00 -0.244188384E+00
   H -0.242869959E+02  0.361780453E+01 -0.349115403E+01
   H  0.235623545E+02 -0.322762316E+01  0.289176168E+01
     4
 # iter = 52500  time[fs]=52.50000
   C -0.509996427E+01 -0.289903111E+00  0.332894856E+00
   C  0.482297252E+01  0.310789800E+00 -0.248729187E+00
   H -0.246502076E+02  0.367249072E+01 -0.354426580E+01
   H  0.239104255E+02 -0.327604045E+01  0.293520162E+01
     4
 # iter = 53000  time[fs]=53.00000
   C -0.518328978E+01 -0.295187767E+00  0.338658779E+00
   C  0.490171558E+01  0.316376550E+00 -0.253277834E+00
   H -0.250135525E+02  0.372719967E+01 -0.359739977E+01
   H  0.242586375E+02 -0.332448022E+01  0.297866152E+01
     4
 # iter = 53500  time[fs]=53.50000
   C -0.526672750E+01 -0.300480421E+00  0.344430490E+00
   C  0.498057021E+01  0.321971274E+00 -0.257834088E+00
   H -0.253770269E+02  0.378193075E+01 -0.365055530E+01
   H  0.246069866E+02 -0.337294183E+01  0.302214083E+01
     4
 # iter = 54000  time[fs]=54.00000
   C -0.535027387E+01 -0.305780838E+00  0.350209757E+00
   C  0.505953288E+01  0.327573739E+00 -0.262397725E+00
   H -0.257406271E+02  0.383668336E+01 -0.370373182E+01
   H  0.249554689E+02 -0.342142469E+01  0.306563904E+01
     4
 # iter = 54500  time[fs]=54.50000
   C -0.543392552E+01 -0.311088793E+00  0.355996359E+00
   C  0.513860022E+01  0.333183720E+00 -0.266968528E+00
   H -0.261043495E+02  0.389145689E+01 -0.375692874E+01
   H  0.253040807E+02 -0.346992824E+01  0.310915563E+01
     4
 # iter = 55000  time[fs]=55.00000
   C -0.551767921E+01 -0.316404069E+00  0.361790084E+00
   C  0.521776901E+01  0.338801005E+00 -0.271546291E+00
   H -0.264681909E+02  0.394625079E+01 -0.381014553E+01
   H  0.256528186E+02 -0.351845193E+01  0.315269011E+01
     4
 # iter = 55500  time[fs]=55.50000
   C -0.560153185E+01 -0.321726460E+00  0.367590730E+00
   C  0.529703617E+01  0.344425386E+00 -0.276130815E+00
   H -0.268321479E+02  0.400106453E+01 -0.386338166E+01
   H  0.260016792E+02 -0.356699523E+01  0.319624203E+01
     4
 # iter = 56000  time[fs]=56.00000
   C -0.568548049E+01 -0.327055768E+00  0.373398102E+00
   C  0.537639876E+01  0.350056666E+00 -0.280721911E+00
   H -0.271962176E+02  0.405589758E+01 -0.391663662E+01
   H  0.263506591E+02 -0.361555764E+01  0.323981093E+01
     4
 # iter = 56500  time[fs]=56.50000
   C -0.576952230E+01 -0.332391802E+00  0.379212012E+00
   C  0.545585396E+01  0.355694657E+00 -0.285319395E+00
   H -0.275603970E+02  0.411074944E+01 -0.396990993E+01
   H  0.266997554E+02 -0.366413867E+01  0.328339638E+01
     4
 # iter = 57000  time[fs]=57.00000
   C -0.585365457E+01 -0.337734380E+00  0.385032281E+00
   C  0.553539908E+01  0.361339176E+00 -0.289923093E+00
   H -0.279246831E+02  0.416561964E+01 -0.402320113E+01
   H  0.270489650E+02 -0.371273785E+01  0.332699797E+01
     4
 # iter = 57500  time[fs]=57.50000
   C -0.593787470E+01 -0.343083325E+00  0.390858739E+00
   C  0.561503154E+01  0.366990048E+00 -0.294532838E+00
   H -0.282890733E+02  0.422050772E+01 -0.407650975E+01
   H  0.273982851E+02 -0.376135474E+01  0.337061529E+01
     4
 # iter = 58000  time[fs]=58.00000
   C -0.602218021E+01 -0.348438469E+00  0.396691218E+00
   C  0.569474885E+01  0.372647106E+00 -0.299148467E+00
   H -0.286535649E+02  0.427541322E+01 -0.412983538E+01
   H  0.277477128E+02 -0.380998889E+01  0.341424796E+01
     4
 # iter = 58500  time[fs]=58.50000
   C -0.610656872E+01 -0.353799650E+00  0.402529560E+00
   C  0.577454865E+01  0.378310188E+00 -0.303769825E+00
   H -0.290181553E+02  0.433033572E+01 -0.418317759E+01
   H  0.280972454E+02 -0.385863990E+01  0.345789562E+01
     4
 # iter = 59000  time[fs]=59.00000
   C -0.619103793E+01 -0.359166711E+00  0.408373613E+00
   C  0.585442864E+01  0.383979139E+00 -0.308396764E+00
   H -0.293828422E+02  0.438527482E+01 -0.423653598E+01
   H  0.284468805E+02 -0.390730735E+01  0.350155789E+01
     4
 # iter = 59500  time[fs]=59.50000
   C -0.627558564E+01 -0.364539502E+00  0.414223229E+00
   C  0.593438666E+01  0.389653808E+00 -0.313029139E+00
   H -0.297476231E+02  0.444023010E+01 -0.428991017E+01
   H  0.287966155E+02 -0.395599087E+01  0.354523444E+01
     4
 # iter = 60000  time[fs]=60.00000
   C -0.636020975E+01 -0.369917879E+00  0.420078267E+00
   C  0.601442059E+01  0.395334053E+00 -0.317666813E+00
   H -0.301124958E+02  0.449520119E+01 -0.434329978E+01
   H  0.291464481E+02 -0.400469007E+01  0.358892493E+01
     4
 # iter = 60500  time[fs]=60.50000
   C -0.644490822E+01 -0.375301701E+00  0.425938590E+00
   C  0.609452841E+01  0.401019734E+00 -0.322309651E+00
   H -0.304774582E+02  0.455018772E+01 -0.439670445E+01
   H  0.294963759E+02 -0.405340459E+01  0.363262904E+01
     4
 # iter = 61000  time[fs]=61.00000
   C -0.652967910E+01 -0.380690835E+00  0.431804067E+00
   C  0.617470818E+01  0.406710718E+00 -0.326957527E+00
   H -0.308425080E+02  0.460518933E+01 -0.445012384E+01
   H  0.298463967E+02 -0.410213408E+01  0.367634646E+01
     4
 # iter = 61500  time[fs]=61.50000
   C -0.661452051E+01 -0.386085152E+00  0.437674571E+00
   C  0.625495803E+01  0.412406875E+00 -0.331610316E+00
   H -0.312076432E+02  0.466020568E+01 -0.450355760E+01
   H  0.301965083E+02 -0.415087821E+01  0.372007689E+01
     4
 # iter = 62000  time[fs]=62.00000
   C -0.669943065E+01 -0.391484525E+00  0.443549981E+00
   C  0.633527617E+01  0.418108082E+00 -0.336267900E+00
   H -0.315728619E+02  0.471523643E+01 -0.455700542E+01
   H  0.305467087E+02 -0.419963665E+01  0.376382004E+01
     4
 # iter = 62500  time[fs]=62.50000
   C -0.678440778E+01 -0.396888835E+00  0.449430179E+00
   C  0.641566086E+01  0.423814218E+00 -0.340930162E+00
   H -0.319381621E+02  0.477028126E+01 -0.461046698E+01
   H  0.308969959E+02 -0.424840908E+01  0.380757563E+01
     4
 # iter = 63000  time[fs]=63.00000
   C -0.686945021E+01 -0.402297965E+00  0.455315050E+00
   C  0.649611044E+01  0.429525167E+00 -0.345596993E+00
   H -0.323035421E+02  0.482533986E+01 -0.466394197E+01
   H  0.312473679E+02 -0.429719519E+01  0.385134339E+01
     4
 # iter = 63500  time[fs]=63.50000
   C -0.695455634E+01 -0.407711803E+00  0.461204486E+00
   C  0.657662329E+01  0.435240817E+00 -0.350268284E+00
   H -0.326690000E+02  0.488041193E+01 -0.471743011E+01
   H  0.315978228E+02 -0.434599469E+01  0.389512305E+01
     4
 # iter = 64000  time[fs]=64.00000
   C -0.703972461E+01 -0.413130240E+00  0.467098380E+00
   C  0.665719787E+01  0.440961060E+00 -0.354943934E+00
   H -0.330345342E+02  0.493549718E+01 -0.477093111E+01
   H  0.319483589E+02 -0.439480730E+01  0.393891436E+01
     4
 # iter = 64500  time[fs]=64.50000
   C -0.712495352E+01 -0.418553172E+00  0.472996630E+00
   C  0.673783268E+01  0.446685793E+00 -0.359623841E+00
   H -0.334001429E+02  0.499059532E+01 -0.482444469E+01
   H  0.322989744E+02 -0.444363273E+01  0.398271707E+01
     4
 # iter = 65000  time[fs]=65.00000
   C -0.721024160E+01 -0.423980496E+00  0.478899137E+00
   C  0.681852629E+01  0.452414912E+00 -0.364307908E+00
   H -0.337658245E+02  0.504570608E+01 -0.487797059E+01
   H  0.326496675E+02 -0.449247073E+01  0.402653095E+01
     4
 # iter = 65500  time[fs]=65.50000
   C -0.729558748E+01 -0.429412116E+00  0.484805805E+00
   C  0.689927729E+01  0.458148322E+00 -0.368996044E+00
   H -0.341315775E+02  0.510082919E+01 -0.493150855E+01
   H  0.330004367E+02 -0.454132102E+01  0.407035577E+01
     4
 # iter = 66000  time[fs]=66.00000
   C -0.738098979E+01 -0.434847935E+00  0.490716543E+00
   C  0.698008435E+01  0.463885928E+00 -0.373688157E+00
   H -0.344974004E+02  0.515596441E+01 -0.498505832E+01
   H  0.333512803E+02 -0.459018336E+01  0.411419129E+01
     4
 # iter = 66500  time[fs]=66.50000
   C -0.746644723E+01 -0.440287863E+00  0.496631259E+00
   C  0.706094617E+01  0.469627637E+00 -0.378384159E+00
   H -0.348632918E+02  0.521111148E+01 -0.503861966E+01
   H  0.337021968E+02 -0.463905750E+01  0.415803731E+01
     4
 # iter = 67000  time[fs]=67.00000
   C -0.755195854E+01 -0.445731809E+00  0.502549869E+00
   C  0.714186149E+01  0.475373362E+00 -0.383083967E+00
   H -0.352292501E+02  0.526627016E+01 -0.509219233E+01
   H  0.340531847E+02 -0.468794320E+01  0.420189361E+01
     4
 # iter = 67500  time[fs]=67.50000
   C -0.763752250E+01 -0.451179689E+00  0.508472288E+00
   C  0.722282910E+01  0.481123016E+00 -0.387787498E+00
   H -0.355952741E+02  0.532144022E+01 -0.514577611E+01
   H  0.344042425E+02 -0.473684024E+01  0.424575999E+01
     4
 # iter = 68000  time[fs]=68.00000
   C -0.772313793E+01 -0.456631419E+00  0.514398434E+00
   C  0.730384783E+01  0.486876516E+00 -0.392494673E+00
   H -0.359613623E+02  0.537662143E+01 -0.519937078E+01
   H  0.347553689E+02 -0.478574839E+01  0.428963625E+01
     4
 # iter = 68500  time[fs]=68.50000
   C -0.780880369E+01 -0.462086917E+00  0.520328230E+00
   C  0.738491654E+01  0.492633783E+00 -0.397205415E+00
   H -0.363275135E+02  0.543181357E+01 -0.525297611E+01
   H  0.351065624E+02 -0.483466743E+01  0.433352220E+01
     4
 # iter = 69000  time[fs]=69.00000
   C -0.789451868E+01 -0.467546106E+00  0.526261598E+00
   C  0.746603414E+01  0.498394737E+00 -0.401919650E+00
   H -0.366937265E+02  0.548701642E+01 -0.530659191E+01
   H  0.354578218E+02 -0.488359716E+01  0.437741764E+01
     4
 # iter = 69500  time[fs]=69.50000
   C -0.798028183E+01 -0.473008910E+00  0.532198465E+00
   C  0.754719956E+01  0.504159304E+00 -0.406637305E+00
   H -0.370600001E+02  0.554222979E+01 -0.536021797E+01
   H  0.358091457E+02 -0.493253737E+01  0.442132241E+01
     4
 # iter = 70000  time[fs]=70.00000
   C -0.806609209E+01 -0.478475255E+00  0.538138759E+00
   C  0.762841177E+01  0.509927410E+00 -0.411358310E+00
   H -0.374263329E+02  0.559745346E+01 -0.541385409E+01
   H  0.361605330E+02 -0.498148785E+01  0.446523631E+01
     4
 # iter = 70500  time[fs]=70.50000
   C -0.815194848E+01 -0.483945070E+00  0.544082411E+00
   C  0.770966978E+01  0.515698982E+00 -0.416082598E+00
   H -0.377927240E+02  0.565268725E+01 -0.546750009E+01
   H  0.365119823E+02 -0.503044843E+01  0.450915919E+01
     4
 # iter = 71000  time[fs]=71.00000
   C -0.823785002E+01 -0.489418284E+00  0.550029353E+00
   C  0.779097262E+01  0.521473954E+00 -0.420810102E+00
   H -0.381591722E+02  0.570793096E+01 -0.552115577E+01
   H  0.368634925E+02 -0.507941891E+01  0.455309087E+01
     4
 # iter = 71500  time[fs]=71.50000
   C -0.832379576E+01 -0.494894832E+00  0.555979520E+00
   C  0.787231935E+01  0.527252256E+00 -0.425540759E+00
   H -0.385256763E+02  0.576318441E+01 -0.557482097E+01
   H  0.372150625E+02 -0.512839910E+01  0.459703119E+01
     4
 # iter = 72000  time[fs]=72.00000
   C -0.840978480E+01 -0.500374647E+00  0.561932848E+00
   C  0.795370907E+01  0.533033825E+00 -0.430274506E+00
   H -0.388922354E+02  0.581844742E+01 -0.562849549E+01
   H  0.375666911E+02 -0.517738883E+01  0.464097999E+01
     4
 # iter = 72500  time[fs]=72.50000
   C -0.849581624E+01 -0.505857667E+00  0.567889276E+00
   C  0.803514090E+01  0.538818596E+00 -0.435011283E+00
   H -0.392588485E+02  0.587371981E+01 -0.568217918E+01
   H  0.379183773E+02 -0.522638794E+01  0.468493713E+01
     4
 # iter = 73000  time[fs]=73.00000
   C -0.858188924E+01 -0.511343828E+00  0.573848743E+00
   C  0.811661398E+01  0.544606509E+00 -0.439751032E+00
   H -0.396255144E+02  0.592900141E+01 -0.573587186E+01
   H  0.382701200E+02 -0.527539624E+01  0.472890244E+01
     4
 # iter = 73500  time[fs]=73.50000
   C -0.866800296E+01 -0.516833073E+00  0.579811191E+00
   C  0.819812748E+01  0.550397503E+00 -0.444493695E+00
   H -0.399922324E+02  0.598429206E+01 -0.578957338E+01
   H  0.386219181E+02 -0.532441357E+01  0.477287579E+01
     4
 # iter = 74000  time[fs]=74.00000
   C -0.875415658E+01 -0.522325341E+00  0.585776564E+00
   C  0.827968060E+01  0.556191521E+00 -0.449239218E+00
   H -0.403590013E+02  0.603959160E+01 -0.584328358E+01
   H  0.389737708E+02 -0.537343979E+01  0.481685703E+01
     4
 # iter = 74500  time[fs]=74.50000
   C -0.884034932E+01 -0.527820577E+00  0.591744806E+00
   C  0.836127256E+01  0.561988505E+00 -0.453987546E+00
   H -0.407258204E+02  0.609489986E+01 -0.589700230E+01
   H  0.393256769E+02 -0.542247472E+01  0.486084604E+01
     4
 # iter = 75000  time[fs]=75.00000
   C -0.892658043E+01 -0.533318726E+00  0.597715865E+00
   C  0.844290261E+01  0.567788401E+00 -0.458738627E+00
   H -0.410926887E+02  0.615021671E+01 -0.595072940E+01
   H  0.396776356E+02 -0.547151823E+01  0.490484266E+01
     4
 # iter = 75500  time[fs]=75.50000
   C -0.901284915E+01 -0.538819733E+00  0.603689687E+00
   C  0.852456999E+01  0.573591156E+00 -0.463492411E+00
   H -0.414596053E+02  0.620554198E+01 -0.600446473E+01
   H  0.400296460E+02 -0.552057016E+01  0.494884677E+01
     4
 # iter = 76000  time[fs]=76.00000
   C -0.909915477E+01 -0.544323547E+00  0.609666223E+00
   C  0.860627400E+01  0.579396717E+00 -0.468248847E+00
   H -0.418265694E+02  0.626087554E+01 -0.605820815E+01
   H  0.403817071E+02 -0.556963036E+01  0.499285825E+01
     4
 # iter = 76500  time[fs]=76.50000
   C -0.918549658E+01 -0.549830117E+00  0.615645423E+00
   C  0.868801395E+01  0.585205034E+00 -0.473007888E+00
   H -0.421935802E+02  0.631621723E+01 -0.611195952E+01
   H  0.407338181E+02 -0.561869871E+01  0.503687696E+01
     4
 # iter = 77000  time[fs]=77.00000
   C -0.927187392E+01 -0.555339394E+00  0.621627239E+00
   C  0.876978914E+01  0.591016058E+00 -0.477769487E+00
   H -0.425606369E+02  0.637156694E+01 -0.616571871E+01
   H  0.410859780E+02 -0.566777507E+01  0.508090280E+01
     4
 # iter = 77500  time[fs]=77.50000
   C -0.935828610E+01 -0.560851330E+00  0.627611624E+00
   C  0.885159894E+01  0.596829740E+00 -0.482533598E+00
   H -0.429277387E+02  0.642692451E+01 -0.621948559E+01
   H  0.414381862E+02 -0.571685929E+01  0.512493563E+01
     4
 # iter = 78000  time[fs]=78.00000
   C -0.944473250E+01 -0.566365877E+00  0.633598534E+00
   C  0.893344269E+01  0.602646035E+00 -0.487300177E+00
   H -0.432948848E+02  0.648228982E+01 -0.627326002E+01
   H  0.417904418E+02 -0.576595125E+01  0.516897535E+01
     4
 # iter = 78500  time[fs]=78.50000
   C -0.953121248E+01 -0.571882990E+00  0.639587923E+00
   C  0.901531978E+01  0.608464895E+00 -0.492069180E+00
   H -0.436620745E+02  0.653766275E+01 -0.632704189E+01
   H  0.421427439E+02 -0.581505083E+01  0.521302184E+01
     4
 # iter = 79000  time[fs]=79.00000
   C -0.961772544E+01 -0.577402625E+00  0.645579749E+00
   C  0.909722959E+01  0.614286277E+00 -0.496840566E+00
   H -0.440293070E+02  0.659304316E+01 -0.638083108E+01
   H  0.424950919E+02 -0.586415790E+01  0.525707499E+01
     4
 # iter = 79500  time[fs]=79.50000
   C -0.970427078E+01 -0.582924738E+00  0.651573969E+00
   C  0.917917154E+01  0.620110138E+00 -0.501614293E+00
   H -0.443965817E+02  0.664843094E+01 -0.643462745E+01
   H  0.428474849E+02 -0.591327234E+01  0.530113470E+01
     4
 # iter = 80000  time[fs]=80.00000
   C -0.979084792E+01 -0.588449287E+00  0.657570542E+00
   C  0.926114506E+01  0.625936436E+00 -0.506390321E+00
   H -0.447638979E+02  0.670382597E+01 -0.648843091E+01
   H  0.431999222E+02 -0.596239404E+01  0.534520086E+01
