     4
 # iter = 25000  time[fs]=25.00000
   C -0.102802922E+01 -0.629068936E-02 -0.588396429E-01
   C  0.992603833E+00 -0.299853467E-01 -0.142961414E-01
   H -0.525523758E+01  0.446309050E+00  0.666164501E+00
   H  0.526302361E+01 -0.129746378E+00 -0.469016983E+00
     4
 # iter = 25500  time[fs]=25.50000
   C -0.107624831E+01 -0.769238624E-02 -0.627208816E-01
   C  0.103493958E+01 -0.303529374E-01 -0.129603280E-01
   H -0.558707569E+01  0.475171462E+00  0.710424545E+00
   H  0.558267777E+01 -0.138058965E+00 -0.499999313E+00
     4
 # iter = 26000  time[fs]=26.00000
   C -0.112768706E+01 -0.907178570E-02 -0.666982360E-01
   C  0.108049066E+01 -0.307575457E-01 -0.115393805E-01
   H -0.592156585E+01  0.504279863E+00  0.755074017E+00
   H  0.590503612E+01 -0.146440899E+00 -0.531239294E+00
     4
 # iter = 26500  time[fs]=26.50000
   C -0.118207167E+01 -0.104331658E-01 -0.707670838E-01
   C  0.112898319E+01 -0.311931985E-01 -0.100365490E-01
   H -0.625841230E+01  0.533606768E+00  0.800069450E+00
   H  0.622980359E+01 -0.154885036E+00 -0.562709920E+00
     4
 # iter = 27000  time[fs]=27.00000
   C -0.123914750E+01 -0.117801524E-01 -0.749226417E-01
   C  0.118016256E+01 -0.316548528E-01 -0.845548498E-02
   H -0.659736532E+01  0.563129060E+00  0.845374308E+00
   H  0.655673010E+01 -0.163385262E+00 -0.594388242E+00
     4
 # iter = 27500  time[fs]=27.50000
   C -0.129868019E+01 -0.131157822E-01 -0.791600820E-01
   C  0.123379451E+01 -0.321382750E-01 -0.680007152E-02
   H -0.693821234E+01  0.592827111E+00  0.890957588E+00
   H  0.688560200E+01 -0.171936314E+00 -0.626254591E+00
     4
 # iter = 28000  time[fs]=28.00000
   C -0.136045569E+01 -0.144425755E-01 -0.834746292E-01
   C  0.128966512E+01 -0.326399248E-01 -0.507428784E-02
   H -0.728077094E+01  0.622684113E+00  0.936792750E+00
   H  0.721623537E+01 -0.180533626E+00 -0.658291981E+00
     4
 # iter = 28500  time[fs]=28.50000
   C -0.142427958E+01 -0.157626101E-01 -0.878616353E-01
   C  0.134758010E+01 -0.331568475E-01 -0.328210480E-02
   H -0.762488345E+01  0.652685564E+00  0.982856896E+00
   H  0.754847084E+01 -0.189173216E+00 -0.690485640E+00
     4
 # iter = 29000  time[fs]=29.00000
   C -0.148997596E+01 -0.170775899E-01 -0.923166332E-01
   C  0.140736371E+01 -0.336865802E-01 -0.142740902E-02
   H -0.797041279E+01  0.682818861E+00  0.102913013E+01
   H  0.788216944E+01 -0.197851590E+00 -0.722822641E+00
     4
 # iter = 29500  time[fs]=29.50000
   C -0.155738605E+01 -0.183889064E-01 -0.968353717E-01
   C  0.146885734E+01 -0.342270697E-01  0.486049860E-03
   H -0.831723897E+01  0.713072985E+00  0.107559506E+01
   H  0.821720927E+01 -0.206565667E+00 -0.755291604E+00
     4
 # iter = 30000  time[fs]=30.00000
   C -0.162636682E+01 -0.196976923E-01 -0.101413836E+00
   C  0.153191809E+01 -0.347766035E-01  0.245469325E-02
   H -0.866525648E+01  0.743438246E+00  0.112223638E+01
   H  0.855348290E+01 -0.215312718E+00 -0.787882463E+00
     4
 # iter = 30500  time[fs]=30.50000
   C -0.169678943E+01 -0.210048664E-01 -0.106048258E+00
   C  0.159641731E+01 -0.353337509E-01  0.447513360E-02
   H -0.901437199E+01  0.773906074E+00  0.116904057E+01
   H  0.889089512E+01 -0.224090314E+00 -0.820586263E+00
     4
 # iter = 31000  time[fs]=31.00000
   C -0.176853789E+01 -0.223111723E-01 -0.110735114E+00
   C  0.166223916E+01 -0.358973152E-01  0.654418389E-02
   H -0.936450263E+01  0.804468859E+00  0.121599559E+01
   H  0.922936123E+01 -0.232896281E+00 -0.853395008E+00
     4
 # iter = 31500  time[fs]=31.50000
   C -0.184150771E+01 -0.236172095E-01 -0.115471122E+00
   C  0.172927928E+01 -0.364662932E-01  0.865885942E-02
   H -0.971557446E+01  0.835119804E+00  0.126309071E+01
   H  0.956880552E+01 -0.241728672E+00 -0.886301527E+00
     4
 # iter = 32000  time[fs]=32.00000
   C -0.191560471E+01 -0.249234595E-01 -0.120253234E+00
   C  0.179744363E+01 -0.370398420E-01  0.108163745E-01
   H -0.100675212E+02  0.865852822E+00  0.131031632E+01
   H  0.990916006E+01 -0.250585730E+00 -0.919299361E+00
     4
 # iter = 32500  time[fs]=32.50000
   C -0.199074387E+01 -0.262303079E-01 -0.125078621E+00
   C  0.186664734E+01 -0.376172519E-01  0.130141356E-01
   H -0.104202834E+02  0.896662435E+00  0.135766376E+01
   H  0.102503637E+02 -0.259465869E+00 -0.952382676E+00
     4
 # iter = 33000  time[fs]=33.00000
   C -0.206684838E+01 -0.275380613E-01 -0.129944661E+00
   C  0.193681371E+01 -0.381979240E-01  0.152497320E-01
   H -0.107738072E+02  0.927543695E+00  0.140512519E+01
   H  0.105923612E+02 -0.268367649E+00 -0.985546179E+00
     4
 # iter = 33500  time[fs]=33.50000
   C -0.214384870E+01 -0.288469619E-01 -0.134848926E+00
   C  0.200787334E+01 -0.387813515E-01  0.175209256E-01
   H -0.111280441E+02  0.958492120E+00  0.145269353E+01
   H  0.109351025E+02 -0.277289763E+00 -0.101878506E+01
     4
 # iter = 34000  time[fs]=34.00000
   C -0.222168184E+01 -0.301571996E-01 -0.139789168E+00
   C  0.207976332E+01 -0.393671048E-01  0.198256399E-01
   H -0.114829498E+02  0.989503639E+00  0.150036235E+01
   H  0.112785419E+02 -0.286231016E+00 -0.105209493E+01
     4
 # iter = 34500  time[fs]=34.50000
   C -0.230029057E+01 -0.314689211E-01 -0.144763306E+00
   C  0.215242657E+01 -0.399548185E-01  0.221619488E-01
   H -0.118384841E+02  0.102057454E+01  0.154812575E+01
   H  0.116226381E+02 -0.295190318E+00 -0.108547177E+01
     4
 # iter = 35000  time[fs]=35.00000
   C -0.237962285E+01 -0.327822380E-01 -0.149769413E+00
   C  0.222581113E+01 -0.405441816E-01  0.245280656E-01
   H -0.121946103E+02  0.105170142E+01  0.159597837E+01
   H  0.119673531E+02 -0.304166665E+00 -0.111891190E+01
     4
 # iter = 35500  time[fs]=35.50000
   C -0.245963128E+01 -0.340972334E-01 -0.154805703E+00
   C  0.229986969E+01 -0.411349284E-01  0.269223328E-01
   H -0.125512947E+02  0.108288117E+01  0.164391528E+01
   H  0.123126520E+02 -0.313159140E+00 -0.115241192E+01
     4
 # iter = 36000  time[fs]=36.00000
   C -0.254027259E+01 -0.354139668E-01 -0.159870519E+00
   C  0.237455908E+01 -0.417268319E-01  0.293432119E-01
   H -0.129085066E+02  0.111411094E+01  0.169193194E+01
   H  0.126585029E+02 -0.322166894E+00 -0.118596874E+01
     4
 # iter = 36500  time[fs]=36.50000
   C -0.262150721E+01 -0.367324789E-01 -0.164962325E+00
   C  0.244983981E+01 -0.423196972E-01  0.317892738E-01
   H -0.132662173E+02  0.114538810E+01  0.174002420E+01
   H  0.130048764E+02 -0.331189144E+00 -0.121957945E+01
     4
 # iter = 37000  time[fs]=37.00000
   C -0.270329891E+01 -0.380527946E-01 -0.170079695E+00
   C  0.252567573E+01 -0.429133573E-01  0.342591905E-01
   H -0.136244009E+02  0.117671020E+01  0.178818819E+01
   H  0.133517453E+02 -0.340225166E+00 -0.125324139E+01
     4
 # iter = 37500  time[fs]=37.50000
   C -0.278561443E+01 -0.393749263E-01 -0.175221303E+00
   C  0.260203366E+01 -0.435076685E-01  0.367517268E-01
   H -0.139830331E+02  0.120807501E+01  0.183642035E+01
   H  0.136990845E+02 -0.349274289E+00 -0.128695209E+01
     4
 # iter = 38000  time[fs]=38.00000
   C -0.286842321E+01 -0.406988761E-01 -0.180385913E+00
   C  0.267888312E+01 -0.441025069E-01  0.392657329E-01
   H -0.143420914E+02  0.123948045E+01  0.188471738E+01
   H  0.140468708E+02 -0.358335890E+00 -0.132070925E+01
     4
 # iter = 38500  time[fs]=38.50000
   C -0.295169714E+01 -0.420246379E-01 -0.185572379E+00
   C  0.275619605E+01 -0.446977659E-01  0.418001372E-01
   H -0.147015552E+02  0.127092457E+01  0.193307621E+01
   H  0.143950826E+02 -0.367409389E+00 -0.135451074E+01
     4
 # iter = 39000  time[fs]=39.00000
   C -0.303541025E+01 -0.433521990E-01 -0.190779628E+00
   C  0.283394656E+01 -0.452933533E-01  0.443539408E-01
   H -0.150614051E+02  0.130240558E+01  0.198149398E+01
   H  0.147436997E+02 -0.376494245E+00 -0.138835455E+01
     4
 # iter = 39500  time[fs]=39.50000
   C -0.311953860E+01 -0.446815413E-01 -0.196006662E+00
   C  0.291211077E+01 -0.458891896E-01  0.469262106E-01
   H -0.154216232E+02  0.133392181E+01  0.202996803E+01
   H  0.150927036E+02 -0.385589953E+00 -0.142223882E+01
     4
 # iter = 40000  time[fs]=40.00000
   C -0.320406002E+01 -0.460126424E-01 -0.201252546E+00
   C  0.299066655E+01 -0.464852060E-01  0.495160752E-01
   H -0.157821926E+02  0.136547168E+01  0.207849587E+01
   H  0.154420766E+02 -0.394696043E+00 -0.145616182E+01
     4
 # iter = 40500  time[fs]=40.50000
   C -0.328895397E+01 -0.473454769E-01 -0.206516408E+00
   C  0.306959344E+01 -0.470813429E-01  0.521227192E-01
   H -0.161430978E+02  0.139705374E+01  0.212707519E+01
   H  0.157918027E+02 -0.403812073E+00 -0.149012192E+01
     4
 # iter = 41000  time[fs]=41.00000
   C -0.337420140E+01 -0.486800167E-01 -0.211797430E+00
   C  0.314887242E+01 -0.476775488E-01  0.547453791E-01
   H -0.165043242E+02  0.142866662E+01  0.217570380E+01
   H  0.161418664E+02 -0.412937628E+00 -0.152411757E+01
     4
 # iter = 41500  time[fs]=41.50000
   C -0.345978460E+01 -0.500162318E-01 -0.217094847E+00
   C  0.322848584E+01 -0.482737793E-01  0.573833396E-01
   H -0.168658580E+02  0.146030903E+01  0.222437967E+01
   H  0.164922536E+02 -0.422072321E+00 -0.155814735E+01
     4
 # iter = 42000  time[fs]=42.00000
   C -0.354568711E+01 -0.513540907E-01 -0.222407940E+00
   C  0.330841729E+01 -0.488699956E-01  0.600359293E-01
   H -0.172276864E+02  0.149197977E+01  0.227310087E+01
   H  0.168429508E+02 -0.431215785E+00 -0.159220991E+01
     4
 # iter = 42500  time[fs]=42.50000
   C -0.363189356E+01 -0.526935611E-01 -0.227736035E+00
   C  0.338865144E+01 -0.494661646E-01  0.627025179E-01
   H -0.175897973E+02  0.152367771E+01  0.232186561E+01
   H  0.171939453E+02 -0.440367676E+00 -0.162630396E+01
     4
 # iter = 43000  time[fs]=43.00000
   C -0.371838963E+01 -0.540346100E-01 -0.233078498E+00
   C  0.346917402E+01 -0.500622573E-01  0.653825129E-01
   H -0.179521795E+02  0.155540178E+01  0.237067220E+01
   H  0.175452255E+02 -0.449527671E+00 -0.166042832E+01
     4
 # iter = 43500  time[fs]=43.50000
   C -0.380516196E+01 -0.553772039E-01 -0.238434732E+00
   C  0.354997169E+01 -0.506582491E-01  0.680753567E-01
   H -0.183148221E+02  0.158715097E+01  0.241951902E+01
   H  0.178967801E+02 -0.458695464E+00 -0.169458184E+01
     4
 # iter = 44000  time[fs]=44.00000
   C -0.389219801E+01 -0.567213094E-01 -0.243804177E+00
   C  0.363103197E+01 -0.512541183E-01  0.707805241E-01
   H -0.186777153E+02  0.161892435E+01  0.246840458E+01
   H  0.182485985E+02 -0.467870766E+00 -0.172876347E+01
     4
 # iter = 44500  time[fs]=44.50000
   C -0.397948608E+01 -0.580668929E-01 -0.249186302E+00
   C  0.371234318E+01 -0.518498468E-01  0.734975203E-01
   H -0.190408494E+02  0.165072100E+01  0.251732744E+01
   H  0.186006709E+02 -0.477053304E+00 -0.176297218E+01
     4
 # iter = 45000  time[fs]=45.00000
   C -0.406701516E+01 -0.594139214E-01 -0.254580608E+00
   C  0.379389436E+01 -0.524454187E-01  0.762258782E-01
   H -0.194042155E+02  0.168254010E+01  0.256628626E+01
   H  0.189529879E+02 -0.486242819E+00 -0.179720701E+01
     4
 # iter = 45500  time[fs]=45.50000
   C -0.415477495E+01 -0.607623619E-01 -0.259986623E+00
   C  0.387567523E+01 -0.530408205E-01  0.789651567E-01
   H -0.197678051E+02  0.171438083E+01  0.261527977E+01
   H  0.193055405E+02 -0.495439067E+00 -0.183146707E+01
     4
 # iter = 46000  time[fs]=46.00000
   C -0.424275575E+01 -0.621121819E-01 -0.265403901E+00
   C  0.395767612E+01 -0.536360408E-01  0.817149389E-01
   H -0.201316102E+02  0.174624243E+01  0.266430675E+01
   H  0.196583205E+02 -0.504641816E+00 -0.186575149E+01
     4
 # iter = 46500  time[fs]=46.50000
   C -0.433094843E+01 -0.634633496E-01 -0.270832021E+00
   C  0.403988795E+01 -0.542310699E-01  0.844748303E-01
   H -0.204956232E+02  0.177812420E+01  0.271336606E+01
   H  0.200113198E+02 -0.513850844E+00 -0.190005945E+01
     4
 # iter = 47000  time[fs]=47.00000
   C -0.441934441E+01 -0.648158336E-01 -0.276270583E+00
   C  0.412230216E+01 -0.548258998E-01  0.872444577E-01
   H -0.208598370E+02  0.181002544E+01  0.276245661E+01
   H  0.203645308E+02 -0.523065944E+00 -0.193439017E+01
     4
 # iter = 47500  time[fs]=47.50000
   C -0.450793559E+01 -0.661696032E-01 -0.281719208E+00
   C  0.420491067E+01 -0.554205236E-01  0.900234671E-01
   H -0.212242445E+02  0.184194550E+01  0.281157735E+01
   H  0.207179465E+02 -0.532286915E+00 -0.196874291E+01
     4
 # iter = 48000  time[fs]=48.00000
   C -0.459671434E+01 -0.675246283E-01 -0.287177539E+00
   C  0.428770588E+01 -0.560149357E-01  0.928115230E-01
   H -0.215888394E+02  0.187388378E+01  0.286072732E+01
   H  0.210715599E+02 -0.541513568E+00 -0.200311698E+01
     4
 # iter = 48500  time[fs]=48.50000
   C -0.468567342E+01 -0.688808796E-01 -0.292645233E+00
   C  0.437068058E+01 -0.566091317E-01  0.956083069E-01
   H -0.219536155E+02  0.190583967E+01  0.290990557E+01
   H  0.214253646E+02 -0.550745722E+00 -0.203751169E+01
     4
 # iter = 49000  time[fs]=49.00000
   C -0.477480603E+01 -0.702383285E-01 -0.298121968E+00
   C  0.445382799E+01 -0.572031079E-01  0.984135162E-01
   H -0.223185669E+02  0.193781263E+01  0.295911121E+01
   H  0.217793544E+02 -0.559983207E+00 -0.207192640E+01
     4
 # iter = 49500  time[fs]=49.50000
   C -0.486410571E+01 -0.715969469E-01 -0.303607436E+00
   C  0.453714167E+01 -0.577968615E-01  0.101226863E+00
   H -0.226836879E+02  0.196980212E+01  0.300834338E+01
   H  0.221335234E+02 -0.569225857E+00 -0.210636052E+01
     4
 # iter = 50000  time[fs]=50.00000
   C -0.495356633E+01 -0.729567076E-01 -0.309101345E+00
   C  0.462061552E+01 -0.583903905E-01  0.104048075E+00
   H -0.230489733E+02  0.200180763E+01  0.305760129E+01
   H  0.224878661E+02 -0.578473516E+00 -0.214081345E+01
     4
 # iter = 50500  time[fs]=50.50000
   C -0.504318212E+01 -0.743175842E-01 -0.314603415E+00
   C  0.470424378E+01 -0.589836934E-01  0.106876890E+00
   H -0.234144180E+02  0.203382867E+01  0.310688414E+01
   H  0.228423771E+02 -0.587726035E+00 -0.217528464E+01
     4
 # iter = 51000  time[fs]=51.00000
   C -0.513294755E+01 -0.756795507E-01 -0.320113381E+00
   C  0.478802097E+01 -0.595767693E-01  0.109713062E+00
   H -0.237800170E+02  0.206586479E+01  0.315619121E+01
   H  0.231970512E+02 -0.596983270E+00 -0.220977356E+01
     4
 # iter = 51500  time[fs]=51.50000
   C -0.522285743E+01 -0.770425822E-01 -0.325630991E+00
   C  0.487194187E+01 -0.601696177E-01  0.112556353E+00
   H -0.241457658E+02  0.209791554E+01  0.320552178E+01
   H  0.235518837E+02 -0.606245085E+00 -0.224427969E+01
     4
 # iter = 52000  time[fs]=52.00000
   C -0.531290678E+01 -0.784066541E-01 -0.331156003E+00
   C  0.495600156E+01 -0.607622387E-01  0.115406538E+00
   H -0.245116599E+02  0.212998049E+01  0.325487517E+01
   H  0.239068697E+02 -0.615511349E+00 -0.227880255E+01
     4
 # iter = 52500  time[fs]=52.50000
   C -0.540309088E+01 -0.797717429E-01 -0.336688186E+00
   C  0.504019534E+01 -0.613546327E-01  0.118263401E+00
   H -0.248776951E+02  0.216205925E+01  0.330425074E+01
   H  0.242620050E+02 -0.624781936E+00 -0.231334167E+01
     4
 # iter = 53000  time[fs]=53.00000
   C -0.549340526E+01 -0.811378253E-01 -0.342227322E+00
   C  0.512451872E+01 -0.619468002E-01  0.121126738E+00
   H -0.252438673E+02  0.219415141E+01  0.335364787E+01
   H  0.246172851E+02 -0.634056726E+00 -0.234789661E+01
     4
 # iter = 53500  time[fs]=53.50000
   C -0.558384563E+01 -0.825048790E-01 -0.347773198E+00
   C  0.520896746E+01 -0.625387423E-01  0.123996351E+00
   H -0.256101727E+02  0.222625661E+01  0.340306596E+01
   H  0.249727060E+02 -0.643335604E+00 -0.238246692E+01
     4
 # iter = 54000  time[fs]=54.00000
   C -0.567440792E+01 -0.838728822E-01 -0.353325615E+00
   C  0.529353749E+01 -0.631304603E-01  0.126872053E+00
   H -0.259766074E+02  0.225837450E+01  0.345250443E+01
   H  0.253282639E+02 -0.652618460E+00 -0.241705221E+01
     4
 # iter = 54500  time[fs]=54.50000
   C -0.576508824E+01 -0.852418139E-01 -0.358884380E+00
   C  0.537822495E+01 -0.637219554E-01  0.129753664E+00
   H -0.263431680E+02  0.229050472E+01  0.350196275E+01
   H  0.256839548E+02 -0.661905187E+00 -0.245165207E+01
     4
 # iter = 55000  time[fs]=55.00000
   C -0.585588289E+01 -0.866116534E-01 -0.364449308E+00
   C  0.546302615E+01 -0.643132294E-01  0.132641011E+00
   H -0.267098509E+02  0.232264695E+01  0.355144038E+01
   H  0.260397753E+02 -0.671195683E+00 -0.248626613E+01
     4
 # iter = 55500  time[fs]=55.50000
   C -0.594678833E+01 -0.879823809E-01 -0.370020223E+00
   C  0.554793755E+01 -0.649042841E-01  0.135533931E+00
   H -0.270766530E+02  0.235480088E+01  0.360093682E+01
   H  0.263957218E+02 -0.680489850E+00 -0.252089401E+01
     4
 # iter = 56000  time[fs]=56.00000
   C -0.603780117E+01 -0.893539769E-01 -0.375596956E+00
   C  0.563295579E+01 -0.654951212E-01  0.138432264E+00
   H -0.274435710E+02  0.238696619E+01  0.365045159E+01
   H  0.267517910E+02 -0.689787595E+00 -0.255553537E+01
     4
 # iter = 56500  time[fs]=56.50000
   C -0.612891818E+01 -0.907264227E-01 -0.381179345E+00
   C  0.571807765E+01 -0.660857429E-01  0.141335860E+00
   H -0.278106019E+02  0.241914261E+01  0.369998421E+01
   H  0.271079798E+02 -0.699088826E+00 -0.259018986E+01
     4
 # iter = 57000  time[fs]=57.00000
   C -0.622013627E+01 -0.920997000E-01 -0.386767233E+00
   C  0.580330005E+01 -0.666761512E-01  0.144244573E+00
   H -0.281777428E+02  0.245132984E+01  0.374953423E+01
   H  0.274642850E+02 -0.708393456E+00 -0.262485717E+01
     4
 # iter = 57500  time[fs]=57.50000
   C -0.631145247E+01 -0.934737910E-01 -0.392360472E+00
   C  0.588862003E+01 -0.672663484E-01  0.147158262E+00
   H -0.285449909E+02  0.248352762E+01  0.379910123E+01
   H  0.278207037E+02 -0.717701402E+00 -0.265953698E+01
     4
 # iter = 58000  time[fs]=58.00000
   C -0.640286394E+01 -0.948486786E-01 -0.397958917E+00
   C  0.597403478E+01 -0.678563368E-01  0.150076795E+00
   H -0.289123435E+02  0.251573568E+01  0.384868479E+01
   H  0.281772331E+02 -0.727012581E+00 -0.269422897E+01
     4
 # iter = 58500  time[fs]=58.50000
   C -0.649436797E+01 -0.962243459E-01 -0.403562431E+00
   C  0.605954158E+01 -0.684461186E-01  0.153000043E+00
   H -0.292797979E+02  0.254795378E+01  0.389828450E+01
   H  0.285338703E+02 -0.736326917E+00 -0.272893287E+01
     4
 # iter = 59000  time[fs]=59.00000
   C -0.658596196E+01 -0.976007768E-01 -0.409170881E+00
   C  0.614513784E+01 -0.690356963E-01  0.155927880E+00
   H -0.296473518E+02  0.258018168E+01  0.394789997E+01
   H  0.288906128E+02 -0.745644335E+00 -0.276364840E+01
     4
 # iter = 59500  time[fs]=59.50000
   C -0.667764339E+01 -0.989779554E-01 -0.414784139E+00
   C  0.623082107E+01 -0.696250723E-01  0.158860189E+00
   H -0.300150026E+02  0.261241913E+01  0.399753084E+01
   H  0.292474581E+02 -0.754964760E+00 -0.279837527E+01
     4
 # iter = 60000  time[fs]=60.00000
   C -0.676940987E+01 -0.100355866E+00 -0.420402083E+00
   C  0.631658889E+01 -0.702142489E-01  0.161796855E+00
   H -0.303827480E+02  0.264466592E+01  0.404717675E+01
   H  0.296044035E+02 -0.764288124E+00 -0.283311323E+01
     4
 # iter = 60500  time[fs]=60.50000
   C -0.686125909E+01 -0.101734495E+00 -0.426024593E+00
   C  0.640243899E+01 -0.708032288E-01  0.164737767E+00
   H -0.307505858E+02  0.267692183E+01  0.409683733E+01
   H  0.299614469E+02 -0.773614359E+00 -0.286786202E+01
     4
 # iter = 61000  time[fs]=61.00000
   C -0.695318885E+01 -0.103113826E+00 -0.431651557E+00
   C  0.648836917E+01 -0.713920142E-01  0.167682820E+00
   H -0.311185138E+02  0.270918665E+01  0.414651227E+01
   H  0.303185858E+02 -0.782943400E+00 -0.290262140E+01
     4
 # iter = 61500  time[fs]=61.50000
   C -0.704519700E+01 -0.104493847E+00 -0.437282865E+00
   C  0.657437731E+01 -0.719806078E-01  0.170631909E+00
   H -0.314865300E+02  0.274146017E+01  0.419620123E+01
   H  0.306758182E+02 -0.792275183E+00 -0.293739114E+01
     4
 # iter = 62000  time[fs]=62.00000
   C -0.713728151E+01 -0.105874542E+00 -0.442918410E+00
   C  0.666046137E+01 -0.725690120E-01  0.173584938E+00
   H -0.318546323E+02  0.277374221E+01  0.424590390E+01
   H  0.310331418E+02 -0.801609647E+00 -0.297217100E+01
     4
 # iter = 62500  time[fs]=62.50000
   C -0.722944039E+01 -0.107255900E+00 -0.448558091E+00
   C  0.674661940E+01 -0.731572292E-01  0.176541810E+00
   H -0.322228187E+02  0.280603256E+01  0.429561998E+01
   H  0.313905546E+02 -0.810946733E+00 -0.300696076E+01
     4
 # iter = 63000  time[fs]=63.00000
   C -0.732167176E+01 -0.108637906E+00 -0.454201808E+00
   C  0.683284949E+01 -0.737452620E-01  0.179502433E+00
   H -0.325910874E+02  0.283833106E+01  0.434534917E+01
   H  0.317480546E+02 -0.820286385E+00 -0.304176022E+01
     4
 # iter = 63500  time[fs]=63.50000
   C -0.741397379E+01 -0.110020549E+00 -0.459849468E+00
   C  0.691914985E+01 -0.743331127E-01  0.182466720E+00
   H -0.329594365E+02  0.287063751E+01  0.439509119E+01
   H  0.321056399E+02 -0.829628547E+00 -0.307656915E+01
     4
 # iter = 64000  time[fs]=64.00000
   C -0.750634472E+01 -0.111403815E+00 -0.465500978E+00
   C  0.700551870E+01 -0.749207839E-01  0.185434584E+00
   H -0.333278643E+02  0.290295176E+01  0.444484576E+01
   H  0.324633086E+02 -0.838973166E+00 -0.311138737E+01
     4
 # iter = 64500  time[fs]=64.50000
   C -0.759878285E+01 -0.112787694E+00 -0.471156249E+00
   C  0.709195437E+01 -0.755082779E-01  0.188405943E+00
   H -0.336963691E+02  0.293527363E+01  0.449461263E+01
   H  0.328210589E+02 -0.848320190E+00 -0.314621468E+01
     4
 # iter = 65000  time[fs]=65.00000
   C -0.769128655E+01 -0.114172173E+00 -0.476815196E+00
   C  0.717845523E+01 -0.760955972E-01  0.191380716E+00
   H -0.340649492E+02  0.296760297E+01  0.454439153E+01
   H  0.331788891E+02 -0.857669568E+00 -0.318105088E+01
     4
 # iter = 65500  time[fs]=65.50000
   C -0.778385423E+01 -0.115557242E+00 -0.482477736E+00
   C  0.726501971E+01 -0.766827441E-01  0.194358827E+00
   H -0.344336030E+02  0.299993961E+01  0.459418221E+01
   H  0.335367974E+02 -0.867021252E+00 -0.321589581E+01
     4
 # iter = 66000  time[fs]=66.00000
   C -0.787648438E+01 -0.116942889E+00 -0.488143789E+00
   C  0.735164628E+01 -0.772697210E-01  0.197340201E+00
   H -0.348023290E+02  0.303228341E+01  0.464398443E+01
   H  0.338947823E+02 -0.876375195E+00 -0.325074927E+01
     4
 # iter = 66500  time[fs]=66.50000
   C -0.796917552E+01 -0.118329103E+00 -0.493813277E+00
   C  0.743833350E+01 -0.778565302E-01  0.200324766E+00
   H -0.351711257E+02  0.306463422E+01  0.469379795E+01
   H  0.342528422E+02 -0.885731352E+00 -0.328561110E+01
     4
 # iter = 67000  time[fs]=67.00000
   C -0.806192624E+01 -0.119715874E+00 -0.499486125E+00
   C  0.752507994E+01 -0.784431741E-01  0.203312451E+00
   H -0.355399915E+02  0.309699191E+01  0.474362255E+01
   H  0.346109755E+02 -0.895089677E+00 -0.332048114E+01
     4
 # iter = 67500  time[fs]=67.50000
   C -0.815473517E+01 -0.121103193E+00 -0.505162261E+00
   C  0.761188423E+01 -0.790296548E-01  0.206303189E+00
   H -0.359089252E+02  0.312935632E+01  0.479345801E+01
   H  0.349691807E+02 -0.904450128E+00 -0.335535921E+01
     4
 # iter = 68000  time[fs]=68.00000
   C -0.824760097E+01 -0.122491048E+00 -0.510841614E+00
   C  0.769874507E+01 -0.796159748E-01  0.209296915E+00
   H -0.362779253E+02  0.316172734E+01  0.484330412E+01
   H  0.353274563E+02 -0.913812663E+00 -0.339024517E+01
     4
 # iter = 68500  time[fs]=68.50000
   C -0.834052236E+01 -0.123879431E+00 -0.516524117E+00
   C  0.778566118E+01 -0.802021361E-01  0.212293564E+00
   H -0.366469905E+02  0.319410482E+01  0.489316066E+01
   H  0.356858011E+02 -0.923177242E+00 -0.342513886E+01
     4
 # iter = 69000  time[fs]=69.00000
   C -0.843349811E+01 -0.125268332E+00 -0.522209703E+00
   C  0.787263131E+01 -0.807881410E-01  0.215293077E+00
   H -0.370161195E+02  0.322648865E+01  0.494302743E+01
   H  0.360442135E+02 -0.932543826E+00 -0.346004014E+01
     4
 # iter = 69500  time[fs]=69.50000
   C -0.852652702E+01 -0.126657742E+00 -0.527898309E+00
   C  0.795965428E+01 -0.813739917E-01  0.218295392E+00
   H -0.373853111E+02  0.325887870E+01  0.499290424E+01
   H  0.364026924E+02 -0.941912375E+00 -0.349494886E+01
     4
 # iter = 70000  time[fs]=70.00000
   C -0.861960792E+01 -0.128047652E+00 -0.533589871E+00
   C  0.804672894E+01 -0.819596902E-01  0.221300452E+00
   H -0.377545641E+02  0.329127485E+01  0.504279090E+01
   H  0.367612364E+02 -0.951282853E+00 -0.352986487E+01
     4
 # iter = 70500  time[fs]=70.50000
   C -0.871273969E+01 -0.129438053E+00 -0.539284331E+00
   C  0.813385415E+01 -0.825452387E-01  0.224308201E+00
   H -0.381238772E+02  0.332367700E+01  0.509268721E+01
   H  0.371198442E+02 -0.960655224E+00 -0.356478806E+01
     4
 # iter = 71000  time[fs]=71.00000
   C -0.880592125E+01 -0.130828938E+00 -0.544981630E+00
   C  0.822102885E+01 -0.831306392E-01  0.227318585E+00
   H -0.384932493E+02  0.335608501E+01  0.514259302E+01
   H  0.374785146E+02 -0.970029453E+00 -0.359971827E+01
     4
 # iter = 71500  time[fs]=71.50000
   C -0.889915153E+01 -0.132220296E+00 -0.550681711E+00
   C  0.830825198E+01 -0.837158938E-01  0.230331551E+00
   H -0.388626794E+02  0.338849880E+01  0.519250812E+01
   H  0.378372465E+02 -0.979405505E+00 -0.363465539E+01
     4
 # iter = 72000  time[fs]=72.00000
   C -0.899242951E+01 -0.133612121E+00 -0.556384519E+00
   C  0.839552252E+01 -0.843010044E-01  0.233347048E+00
   H -0.392321663E+02  0.342091825E+01  0.524243237E+01
   H  0.381960388E+02 -0.988783348E+00 -0.366959929E+01
     4
 # iter = 72500  time[fs]=72.50000
   C -0.908575421E+01 -0.135004405E+00 -0.562090001E+00
   C  0.848283949E+01 -0.848859732E-01  0.236365026E+00
   H -0.396017090E+02  0.345334325E+01  0.529236558E+01
   H  0.385548903E+02 -0.998162949E+00 -0.370454985E+01
     4
 # iter = 73000  time[fs]=73.00000
   C -0.917912467E+01 -0.136397140E+00 -0.567798105E+00
   C  0.857020193E+01 -0.854708019E-01  0.239385437E+00
   H -0.399713064E+02  0.348577372E+01  0.534230761E+01
   H  0.389137998E+02 -0.100754428E+01 -0.373950695E+01
     4
 # iter = 73500  time[fs]=73.50000
   C -0.927253994E+01 -0.137790318E+00 -0.573508781E+00
   C  0.865760892E+01 -0.860554925E-01  0.242408234E+00
   H -0.403409576E+02  0.351820954E+01  0.539225829E+01
   H  0.392727665E+02 -0.101692730E+01 -0.377447047E+01
     4
 # iter = 74000  time[fs]=74.00000
   C -0.936599913E+01 -0.139183933E+00 -0.579221979E+00
   C  0.874505955E+01 -0.866400469E-01  0.245433370E+00
   H -0.407106615E+02  0.355065063E+01  0.544221747E+01
   H  0.396317892E+02 -0.102631199E+01 -0.380944030E+01
     4
 # iter = 74500  time[fs]=74.50000
   C -0.945950136E+01 -0.140577976E+00 -0.584937652E+00
   C  0.883255295E+01 -0.872244670E-01  0.248460803E+00
   H -0.410804174E+02  0.358309689E+01  0.549218500E+01
   H  0.399908670E+02 -0.103569832E+01 -0.384441634E+01
     4
 # iter = 75000  time[fs]=75.00000
   C -0.955304577E+01 -0.141972442E+00 -0.590655754E+00
   C  0.892008828E+01 -0.878087545E-01  0.251490489E+00
   H -0.414502241E+02  0.361554824E+01  0.554216074E+01
   H  0.403499988E+02 -0.104508625E+01 -0.387939848E+01
     4
 # iter = 75500  time[fs]=75.50000
   C -0.964663155E+01 -0.143367323E+00 -0.596376240E+00
   C  0.900766471E+01 -0.883929113E-01  0.254522387E+00
   H -0.418200809E+02  0.364800458E+01  0.559214455E+01
   H  0.407091838E+02 -0.105447577E+01 -0.391438661E+01
     4
 # iter = 76000  time[fs]=76.00000
   C -0.974025788E+01 -0.144762612E+00 -0.602099067E+00
   C  0.909528144E+01 -0.889769390E-01  0.257556454E+00
   H -0.421899868E+02  0.368046584E+01  0.564213629E+01
   H  0.410684209E+02 -0.106386684E+01 -0.394938063E+01
     4
 # iter = 76500  time[fs]=76.50000
   C -0.983392399E+01 -0.146158304E+00 -0.607824190E+00
   C  0.918293770E+01 -0.895608395E-01  0.260592652E+00
   H -0.425599411E+02  0.371293192E+01  0.569213582E+01
   H  0.414277094E+02 -0.107325944E+01 -0.398438044E+01
     4
 # iter = 77000  time[fs]=77.00000
   C -0.992762911E+01 -0.147554392E+00 -0.613551570E+00
   C  0.927063273E+01 -0.901446145E-01  0.263630942E+00
   H -0.429299429E+02  0.374540274E+01  0.574214301E+01
   H  0.417870483E+02 -0.108265354E+01 -0.401938596E+01
     4
 # iter = 77500  time[fs]=77.50000
   C -0.100213725E+02 -0.148950869E+00 -0.619281166E+00
   C  0.935836579E+01 -0.907282655E-01  0.266671287E+00
   H -0.432999913E+02  0.377787823E+01  0.579215775E+01
   H  0.421464368E+02 -0.109204912E+01 -0.405439707E+01
     4
 # iter = 78000  time[fs]=78.00000
   C -0.101151535E+02 -0.150347729E+00 -0.625012938E+00
   C  0.944613618E+01 -0.913117944E-01  0.269713650E+00
   H -0.436700856E+02  0.381035832E+01  0.584217989E+01
   H  0.425058741E+02 -0.110144616E+01 -0.408941370E+01
     4
 # iter = 78500  time[fs]=78.50000
   C -0.102089713E+02 -0.151744968E+00 -0.630746848E+00
   C  0.953394320E+01 -0.918952025E-01  0.272757996E+00
   H -0.440402251E+02  0.384284291E+01  0.589220933E+01
   H  0.428653593E+02 -0.111084462E+01 -0.412443575E+01
     4
 # iter = 79000  time[fs]=79.00000
   C -0.103028253E+02 -0.153142578E+00 -0.636482859E+00
   C  0.962178617E+01 -0.924784917E-01  0.275804289E+00
   H -0.444104090E+02  0.387533195E+01  0.594224594E+01
   H  0.432248916E+02 -0.112024449E+01 -0.415946314E+01
     4
 # iter = 79500  time[fs]=79.50000
   C -0.103967148E+02 -0.154540554E+00 -0.642220935E+00
   C  0.970966444E+01 -0.930616634E-01  0.278852496E+00
   H -0.447806365E+02  0.390782535E+01  0.599228961E+01
   H  0.435844703E+02 -0.112964575E+01 -0.419449578E+01
     4
 # iter = 80000  time[fs]=80.00000
   C -0.104906392E+02 -0.155938891E+00 -0.647961040E+00
   C  0.979757737E+01 -0.936447191E-01  0.281902585E+00
   H -0.451509069E+02  0.394032306E+01  0.604234023E+01
   H  0.439440946E+02 -0.113904836E+01 -0.422953358E+01
