     4
 # iter = 25000  time[fs]=25.00000
   C -0.980666649E+00  0.705528456E-01 -0.223632827E-01
   C  0.966414544E+00 -0.818474462E-02  0.218130363E-01
   H -0.524407949E+01  0.125742579E+00  0.425148562E+00
   H  0.527697437E+01 -0.321420374E+00  0.675848000E-01
     4
 # iter = 25500  time[fs]=25.50000
   C -0.102483440E+01  0.736292912E-01 -0.249160102E-01
   C  0.100672543E+01 -0.717300614E-02  0.222124969E-01
   H -0.557552107E+01  0.132923020E+00  0.450284493E+00
   H  0.559239533E+01 -0.340633650E+00  0.700949138E-01
     4
 # iter = 26000  time[fs]=26.00000
   C -0.107158071E+01  0.768135133E-01 -0.275454990E-01
   C  0.104961614E+01 -0.625818184E-02  0.226676696E-01
   H -0.590968641E+01  0.140153680E+00  0.475653985E+00
   H  0.591052496E+01 -0.360027491E+00  0.726240569E-01
     4
 # iter = 26500  time[fs]=26.50000
   C -0.112069576E+01  0.800950885E-01 -0.302460199E-01
   C  0.109487576E+01 -0.543099666E-02  0.231752597E-01
   H -0.624627129E+01  0.147428918E+00  0.501230116E+00
   H  0.623107205E+01 -0.379582479E+00  0.751699375E-01
     4
 # iter = 27000  time[fs]=27.00000
   C -0.117198452E+01  0.834646357E-01 -0.330122629E-01
   C  0.114230848E+01 -0.468304542E-02  0.237319939E-01
   H -0.658501880E+01  0.154743957E+00  0.526990362E+00
   H  0.655378898E+01 -0.399282124E+00  0.777306381E-01
     4
 # iter = 27500  time[fs]=27.50000
   C -0.122526720E+01  0.869137495E-01 -0.358393209E-01
   C  0.119173397E+01 -0.400675937E-02  0.243346859E-01
   H -0.692571010E+01  0.162094719E+00  0.552915695E+00
   H  0.687846357E+01 -0.419112309E+00  0.803045397E-01
     4
 # iter = 28000  time[fs]=28.00000
   C -0.128037912E+01  0.904349220E-01 -0.387226712E-01
   C  0.124298716E+01 -0.339535289E-02  0.249802796E-01
   H -0.726815742E+01  0.169477701E+00  0.578989891E+00
   H  0.720491270E+01 -0.439060863E+00  0.828902645E-01
     4
 # iter = 28500  time[fs]=28.50000
   C -0.133717012E+01  0.940214590E-01 -0.416581559E-01
   C  0.129591761E+01 -0.284275994E-02  0.256658777E-01
   H -0.761219847E+01  0.176889872E+00  0.605199007E+00
   H  0.753297735E+01 -0.459117219E+00  0.854866307E-01
     4
 # iter = 29000  time[fs]=29.00000
   C -0.139550371E+01  0.976673975E-01 -0.446419602E-01
   C  0.135038866E+01 -0.234356682E-02  0.263887561E-01
   H -0.795769213E+01  0.184328599E+00  0.631530972E+00
   H  0.786251857E+01 -0.479272150E+00  0.880926182E-01
     4
 # iter = 29500  time[fs]=29.50000
   C -0.145525609E+01  0.101367426E+00 -0.476705889E-01
   C  0.140627638E+01 -0.189294579E-02  0.271463701E-01
   H -0.830451490E+01  0.191791579E+00  0.657975268E+00
   H  0.819341432E+01 -0.499517553E+00  0.907073412E-01
     4
 # iter = 30000  time[fs]=30.00000
   C -0.151631509E+01  0.105116813E+00 -0.507408434E-01
   C  0.146346854E+01 -0.148659170E-02  0.279363541E-01
   H -0.865255820E+01  0.199276786E+00  0.684522671E+00
   H  0.852555683E+01 -0.519846274E+00  0.933300254E-01
     4
 # iter = 30500  time[fs]=30.50000
   C -0.157857917E+01  0.108911336E+00 -0.538497980E-01
   C  0.152186354E+01 -0.112066353E-02  0.287565167E-01
   H -0.900172602E+01  0.206782434E+00  0.711165051E+00
   H  0.885885050E+01 -0.540251967E+00  0.959599912E-01
     4
 # iter = 31000  time[fs]=31.00000
   C -0.164195636E+01  0.112747228E+00 -0.569947770E-01
   C  0.158136943E+01 -0.791731018E-03  0.296048326E-01
   H -0.935193310E+01  0.214306937E+00  0.737895202E+00
   H  0.919321019E+01 -0.560728978E+00  0.985966389E-01
     4
 # iter = 31500  time[fs]=31.50000
   C -0.170636339E+01  0.116621115E+00 -0.601733335E-01
   C  0.164190295E+01 -0.496726860E-03  0.304794337E-01
   H -0.970310339E+01  0.221848881E+00  0.764706711E+00
   H  0.952855969E+01 -0.581272249E+00  0.101239437E+00
     4
 # iter = 32000  time[fs]=32.00000
   C -0.177172478E+01  0.120529979E+00 -0.633832285E-01
   C  0.170338863E+01 -0.232904125E-03  0.313785985E-01
   H -0.100551688E+02  0.229407005E+00  0.791593841E+00
   H  0.986483060E+01 -0.601877236E+00  0.103887912E+00
     4
 # iter = 32500  time[fs]=32.50000
   C -0.183797203E+01  0.124471108E+00 -0.666224123E-01
   C  0.176575802E+01  0.220139728E-05  0.323007416E-01
   H -0.104080681E+02  0.236980174E+00  0.818551442E+00
   H  0.102019613E+02 -0.622539845E+00  0.106541642E+00
     4
 # iter = 33000  time[fs]=33.00000
   C -0.190504294E+01  0.128442064E+00 -0.698890069E-01
   C  0.182894897E+01  0.210804338E-03  0.332444031E-01
   H -0.107617461E+02  0.244567368E+00  0.845574876E+00
   H  0.105398960E+02 -0.643256372E+00  0.109200248E+00
     4
 # iter = 33500  time[fs]=33.50000
   C -0.197288094E+01  0.132440650E+00 -0.731812899E-01
   C  0.189290493E+01  0.394898846E-03  0.342082389E-01
   H -0.111161529E+02  0.252167663E+00  0.872659945E+00
   H  0.108785841E+02 -0.664023456E+00  0.111863387E+00
     4
 # iter = 34000  time[fs]=34.00000
   C -0.204143450E+01  0.136464881E+00 -0.764976800E-01
   C  0.195757445E+01  0.556284086E-03  0.351910105E-01
   H -0.114712430E+02  0.259780224E+00  0.899802841E+00
   H  0.112179798E+02 -0.684838040E+00  0.114530754E+00
     4
 # iter = 34500  time[fs]=34.50000
   C -0.211065662E+01  0.140512962E+00 -0.798367239E-01
   C  0.202291057E+01  0.696586552E-03  0.361915767E-01
   H -0.118269752E+02  0.267404290E+00  0.927000101E+00
   H  0.115580409E+02 -0.705697333E+00  0.117202068E+00
     4
 # iter = 35000  time[fs]=35.00000
   C -0.218050436E+01  0.144583265E+00 -0.831970840E-01
   C  0.208887042E+01  0.817279605E-03  0.372088846E-01
   H -0.121833117E+02  0.275039168E+00  0.954248563E+00
   H  0.118987292E+02 -0.726598781E+00  0.119877077E+00
     4
 # iter = 35500  time[fs]=35.50000
   C -0.225093844E+01  0.148674309E+00 -0.865775282E-01
   C  0.215541476E+01  0.919700568E-03  0.382419621E-01
   H -0.125402181E+02  0.282684226E+00  0.981545330E+00
   H  0.122400094E+02 -0.747540044E+00  0.122555550E+00
     4
 # iter = 36000  time[fs]=36.00000
   C -0.232192286E+01  0.152784747E+00 -0.899769193E-01
   C  0.222250766E+01  0.100506571E-02  0.392899112E-01
   H -0.128976626E+02  0.290338882E+00  0.100888775E+01
   H  0.125818493E+02 -0.768518966E+00  0.125237276E+00
     4
 # iter = 36500  time[fs]=36.50000
   C -0.239342457E+01  0.156913350E+00 -0.933942072E-01
   C  0.229011612E+01  0.107448337E-02  0.403519012E-01
   H -0.132556162E+02  0.298002605E+00  0.103627338E+01
   H  0.129242190E+02 -0.789533565E+00  0.127922064E+00
     4
 # iter = 37000  time[fs]=37.00000
   C -0.246541321E+01  0.161058995E+00 -0.968284204E-01
   C  0.235820982E+01  0.112896549E-02  0.414271628E-01
   H -0.136140520E+02  0.305674904E+00  0.106369997E+01
   H  0.132670911E+02 -0.810582007E+00  0.130609737E+00
     4
 # iter = 37500  time[fs]=37.50000
   C -0.253786080E+01  0.165220651E+00 -0.100278659E+00
   C  0.242676084E+01  0.116943776E-02  0.425149830E-01
   H -0.139729453E+02  0.313355326E+00  0.109116543E+01
   H  0.136104401E+02 -0.831662597E+00  0.133300132E+00
     4
 # iter = 38000  time[fs]=38.00000
   C -0.261074154E+01  0.169397375E+00 -0.103744088E+00
   C  0.249574345E+01  0.119674851E-02  0.436147001E-01
   H -0.143322729E+02  0.321043454E+00  0.111866785E+01
   H  0.139542424E+02 -0.852773764E+00  0.135993101E+00
     4
 # iter = 38500  time[fs]=38.50000
   C -0.268403161E+01  0.173588297E+00 -0.107223933E+00
   C  0.256513386E+01  0.121167660E-02  0.447256992E-01
   H -0.146920138E+02  0.328738901E+00  0.114620544E+01
   H  0.142984763E+02 -0.873914046E+00  0.138688504E+00
     4
 # iter = 39000  time[fs]=39.00000
   C -0.275770898E+01  0.177792620E+00 -0.110717473E+00
   C  0.263491009E+01  0.121493838E-02  0.458474085E-01
   H -0.150521481E+02  0.336441307E+00  0.117377654E+01
   H  0.146431212E+02 -0.895082085E+00  0.141386216E+00
     4
 # iter = 39500  time[fs]=39.50000
   C -0.283175324E+01  0.182009603E+00 -0.114224037E+00
   C  0.270505178E+01  0.120719379E-02  0.469792956E-01
   H -0.154126575E+02  0.344150340E+00  0.120137960E+01
   H  0.149881584E+02 -0.916276616E+00  0.144086116E+00
     4
 # iter = 40000  time[fs]=40.00000
   C -0.290614544E+01  0.186238568E+00 -0.117742999E+00
   C  0.277554003E+01  0.118905186E-02  0.481208641E-01
   H -0.157735247E+02  0.351865689E+00  0.122901319E+01
   H  0.153335701E+02 -0.937496456E+00  0.146788097E+00
     4
 # iter = 40500  time[fs]=40.50000
   C -0.298086800E+01  0.190478881E+00 -0.121273776E+00
   C  0.284635729E+01  0.116107554E-02  0.492716505E-01
   H -0.161347338E+02  0.359587064E+00  0.125667595E+01
   H  0.156793398E+02 -0.958740501E+00  0.149492057E+00
     4
 # iter = 41000  time[fs]=41.00000
   C -0.305590454E+01  0.194729959E+00 -0.124815821E+00
   C  0.291748725E+01  0.112378595E-02  0.504312221E-01
   H -0.164962698E+02  0.367314195E+00  0.128436664E+01
   H  0.160254520E+02 -0.980007715E+00  0.152197899E+00
     4
 # iter = 41500  time[fs]=41.50000
   C -0.313123984E+01  0.198991258E+00 -0.128368625E+00
   C  0.298891469E+01  0.107766632E-02  0.515991738E-01
   H -0.168581187E+02  0.375046830E+00  0.131208407E+01
   H  0.163718922E+02 -0.100129713E+01  0.154905537E+00
     4
 # iter = 42000  time[fs]=42.00000
   C -0.320685966E+01  0.203262274E+00 -0.131931709E+00
   C  0.306062543E+01  0.102316530E-02  0.527751265E-01
   H -0.172202675E+02  0.382784732E+00  0.133982714E+01
   H  0.167186468E+02 -0.102260784E+01  0.157614887E+00
     4
 # iter = 42500  time[fs]=42.50000
   C -0.328275074E+01  0.207542536E+00 -0.135504625E+00
   C  0.313260625E+01  0.960700118E-03  0.539587247E-01
   H -0.175827036E+02  0.390527678E+00  0.136759481E+01
   H  0.170657032E+02 -0.104393897E+01  0.160325873E+00
     4
 # iter = 43000  time[fs]=43.00000
   C -0.335890065E+01  0.211831607E+00 -0.139086952E+00
   C  0.320484475E+01  0.890659267E-03  0.551496348E-01
   H -0.179454157E+02  0.398275461E+00  0.139538611E+01
   H  0.174130491E+02 -0.106528974E+01  0.163038422E+00
     4
 # iter = 43500  time[fs]=43.50000
   C -0.343529777E+01  0.216129077E+00 -0.142678295E+00
   C  0.327732935E+01  0.813404991E-03  0.563475436E-01
   H -0.183083927E+02  0.406027885E+00  0.142320011E+01
   H  0.177606734E+02 -0.108665938E+01  0.165752466E+00
     4
 # iter = 44000  time[fs]=44.00000
   C -0.351193121E+01  0.220434564E+00 -0.146278280E+00
   C  0.335004918E+01  0.729275497E-03  0.575521563E-01
   H -0.186716243E+02  0.413784766E+00  0.145103594E+01
   H  0.181085654E+02 -0.110804717E+01  0.168467943E+00
     4
 # iter = 44500  time[fs]=44.50000
   C -0.358879074E+01  0.224747709E+00 -0.149886558E+00
   C  0.342299406E+01  0.638586948E-03  0.587631957E-01
   H -0.190351010E+02  0.421545929E+00  0.147889280E+01
   H  0.184567149E+02 -0.112945244E+01  0.171184792E+00
     4
 # iter = 45000  time[fs]=45.00000
   C -0.366586677E+01  0.229068177E+00 -0.153502799E+00
   C  0.349615442E+01  0.541635263E-03  0.599804004E-01
   H -0.193988135E+02  0.429311211E+00  0.150676991E+01
   H  0.188051125E+02 -0.115087454E+01  0.173902957E+00
     4
 # iter = 45500  time[fs]=45.50000
   C -0.374315027E+01  0.233395653E+00 -0.157126690E+00
   C  0.356952125E+01  0.438697743E-03  0.612035241E-01
   H -0.197627531E+02  0.437080457E+00  0.153466653E+01
   H  0.191537491E+02 -0.117231288E+01  0.176622385E+00
     4
 # iter = 46000  time[fs]=46.00000
   C -0.382063272E+01  0.237729842E+00 -0.160757937E+00
   C  0.364308609E+01  0.330034539E-03  0.624323341E-01
   H -0.201269117E+02  0.444853522E+00  0.156258198E+01
   H  0.195026162E+02 -0.119376688E+01  0.179343027E+00
     4
 # iter = 46500  time[fs]=46.50000
   C -0.389830614E+01  0.242070466E+00 -0.164396262E+00
   C  0.371684094E+01  0.215889989E-03  0.636666108E-01
   H -0.204912816E+02  0.452630266E+00  0.159051559E+01
   H  0.198517058E+02 -0.121523599E+01  0.182064835E+00
     4
 # iter = 47000  time[fs]=47.00000
   C -0.397616295E+01  0.246417262E+00 -0.168041402E+00
   C  0.379077829E+01  0.964938283E-04  0.649061464E-01
   H -0.208558553E+02  0.460410559E+00  0.161846675E+01
   H  0.202010101E+02 -0.123671971E+01  0.184787766E+00
     4
 # iter = 47500  time[fs]=47.50000
   C -0.405419603E+01  0.250769984E+00 -0.171693107E+00
   C  0.386489103E+01 -0.279377136E-04  0.661507442E-01
   H -0.212206259E+02  0.468194276E+00  0.164643487E+01
   H  0.205505220E+02 -0.125821754E+01  0.187511776E+00
     4
 # iter = 48000  time[fs]=48.00000
   C -0.413239864E+01  0.255128399E+00 -0.175351141E+00
   C  0.393917243E+01 -0.157200909E-03  0.674002179E-01
   H -0.215855868E+02  0.475981299E+00  0.167441938E+01
   H  0.209002343E+02 -0.127972901E+01  0.190236827E+00
     4
 # iter = 48500  time[fs]=48.50000
   C -0.421076440E+01  0.259492287E+00 -0.179015279E+00
   C  0.401361615E+01 -0.291103618E-03  0.686543910E-01
   H -0.219507316E+02  0.483771517E+00  0.170241975E+01
   H  0.212501407E+02 -0.130125368E+01  0.192962880E+00
     4
 # iter = 49000  time[fs]=49.00000
   C -0.428928728E+01  0.263861442E+00 -0.182685309E+00
   C  0.408821617E+01 -0.429464458E-03  0.699130960E-01
   H -0.223160544E+02  0.491564822E+00  0.173043547E+01
   H  0.216002348E+02 -0.132279114E+01  0.195689900E+00
     4
 # iter = 49500  time[fs]=49.50000
   C -0.436796156E+01  0.268235666E+00 -0.186361028E+00
   C  0.416296680E+01 -0.572112040E-03  0.711761738E-01
   H -0.226815494E+02  0.499361115E+00  0.175846606E+01
   H  0.219505106E+02 -0.134434097E+01  0.198417853E+00
     4
 # iter = 50000  time[fs]=50.00000
   C -0.444678181E+01  0.272614773E+00 -0.190042245E+00
   C  0.423786263E+01 -0.718884268E-03  0.724434734E-01
   H -0.230472112E+02  0.507160298E+00  0.178651106E+01
   H  0.223009625E+02 -0.136590279E+01  0.201146706E+00
     4
 # iter = 50500  time[fs]=50.50000
   C -0.452574289E+01  0.276998587E+00 -0.193728776E+00
   C  0.431289854E+01 -0.869627705E-03  0.737148510E-01
   H -0.234130347E+02  0.514962279E+00  0.181457002E+01
   H  0.226515850E+02 -0.138747625E+01  0.203876429E+00
     4
 # iter = 51000  time[fs]=51.00000
   C -0.460483991E+01  0.281386941E+00 -0.197420447E+00
   C  0.438806966E+01 -0.102419698E-02  0.749901698E-01
   H -0.237790148E+02  0.522766970E+00  0.184264252E+01
   H  0.230023730E+02 -0.140906098E+01  0.206606994E+00
     4
 # iter = 51500  time[fs]=51.50000
   C -0.468406823E+01  0.285779676E+00 -0.201117092E+00
   C  0.446337136E+01 -0.118245426E-02  0.762692997E-01
   H -0.241451469E+02  0.530574290E+00  0.187072816E+01
   H  0.233533215E+02 -0.143065666E+01  0.209338371E+00
     4
 # iter = 52000  time[fs]=52.00000
   C -0.476342342E+01  0.290176642E+00 -0.204818552E+00
   C  0.453879924E+01 -0.134426874E-02  0.775521166E-01
   H -0.245114264E+02  0.538384156E+00  0.189882656E+01
   H  0.237044257E+02 -0.145226297E+01  0.212070535E+00
     4
 # iter = 52500  time[fs]=52.50000
   C -0.484290127E+01  0.294577694E+00 -0.208524677E+00
   C  0.461434910E+01 -0.150951619E-02  0.788385021E-01
   H -0.248778489E+02  0.546196494E+00  0.192693736E+01
   H  0.240556812E+02 -0.147387959E+01  0.214803461E+00
     4
 # iter = 53000  time[fs]=53.00000
   C -0.492249778E+01  0.298982698E+00 -0.212235323E+00
   C  0.469001697E+01 -0.167807855E-02  0.801283435E-01
   H -0.252444105E+02  0.554011230E+00  0.195506019E+01
   H  0.244070835E+02 -0.149550624E+01  0.217537124E+00
     4
 # iter = 53500  time[fs]=53.50000
   C -0.500220913E+01  0.303391521E+00 -0.215950351E+00
   C  0.476579902E+01 -0.184984351E-02  0.814215329E-01
   H -0.256111070E+02  0.561828294E+00  0.198319472E+01
   H  0.247586287E+02 -0.151714264E+01  0.220271502E+00
     4
 # iter = 54000  time[fs]=54.00000
   C -0.508203166E+01  0.307804042E+00 -0.219669630E+00
   C  0.484169163E+01 -0.202470418E-02  0.827179673E-01
   H -0.259779348E+02  0.569647620E+00  0.201134062E+01
   H  0.251103125E+02 -0.153878851E+01  0.223006573E+00
     4
 # iter = 54500  time[fs]=54.50000
   C -0.516196192E+01  0.312220142E+00 -0.223393034E+00
   C  0.491769134E+01 -0.220255874E-02  0.840175482E-01
   H -0.263448901E+02  0.577469144E+00  0.203949760E+01
   H  0.254621314E+02 -0.156044360E+01  0.225742315E+00
     4
 # iter = 55000  time[fs]=55.00000
   C -0.524199656E+01  0.316639708E+00 -0.227120442E+00
   C  0.499379484E+01 -0.238331014E-02  0.853201817E-01
   H -0.267119695E+02  0.585292805E+00  0.206766534E+01
   H  0.258140815E+02 -0.158210767E+01  0.228478709E+00
     4
 # iter = 55500  time[fs]=55.50000
   C -0.532213241E+01  0.321062634E+00 -0.230851739E+00
   C  0.506999897E+01 -0.256686581E-02  0.866257775E-01
   H -0.270791697E+02  0.593118543E+00  0.209584357E+01
   H  0.261661594E+02 -0.160378046E+01  0.231215736E+00
     4
 # iter = 56000  time[fs]=56.00000
   C -0.540236644E+01  0.325488815E+00 -0.234586814E+00
   C  0.514630070E+01 -0.275313742E-02  0.879342493E-01
   H -0.274464874E+02  0.600946302E+00  0.212403201E+01
   H  0.265183617E+02 -0.162546177E+01  0.233953377E+00
     4
 # iter = 56500  time[fs]=56.50000
   C -0.548269573E+01  0.329918154E+00 -0.238325561E+00
   C  0.522269714E+01 -0.294204057E-02  0.892455145E-01
   H -0.278139195E+02  0.608776028E+00  0.215223039E+01
   H  0.268706851E+02 -0.164715135E+01  0.236691614E+00
     4
 # iter = 57000  time[fs]=57.00000
   C -0.556311752E+01  0.334350558E+00 -0.242067877E+00
   C  0.529918552E+01 -0.313349463E-02  0.905594938E-01
   H -0.281814631E+02  0.616607669E+00  0.218043847E+01
   H  0.272231266E+02 -0.166884901E+01  0.239430431E+00
     4
 # iter = 57500  time[fs]=57.50000
   C -0.564362913E+01  0.338785936E+00 -0.245813667E+00
   C  0.537576319E+01 -0.332742251E-02  0.918761112E-01
   H -0.285491153E+02  0.624441174E+00  0.220865599E+01
   H  0.275756831E+02 -0.169055454E+01  0.242169812E+00
     4
 # iter = 58000  time[fs]=58.00000
   C -0.572422800E+01  0.343224202E+00 -0.249562834E+00
   C  0.545242759E+01 -0.352375043E-02  0.931952937E-01
   H -0.289168734E+02  0.632276497E+00  0.223688272E+01
   H  0.279283518E+02 -0.171226775E+01  0.244909741E+00
     4
 # iter = 58500  time[fs]=58.50000
   C -0.580491168E+01  0.347665274E+00 -0.253315290E+00
   C  0.552917631E+01 -0.372240777E-02  0.945169712E-01
   H -0.292847346E+02  0.640113590E+00  0.226511844E+01
   H  0.282811298E+02 -0.173398844E+01  0.247650203E+00
     4
 # iter = 59000  time[fs]=59.00000
   C -0.588567783E+01  0.352109072E+00 -0.257070947E+00
   C  0.560600698E+01 -0.392332688E-02  0.958410765E-01
   H -0.296526966E+02  0.647952409E+00  0.229336293E+01
   H  0.286340145E+02 -0.175571643E+01  0.250391183E+00
     4
 # iter = 59500  time[fs]=59.50000
   C -0.596652419E+01  0.356555521E+00 -0.260829723E+00
   C  0.568291737E+01 -0.412644293E-02  0.971675449E-01
   H -0.300207568E+02  0.655792911E+00  0.232161597E+01
   H  0.289870032E+02 -0.177745156E+01  0.253132669E+00
     4
 # iter = 60000  time[fs]=60.00000
   C -0.604744858E+01  0.361004548E+00 -0.264591537E+00
   C  0.575990532E+01 -0.433169376E-02  0.984963142E-01
   H -0.303889128E+02  0.663635055E+00  0.234987737E+01
   H  0.293400936E+02 -0.179919364E+01  0.255874646E+00
     4
 # iter = 60500  time[fs]=60.50000
   C -0.612844893E+01  0.365456083E+00 -0.268356312E+00
   C  0.583696876E+01 -0.453901971E-02  0.998273246E-01
   H -0.307571624E+02  0.671478801E+00  0.237814693E+01
   H  0.296932831E+02 -0.182094252E+01  0.258617102E+00
     4
 # iter = 61000  time[fs]=61.00000
   C -0.620952323E+01  0.369910059E+00 -0.272123973E+00
   C  0.591410569E+01 -0.474836353E-02  0.101160519E+00
   H -0.311255033E+02  0.679324110E+00  0.240642446E+01
   H  0.300465695E+02 -0.184269804E+01  0.261360025E+00
     4
 # iter = 61500  time[fs]=61.50000
   C -0.629066955E+01  0.374366411E+00 -0.275894449E+00
   C  0.599131419E+01 -0.495967025E-02  0.102495840E+00
   H -0.314939335E+02  0.687170946E+00  0.243470977E+01
   H  0.303999506E+02 -0.186446005E+01  0.264103403E+00
     4
 # iter = 62000  time[fs]=62.00000
   C -0.637188605E+01  0.378825078E+00 -0.279667671E+00
   C  0.606859243E+01 -0.517288702E-02  0.103833237E+00
   H -0.318624509E+02  0.695019272E+00  0.246300269E+01
   H  0.307534241E+02 -0.188622839E+01  0.266847225E+00
     4
 # iter = 62500  time[fs]=62.50000
   C -0.645317092E+01  0.383285998E+00 -0.283443572E+00
   C  0.614593861E+01 -0.538796305E-02  0.105172657E+00
   H -0.322310534E+02  0.702869054E+00  0.249130306E+01
   H  0.311069880E+02 -0.190800294E+01  0.269591479E+00
     4
 # iter = 63000  time[fs]=63.00000
   C -0.653452247E+01  0.387749116E+00 -0.287222089E+00
   C  0.622335104E+01 -0.560484951E-02  0.106514050E+00
   H -0.325997393E+02  0.710720259E+00  0.251961070E+01
   H  0.314606403E+02 -0.192978354E+01  0.272336155E+00
     4
 # iter = 63500  time[fs]=63.50000
   C -0.661593902E+01  0.392214375E+00 -0.291003158E+00
   C  0.630082806E+01 -0.582349939E-02  0.107857369E+00
   H -0.329685066E+02  0.718572855E+00  0.254792546E+01
   H  0.318143790E+02 -0.195157007E+01  0.275081243E+00
     4
 # iter = 64000  time[fs]=64.00000
   C -0.669741898E+01  0.396681723E+00 -0.294786721E+00
   C  0.637836809E+01 -0.604386746E-02  0.109202568E+00
   H -0.333373535E+02  0.726426809E+00  0.257624718E+01
   H  0.321682022E+02 -0.197336240E+01  0.277826733E+00
     4
 # iter = 64500  time[fs]=64.50000
   C -0.677896081E+01  0.401151107E+00 -0.298572719E+00
   C  0.645596959E+01 -0.626591013E-02  0.110549602E+00
   H -0.337062784E+02  0.734282093E+00  0.260457571E+01
   H  0.325221080E+02 -0.199516041E+01  0.280572615E+00
     4
 # iter = 65000  time[fs]=65.00000
   C -0.686056303E+01  0.405622478E+00 -0.302361097E+00
   C  0.653363108E+01 -0.648958544E-02  0.111898427E+00
   H -0.340752794E+02  0.742138678E+00  0.263291092E+01
   H  0.328760948E+02 -0.201696397E+01  0.283318881E+00
     4
 # iter = 65500  time[fs]=65.50000
   C -0.694222419E+01  0.410095789E+00 -0.306151800E+00
   C  0.661135114E+01 -0.671485291E-02  0.113249004E+00
   H -0.344443551E+02  0.749996534E+00  0.266125265E+01
   H  0.332301608E+02 -0.203877297E+01  0.286065521E+00
     4
 # iter = 66000  time[fs]=66.00000
   C -0.702394292E+01  0.414570993E+00 -0.309944777E+00
   C  0.668912839E+01 -0.694167355E-02  0.114601290E+00
   H -0.348135038E+02  0.757855634E+00  0.268960077E+01
   H  0.335843043E+02 -0.206058730E+01  0.288812527E+00
     4
 # iter = 66500  time[fs]=66.50000
   C -0.710571788E+01  0.419048045E+00 -0.313739977E+00
   C  0.676696150E+01 -0.717000970E-02  0.115955248E+00
   H -0.351827241E+02  0.765715953E+00  0.271795516E+01
   H  0.339385238E+02 -0.208240684E+01  0.291559891E+00
     4
 # iter = 67000  time[fs]=67.00000
   C -0.718754777E+01  0.423526903E+00 -0.317537352E+00
   C  0.684484918E+01 -0.739982506E-02  0.117310839E+00
   H -0.355520143E+02  0.773577464E+00  0.274631568E+01
   H  0.342928176E+02 -0.210423149E+01  0.294307604E+00
     4
 # iter = 67500  time[fs]=67.50000
   C -0.726943135E+01  0.428007525E+00 -0.321336853E+00
   C  0.692279019E+01 -0.763108456E-02  0.118668028E+00
   H -0.359213732E+02  0.781440143E+00  0.277468221E+01
   H  0.346471843E+02 -0.212606114E+01  0.297055660E+00
     4
 # iter = 68000  time[fs]=68.00000
   C -0.735136740E+01  0.432489871E+00 -0.325138436E+00
   C  0.700078333E+01 -0.786375434E-02  0.120026780E+00
   H -0.362907992E+02  0.789303966E+00  0.280305464E+01
   H  0.350016223E+02 -0.214789570E+01  0.299804049E+00
     4
 # iter = 68500  time[fs]=68.50000
   C -0.743335477E+01  0.436973902E+00 -0.328942055E+00
   C  0.707882743E+01 -0.809780168E-02  0.121387060E+00
   H -0.366602911E+02  0.797168909E+00  0.283143284E+01
   H  0.353561303E+02 -0.216973507E+01  0.302552766E+00
     4
 # iter = 69000  time[fs]=69.00000
   C -0.751539231E+01  0.441459580E+00 -0.332747668E+00
   C  0.715692138E+01 -0.833319498E-02  0.122748835E+00
   H -0.370298476E+02  0.805034950E+00  0.285981670E+01
   H  0.357107070E+02 -0.219157916E+01  0.305301802E+00
     4
 # iter = 69500  time[fs]=69.50000
   C -0.759747893E+01  0.445946870E+00 -0.336555234E+00
   C  0.723506408E+01 -0.856990367E-02  0.124112074E+00
   H -0.373994674E+02  0.812902066E+00  0.288820611E+01
   H  0.360653508E+02 -0.221342787E+01  0.308051152E+00
     4
 # iter = 70000  time[fs]=70.00000
   C -0.767961358E+01  0.450435735E+00 -0.340364711E+00
   C  0.731325448E+01 -0.880789817E-02  0.125476745E+00
   H -0.377691492E+02  0.820770237E+00  0.291660097E+01
   H  0.364200606E+02 -0.223528111E+01  0.310800809E+00
     4
 # iter = 70500  time[fs]=70.50000
   C -0.776179522E+01  0.454926142E+00 -0.344176062E+00
   C  0.739149156E+01 -0.904714990E-02  0.126842819E+00
   H -0.381388919E+02  0.828639442E+00  0.294500117E+01
   H  0.367748351E+02 -0.225713880E+01  0.313550765E+00
     4
 # iter = 71000  time[fs]=71.00000
   C -0.784402287E+01  0.459418058E+00 -0.347989247E+00
   C  0.746977433E+01 -0.928763118E-02  0.128210267E+00
   H -0.385086943E+02  0.836509661E+00  0.297340662E+01
   H  0.371296730E+02 -0.227900086E+01  0.316301016E+00
     4
 # iter = 71500  time[fs]=71.50000
   C -0.792629555E+01  0.463911450E+00 -0.351804231E+00
   C  0.754810184E+01 -0.952931521E-02  0.129579060E+00
   H -0.388785552E+02  0.844380873E+00  0.300181720E+01
   H  0.374845732E+02 -0.230086720E+01  0.319051555E+00
     4
 # iter = 72000  time[fs]=72.00000
   C -0.800861234E+01  0.468406289E+00 -0.355620977E+00
   C  0.762647314E+01 -0.977217603E-02  0.130949172E+00
   H -0.392484736E+02  0.852253062E+00  0.303023284E+01
   H  0.378395345E+02 -0.232273775E+01  0.321802376E+00
     4
 # iter = 72500  time[fs]=72.50000
   C -0.809097233E+01  0.472902543E+00 -0.359439451E+00
   C  0.770488734E+01 -0.100161885E-01  0.132320574E+00
   H -0.396184484E+02  0.860126207E+00  0.305865344E+01
   H  0.381945557E+02 -0.234461242E+01  0.324553473E+00
     4
 # iter = 73000  time[fs]=73.00000
   C -0.817337463E+01  0.477400184E+00 -0.363259618E+00
   C  0.778334357E+01 -0.102613283E-01  0.133693243E+00
   H -0.399884786E+02  0.868000291E+00  0.308707890E+01
   H  0.385496358E+02 -0.236649114E+01  0.327304842E+00
     4
 # iter = 73500  time[fs]=73.50000
   C -0.825581840E+01  0.481899183E+00 -0.367081447E+00
   C  0.786184099E+01 -0.105075718E-01  0.135067152E+00
   H -0.403585631E+02  0.875875296E+00  0.311550914E+01
   H  0.389047737E+02 -0.238837384E+01  0.330056476E+00
     4
 # iter = 74000  time[fs]=74.00000
   C -0.833830281E+01  0.486399514E+00 -0.370904906E+00
   C  0.794037875E+01 -0.107548961E-01  0.136442278E+00
   H -0.407287011E+02  0.883751207E+00  0.314394408E+01
   H  0.392599683E+02 -0.241026046E+01  0.332808370E+00
     4
 # iter = 74500  time[fs]=74.50000
   C -0.842082706E+01  0.490901149E+00 -0.374729963E+00
   C  0.801895608E+01 -0.110032790E-01  0.137818597E+00
   H -0.410988914E+02  0.891628005E+00  0.317238363E+01
   H  0.396152187E+02 -0.243215091E+01  0.335560520E+00
     4
 # iter = 75000  time[fs]=75.00000
   C -0.850339035E+01  0.495404063E+00 -0.378556588E+00
   C  0.809757218E+01 -0.112526989E-01  0.139196086E+00
   H -0.414691332E+02  0.899505676E+00  0.320082771E+01
   H  0.399705238E+02 -0.245404513E+01  0.338312921E+00
     4
 # iter = 75500  time[fs]=75.50000
   C -0.858599195E+01  0.499908230E+00 -0.382384753E+00
   C  0.817622632E+01 -0.115031349E-01  0.140574723E+00
   H -0.418394256E+02  0.907384203E+00  0.322927624E+01
   H  0.403258828E+02 -0.247594306E+01  0.341065567E+00
     4
 # iter = 76000  time[fs]=76.00000
   C -0.866863110E+01  0.504413627E+00 -0.386214429E+00
   C  0.825491775E+01 -0.117545669E-01  0.141954486E+00
   H -0.422097676E+02  0.915263572E+00  0.325772915E+01
   H  0.406812946E+02 -0.249784463E+01  0.343818455E+00
     4
 # iter = 76500  time[fs]=76.50000
   C -0.875130710E+01  0.508920229E+00 -0.390045588E+00
   C  0.833364576E+01 -0.120069749E-01  0.143335354E+00
   H -0.425801586E+02  0.923143767E+00  0.328618636E+01
   H  0.410367583E+02 -0.251974978E+01  0.346571579E+00
     4
 # iter = 77000  time[fs]=77.00000
   C -0.883401924E+01  0.513428014E+00 -0.393878203E+00
   C  0.841240966E+01 -0.122603400E-01  0.144717307E+00
   H -0.429505975E+02  0.931024774E+00  0.331464780E+01
   H  0.413922731E+02 -0.254165845E+01  0.349324935E+00
     4
 # iter = 77500  time[fs]=77.50000
   C -0.891676685E+01  0.517936959E+00 -0.397712249E+00
   C  0.849120878E+01 -0.125146435E-01  0.146100324E+00
   H -0.433210836E+02  0.938906580E+00  0.334311339E+01
   H  0.417478382E+02 -0.256357058E+01  0.352078520E+00
     4
 # iter = 78000  time[fs]=78.00000
   C -0.899954928E+01  0.522447043E+00 -0.401547699E+00
   C  0.857004247E+01 -0.127698674E-01  0.147484387E+00
   H -0.436916161E+02  0.946789170E+00  0.337158308E+01
   H  0.421034525E+02 -0.258548611E+01  0.354832328E+00
     4
 # iter = 78500  time[fs]=78.50000
   C -0.908236587E+01  0.526958244E+00 -0.405384529E+00
   C  0.864891009E+01 -0.130259940E-01  0.148869476E+00
   H -0.440621942E+02  0.954672531E+00  0.340005678E+01
   H  0.424591155E+02 -0.260740499E+01  0.357586356E+00
     4
 # iter = 79000  time[fs]=79.00000
   C -0.916521602E+01  0.531470542E+00 -0.409222715E+00
   C  0.872781101E+01 -0.132830064E-01  0.150255574E+00
   H -0.444328171E+02  0.962556651E+00  0.342853444E+01
   H  0.428148261E+02 -0.262932716E+01  0.360340600E+00
     4
 # iter = 79500  time[fs]=79.50000
   C -0.924809910E+01  0.535983916E+00 -0.413062233E+00
   C  0.880674464E+01 -0.135408879E-01  0.151642661E+00
   H -0.448034842E+02  0.970441516E+00  0.345701599E+01
   H  0.431705837E+02 -0.265125257E+01  0.363095056E+00
     4
 # iter = 80000  time[fs]=80.00000
   C -0.933101454E+01  0.540498348E+00 -0.416903060E+00
   C  0.888571038E+01 -0.137996223E-01  0.153030721E+00
   H -0.451741947E+02  0.978327114E+00  0.348550137E+01
   H  0.435263875E+02 -0.267318116E+01  0.365849720E+00
