     4
 # iter = 25000  time[fs]=25.00000
   C -0.982151999E+00 -0.224746850E-01 -0.702497943E-01
   C  0.958015989E+00  0.229790004E-01  0.320131646E-01
   H -0.534720290E+01  0.314338055E+00 -0.325823010E+00
   H  0.522170765E+01 -0.407933573E+00  0.126516957E+00
     4
 # iter = 25500  time[fs]=25.50000
   C -0.102584924E+01 -0.237477476E-01 -0.717064313E-01
   C  0.996390319E+00  0.246518237E-01  0.330357269E-01
   H -0.567561759E+01  0.335603406E+00 -0.343390139E+00
   H  0.553508828E+01 -0.435144069E+00  0.134595410E+00
     4
 # iter = 26000  time[fs]=26.00000
   C -0.107276816E+01 -0.251054713E-01 -0.733277626E-01
   C  0.103797767E+01  0.264143097E-01  0.342291470E-01
   H -0.600666669E+01  0.357046244E+00 -0.361105324E+00
   H  0.585120725E+01 -0.462592072E+00  0.142747959E+00
     4
 # iter = 26500  time[fs]=26.50000
   C -0.112264750E+01 -0.265421227E-01 -0.750979527E-01
   C  0.108251754E+01  0.282602180E-01  0.355768711E-01
   H -0.634006348E+01  0.378647669E+00 -0.378952039E+00
   H  0.616976871E+01 -0.490252596E+00  0.150966693E+00
     4
 # iter = 27000  time[fs]=27.00000
   C -0.117524136E+01 -0.280521816E-01 -0.770025460E-01
   C  0.112976470E+01  0.301835945E-01  0.370638451E-01
   H -0.667556490E+01  0.400391673E+00 -0.396916344E+00
   H  0.649052148E+01 -0.518104428E+00  0.159244858E+00
     4
 # iter = 27500  time[fs]=27.50000
   C -0.123032110E+01 -0.296303958E-01 -0.790284640E-01
   C  0.117949113E+01  0.321788131E-01  0.386764858E-01
   H -0.701296323E+01  0.422264577E+00 -0.414986373E+00
   H  0.681325058E+01 -0.546129402E+00  0.167576642E+00
     4
 # iter = 28000  time[fs]=28.00000
   C -0.128767610E+01 -0.312718172E-01 -0.811639501E-01
   C  0.123148674E+01  0.342406015E-01  0.404026074E-01
   H -0.735207962E+01  0.444254596E+00 -0.433151949E+00
   H  0.713777068E+01 -0.574311842E+00  0.175957020E+00
     4
 # iter = 28500  time[fs]=28.50000
   C -0.134711367E+01 -0.329718212E-01 -0.833984831E-01
   C  0.128555931E+01  0.363640514E-01  0.422313207E-01
   H -0.769275902E+01  0.466351504E+00 -0.451404283E+00
   H  0.746392096E+01 -0.602638118E+00  0.184381618E+00
     4
 # iter = 29000  time[fs]=29.00000
   C -0.140845834E+01 -0.347261126E-01 -0.857226756E-01
   C  0.134153383E+01  0.385446188E-01  0.441529201E-01
   H -0.803486620E+01  0.488546368E+00 -0.469735729E+00
   H  0.779156102E+01 -0.631096310E+00  0.192846610E+00
     4
 # iter = 29500  time[fs]=29.50000
   C -0.147155095E+01 -0.365307216E-01 -0.881281660E-01
   C  0.139925151E+01  0.407781138E-01  0.461587669E-01
   H -0.837828253E+01  0.510831337E+00 -0.488139603E+00
   H  0.812056758E+01 -0.659675928E+00  0.201348635E+00
     4
 # iter = 30000  time[fs]=30.00000
   C -0.153624745E+01 -0.383819920E-01 -0.906075118E-01
   C  0.145856864E+01  0.430606850E-01  0.482411763E-01
   H -0.872290339E+01  0.533199475E+00 -0.506610024E+00
   H  0.845083186E+01 -0.688367693E+00  0.209884720E+00
     4
 # iter = 30500  time[fs]=30.50000
   C -0.160241762E+01 -0.402765660E-01 -0.931540894E-01
   C  0.151935533E+01  0.453888005E-01  0.503933109E-01
   H -0.906863608E+01  0.555644623E+00 -0.525141792E+00
   H  0.878225741E+01 -0.717163354E+00  0.218452232E+00
     4
 # iter = 31000  time[fs]=31.00000
   C -0.166994386E+01 -0.422113650E-01 -0.957619999E-01
   C  0.158149424E+01  0.477592257E-01  0.526090829E-01
   H -0.941539808E+01  0.578161284E+00 -0.543730292E+00
   H  0.911475830E+01 -0.746055547E+00  0.227048823E+00
     4
 # iter = 31500  time[fs]=31.50000
   C -0.173871995E+01 -0.441835695E-01 -0.984259850E-01
   C  0.164487942E+01  0.501690010E-01  0.548830656E-01
   H -0.976311564E+01  0.600744534E+00 -0.562371404E+00
   H  0.944825772E+01 -0.775037663E+00  0.235672391E+00
     4
 # iter = 32000  time[fs]=32.00000
   C -0.180864992E+01 -0.461905993E-01 -0.101141351E+00
   C  0.170941514E+01  0.526154195E-01  0.572104147E-01
   H -0.101117226E+02  0.623389945E+00 -0.581061438E+00
   H  0.978268668E+01 -0.804103756E+00  0.244321053E+00
     4
 # iter = 32500  time[fs]=32.50000
   C -0.187964700E+01 -0.482300928E-01 -0.103903901E+00
   C  0.177501483E+01  0.550960053E-01  0.595867987E-01
   H -0.104611593E+02  0.646093518E+00 -0.599797077E+00
   H  0.101179830E+02 -0.833248453E+00  0.252993111E+00
     4
 # iter = 33000  time[fs]=33.00000
   C -0.195163267E+01 -0.502998890E-01 -0.106709876E+00
   C  0.184160017E+01  0.576084932E-01  0.620083371E-01
   H -0.108113718E+02  0.668851629E+00 -0.618575328E+00
   H  0.104540906E+02 -0.862466881E+00  0.261687030E+00
     4
 # iter = 33500  time[fs]=33.50000
   C -0.202453577E+01 -0.523980087E-01 -0.109555903E+00
   C  0.190910017E+01  0.601508092E-01  0.644715467E-01
   H -0.111623115E+02  0.691660985E+00 -0.637393481E+00
   H  0.107909584E+02 -0.891754610E+00  0.270401419E+00
     4
 # iter = 34000  time[fs]=34.00000
   C -0.209829175E+01 -0.545226381E-01 -0.112438948E+00
   C  0.197745044E+01  0.627210530E-01  0.669732945E-01
   H -0.115139337E+02  0.714518585E+00 -0.656249075E+00
   H  0.111285402E+02 -0.921107599E+00  0.279135014E+00
     4
 # iter = 34500  time[fs]=34.50000
   C -0.217284192E+01 -0.566721140E-01 -0.115356279E+00
   C  0.204659246E+01  0.653174819E-01  0.695107565E-01
   H -0.118661982E+02  0.737421683E+00 -0.675139869E+00
   H  0.114667936E+02 -0.950522150E+00  0.287886661E+00
     4
 # iter = 35000  time[fs]=35.00000
   C -0.224813291E+01 -0.588449089E-01 -0.118305427E+00
   C  0.211647296E+01  0.679384957E-01  0.720813820E-01
   H -0.122190677E+02  0.760367766E+00 -0.694063815E+00
   H  0.118056799E+02 -0.979994876E+00  0.296655306E+00
     4
 # iter = 35500  time[fs]=35.50000
   C -0.232411603E+01 -0.610396192E-01 -0.121284159E+00
   C  0.218704341E+01  0.705826236E-01  0.746828618E-01
   H -0.125725084E+02  0.783354520E+00 -0.713019039E+00
   H  0.121451637E+02 -0.100952266E+01  0.305439985E+00
     4
 # iter = 36000  time[fs]=36.00000
   C -0.240074686E+01 -0.632549531E-01 -0.124290450E+00
   C  0.225825948E+01  0.732485119E-01  0.773131015E-01
   H -0.129264891E+02  0.806379816E+00 -0.732003821E+00
   H  0.124852125E+02 -0.103910262E+01  0.314239811E+00
     4
 # iter = 36500  time[fs]=36.50000
   C -0.247798474E+01 -0.654897203E-01 -0.127322460E+00
   C  0.233008063E+01  0.759349133E-01  0.799701972E-01
   H -0.132809810E+02  0.829441690E+00 -0.751016575E+00
   H  0.128257962E+02 -0.106873212E+01  0.323053966E+00
     4
 # iter = 37000  time[fs]=37.00000
   C -0.255579244E+01 -0.677428227E-01 -0.130378514E+00
   C  0.240246973E+01  0.786406764E-01  0.826524145E-01
   H -0.136359577E+02  0.852538322E+00 -0.770055843E+00
   H  0.131668871E+02 -0.109840870E+01  0.331881699E+00
     4
 # iter = 37500  time[fs]=37.50000
   C -0.263413579E+01 -0.700132459E-01 -0.133457083E+00
   C  0.247539270E+01  0.813647378E-01  0.853581706E-01
   H -0.139913947E+02  0.875668028E+00 -0.789120275E+00
   H  0.135084596E+02 -0.112813008E+01  0.340722313E+00
     4
 # iter = 38000  time[fs]=38.00000
   C -0.271298339E+01 -0.723000515E-01 -0.136556770E+00
   C  0.254881823E+01  0.841061134E-01  0.880860180E-01
   H -0.143472692E+02  0.898829240E+00 -0.808208621E+00
   H  0.138504900E+02 -0.115789415E+01  0.349575164E+00
     4
 # iter = 38500  time[fs]=38.50000
   C -0.279230633E+01 -0.746023703E-01 -0.139676295E+00
   C  0.262271748E+01  0.868638912E-01  0.908346301E-01
   H -0.147035601E+02  0.922020505E+00 -0.827319723E+00
   H  0.141929562E+02 -0.118769894E+01  0.358439653E+00
     4
 # iter = 39000  time[fs]=39.00000
   C -0.287207794E+01 -0.769193961E-01 -0.142814485E+00
   C  0.269706387E+01  0.896372255E-01  0.936027894E-01
   H -0.150602478E+02  0.945240463E+00 -0.846452503E+00
   H  0.145358376E+02 -0.121754262E+01  0.367315225E+00
     4
 # iter = 39500  time[fs]=39.50000
   C -0.295227362E+01 -0.792503805E-01 -0.145970260E+00
   C  0.277183285E+01  0.924253305E-01  0.963893762E-01
   H -0.154173141E+02  0.968487847E+00 -0.865605959E+00
   H  0.148791153E+02 -0.124742347E+01  0.376201364E+00
     4
 # iter = 40000  time[fs]=40.00000
   C -0.303287058E+01 -0.815946271E-01 -0.149142625E+00
   C  0.284700171E+01  0.952274752E-01  0.991933588E-01
   H -0.157747420E+02  0.991761474E+00 -0.884779155E+00
   H  0.152227713E+02 -0.127733989E+01  0.385097585E+00
     4
 # iter = 40500  time[fs]=40.50000
   C -0.311384772E+01 -0.839514878E-01 -0.152330665E+00
   C  0.292254942E+01  0.980429789E-01  0.102013785E+00
   H -0.161325154E+02  0.101506023E+01 -0.903971219E+00
   H  0.155667890E+02 -0.130729038E+01  0.394003440E+00
     4
 # iter = 41000  time[fs]=41.00000
   C -0.319518549E+01 -0.863203584E-01 -0.155533532E+00
   C  0.299845646E+01  0.100871207E+00  0.104849775E+00
   H -0.164906196E+02  0.103838308E+01 -0.923181333E+00
   H  0.159111529E+02 -0.133727353E+01  0.402918506E+00
     4
 # iter = 41500  time[fs]=41.50000
   C -0.327686570E+01 -0.887006747E-01 -0.158750442E+00
   C  0.307470471E+01  0.103711566E+00  0.107700513E+00
   H -0.168490405E+02  0.106172905E+01 -0.942408731E+00
   H  0.162558483E+02 -0.136728803E+01  0.411842390E+00
     4
 # iter = 42000  time[fs]=42.00000
   C -0.335887143E+01 -0.910919096E-01 -0.161980668E+00
   C  0.315127730E+01  0.106563502E+00  0.110565245E+00
   H -0.172077650E+02  0.108509721E+01 -0.961652697E+00
   H  0.166008615E+02 -0.139733263E+01  0.420774720E+00
     4
 # iter = 42500  time[fs]=42.50000
   C -0.344118693E+01 -0.934935699E-01 -0.165223536E+00
   C  0.322815853E+01  0.109426497E+00  0.113443268E+00
   H -0.175667808E+02  0.110848671E+01 -0.980912556E+00
   H  0.169461796E+02 -0.142740615E+01  0.429715150E+00
     4
 # iter = 43000  time[fs]=43.00000
   C -0.352379750E+01 -0.959051937E-01 -0.168478419E+00
   C  0.330533375E+01  0.112300064E+00  0.116333929E+00
   H -0.179260764E+02  0.113189672E+01 -0.100018767E+01
   H  0.172917905E+02 -0.145750750E+01  0.438663353E+00
     4
 # iter = 43500  time[fs]=43.50000
   C -0.360668942E+01 -0.983263476E-01 -0.171744732E+00
   C  0.338278926E+01  0.115183747E+00  0.119236620E+00
   H -0.182856409E+02  0.115532648E+01 -0.101947745E+01
   H  0.176376828E+02 -0.148763564E+01  0.447619022E+00
     4
 # iter = 44000  time[fs]=44.00000
   C -0.368984985E+01 -0.100756625E+00 -0.175021931E+00
   C  0.346051227E+01  0.118077119E+00  0.122150775E+00
   H -0.186454638E+02  0.117877526E+01 -0.103878133E+01
   H  0.179838458E+02 -0.151778957E+01  0.456581866E+00
     4
 # iter = 44500  time[fs]=44.50000
   C -0.377326677E+01 -0.103195643E+00 -0.178309509E+00
   C  0.353849081E+01  0.120979777E+00  0.125075863E+00
   H -0.190055356E+02  0.120224238E+01 -0.105809878E+01
   H  0.183302692E+02 -0.154796837E+01  0.465551612E+00
     4
 # iter = 45000  time[fs]=45.00000
   C -0.385692892E+01 -0.105643043E+00 -0.181606989E+00
   C  0.361671364E+01  0.123891341E+00  0.128011390E+00
   H -0.193658471E+02  0.122572718E+01 -0.107742930E+01
   H  0.186769434E+02 -0.157817117E+01  0.474528002E+00
     4
 # iter = 45500  time[fs]=45.50000
   C -0.394082572E+01 -0.108098485E+00 -0.184913928E+00
   C  0.369517022E+01  0.126811456E+00  0.130956891E+00
   H -0.197263895E+02  0.124922905E+01 -0.109677241E+01
   H  0.190238595E+02 -0.160839712E+01  0.483510793E+00
     4
 # iter = 46000  time[fs]=46.00000
   C -0.402494724E+01 -0.110561651E+00 -0.188229909E+00
   C  0.377385066E+01  0.129739783E+00  0.133911932E+00
   H -0.200871547E+02  0.127274740E+01 -0.111612766E+01
   H  0.193710086E+02 -0.163864543E+01  0.492499752E+00
     4
 # iter = 46500  time[fs]=46.50000
   C -0.410928414E+01 -0.113032238E+00 -0.191554541E+00
   C  0.385274564E+01  0.132676006E+00  0.136876104E+00
   H -0.204481348E+02  0.129628168E+01 -0.113549462E+01
   H  0.197183828E+02 -0.166891534E+01  0.501494661E+00
     4
 # iter = 47000  time[fs]=47.00000
   C -0.419382763E+01 -0.115509963E+00 -0.194887457E+00
   C  0.393184641E+01  0.135619824E+00  0.139849025E+00
   H -0.208093225E+02  0.131983136E+01 -0.115487290E+01
   H  0.200659743E+02 -0.169920616E+01  0.510495312E+00
     4
 # iter = 47500  time[fs]=47.50000
   C -0.427856942E+01 -0.117994556E+00 -0.198228312E+00
   C  0.401114468E+01  0.138570953E+00  0.142830334E+00
   H -0.211707108E+02  0.134339594E+01 -0.117426212E+01
   H  0.204137757E+02 -0.172951719E+01  0.519501509E+00
     4
 # iter = 48000  time[fs]=48.00000
   C -0.436350168E+01 -0.120485762E+00 -0.201576782E+00
   C  0.409063269E+01  0.141529124E+00  0.145819691E+00
   H -0.215322929E+02  0.136697494E+01 -0.119366189E+01
   H  0.207617800E+02 -0.175984779E+01  0.528513064E+00
     4
 # iter = 48500  time[fs]=48.50000
   C -0.444861705E+01 -0.122983341E+00 -0.204932559E+00
   C  0.417030306E+01  0.144494083E+00  0.148816775E+00
   H -0.218940626E+02  0.139056791E+01 -0.121307189E+01
   H  0.211099806E+02 -0.179019734E+01  0.537529799E+00
     4
 # iter = 49000  time[fs]=49.00000
   C -0.453390854E+01 -0.125487063E+00 -0.208295355E+00
   C  0.425014885E+01  0.147465589E+00  0.151821286E+00
   H -0.222560138E+02  0.141417441E+01 -0.123249178E+01
   H  0.214583711E+02 -0.182056525E+01  0.546551546E+00
     4
 # iter = 49500  time[fs]=49.50000
   C -0.461936955E+01 -0.127996712E+00 -0.211664899E+00
   C  0.433016348E+01  0.150443411E+00  0.154832937E+00
   H -0.226181407E+02  0.143779403E+01 -0.125192124E+01
   H  0.218069457E+02 -0.185095097E+01  0.555578143E+00
     4
 # iter = 50000  time[fs]=50.00000
   C -0.470499383E+01 -0.130512082E+00 -0.215040932E+00
   C  0.441034071E+01  0.153427333E+00  0.157851459E+00
   H -0.229804378E+02  0.146142637E+01 -0.127135998E+01
   H  0.221556984E+02 -0.188135395E+01  0.564609436E+00
     4
 # iter = 50500  time[fs]=50.50000
   C -0.479077546E+01 -0.133032978E+00 -0.218423210E+00
   C  0.449067465E+01  0.156417148E+00  0.160876597E+00
   H -0.233429000E+02  0.148507106E+01 -0.129080771E+01
   H  0.225046238E+02 -0.191177369E+01  0.573645279E+00
     4
 # iter = 51000  time[fs]=51.00000
   C -0.487670882E+01 -0.135559212E+00 -0.221811504E+00
   C  0.457115970E+01  0.159412658E+00  0.163908110E+00
   H -0.237055222E+02  0.150872774E+01 -0.131026416E+01
   H  0.228537167E+02 -0.194220969E+01  0.582685533E+00
     4
 # iter = 51500  time[fs]=51.50000
   C -0.496278858E+01 -0.138090609E+00 -0.225205594E+00
   C  0.465179055E+01  0.162413677E+00  0.166945767E+00
   H -0.240682996E+02  0.153239605E+01 -0.132972906E+01
   H  0.232029721E+02 -0.197266149E+01  0.591730064E+00
     4
 # iter = 52000  time[fs]=52.00000
   C -0.504900967E+01 -0.140626999E+00 -0.228605274E+00
   C  0.473256215E+01  0.165420026E+00  0.169989352E+00
   H -0.244312277E+02  0.155607568E+01 -0.134920218E+01
   H  0.235523852E+02 -0.200312865E+01  0.600778744E+00
     4
 # iter = 52500  time[fs]=52.50000
   C -0.513536729E+01 -0.143168222E+00 -0.232010346E+00
   C  0.481346970E+01  0.168431535E+00  0.173038658E+00
   H -0.247943021E+02  0.157976630E+01 -0.136868326E+01
   H  0.239019514E+02 -0.203361072E+01  0.609831451E+00
     4
 # iter = 53000  time[fs]=53.00000
   C -0.522185685E+01 -0.145714125E+00 -0.235420624E+00
   C  0.489450864E+01  0.171448042E+00  0.176093489E+00
   H -0.251575186E+02  0.160346761E+01 -0.138817209E+01
   H  0.242516663E+02 -0.206410730E+01  0.618888069E+00
     4
 # iter = 53500  time[fs]=53.50000
   C -0.530847399E+01 -0.148264560E+00 -0.238835931E+00
   C  0.497567462E+01  0.174469392E+00  0.179153659E+00
   H -0.255208732E+02  0.162717932E+01 -0.140766844E+01
   H  0.246015259E+02 -0.209461799E+01  0.627948485E+00
     4
 # iter = 54000  time[fs]=54.00000
   C -0.539521455E+01 -0.150819390E+00 -0.242256097E+00
   C  0.505696350E+01  0.177495437E+00  0.182218991E+00
   H -0.258843621E+02  0.165090115E+01 -0.142717211E+01
   H  0.249515259E+02 -0.212514242E+01  0.637012594E+00
     4
 # iter = 54500  time[fs]=54.50000
   C -0.548207458E+01 -0.153378480E+00 -0.245680961E+00
   C  0.513837134E+01  0.180526035E+00  0.185289314E+00
   H -0.262479816E+02  0.167463284E+01 -0.144668289E+01
   H  0.253016626E+02 -0.215568022E+01  0.646080292E+00
     4
 # iter = 55000  time[fs]=55.00000
   C -0.556905029E+01 -0.155941702E+00 -0.249110371E+00
   C  0.521989438E+01  0.183561052E+00  0.188364469E+00
   H -0.266117281E+02  0.169837411E+01 -0.146620059E+01
   H  0.256519323E+02 -0.218623105E+01  0.655151481E+00
     4
 # iter = 55500  time[fs]=55.50000
   C -0.565613808E+01 -0.158508936E+00 -0.252544181E+00
   C  0.530152901E+01  0.186600357E+00  0.191444302E+00
   H -0.269755984E+02  0.172212473E+01 -0.148572502E+01
   H  0.260023315E+02 -0.221679455E+01  0.664226066E+00
     4
 # iter = 56000  time[fs]=56.00000
   C -0.574333449E+01 -0.161080063E+00 -0.255982250E+00
   C  0.538327180E+01  0.189643828E+00  0.194528666E+00
   H -0.273395890E+02  0.174588446E+01 -0.150525602E+01
   H  0.263528566E+02 -0.224737042E+01  0.673303956E+00
     4
 # iter = 56500  time[fs]=56.50000
   C -0.583063625E+01 -0.163654971E+00 -0.259424446E+00
   C  0.546511947E+01  0.192691345E+00  0.197617421E+00
   H -0.277036969E+02  0.176965307E+01 -0.152479341E+01
   H  0.267035045E+02 -0.227795834E+01  0.682385065E+00
     4
 # iter = 57000  time[fs]=57.00000
   C -0.591804019E+01 -0.166233555E+00 -0.262870643E+00
   C  0.554706889E+01  0.195742794E+00  0.200710433E+00
   H -0.280679190E+02  0.179343033E+01 -0.154433701E+01
   H  0.270542719E+02 -0.230855801E+01  0.691469309E+00
     4
 # iter = 57500  time[fs]=57.50000
   C -0.600554330E+01 -0.168815710E+00 -0.266320718E+00
   C  0.562911704E+01  0.198798066E+00  0.203807575E+00
   H -0.284322526E+02  0.181721604E+01 -0.156388669E+01
   H  0.274051559E+02 -0.233916914E+01  0.700556607E+00
     4
 # iter = 58000  time[fs]=58.00000
   C -0.609314269E+01 -0.171401339E+00 -0.269774555E+00
   C  0.571126106E+01  0.201857057E+00  0.206908724E+00
   H -0.287966946E+02  0.184100999E+01 -0.158344228E+01
   H  0.277561535E+02 -0.236979146E+01  0.709646881E+00
     4
 # iter = 58500  time[fs]=58.50000
   C -0.618083560E+01 -0.173990346E+00 -0.273232043E+00
   C  0.579349818E+01  0.204919666E+00  0.210013764E+00
   H -0.291612426E+02  0.186481199E+01 -0.160300364E+01
   H  0.281072619E+02 -0.240042470E+01  0.718740058E+00
     4
 # iter = 59000  time[fs]=59.00000
   C -0.626861937E+01 -0.176582640E+00 -0.276693076E+00
   C  0.587582577E+01  0.207985797E+00  0.213122581E+00
   H -0.295258939E+02  0.188862183E+01 -0.162257062E+01
   H  0.284584784E+02 -0.243106859E+01  0.727836064E+00
     4
 # iter = 59500  time[fs]=59.50000
   C -0.635649146E+01 -0.179178134E+00 -0.280157553E+00
   C  0.595824129E+01  0.211055355E+00  0.216235068E+00
   H -0.298906460E+02  0.191243935E+01 -0.164214309E+01
   H  0.288098003E+02 -0.246172289E+01  0.736934831E+00
     4
 # iter = 60000  time[fs]=60.00000
   C -0.644444943E+01 -0.181776745E+00 -0.283625374E+00
   C  0.604074230E+01  0.214128253E+00  0.219351122E+00
   H -0.302554964E+02  0.193626436E+01 -0.166172093E+01
   H  0.291612253E+02 -0.249238736E+01  0.746036293E+00
     4
 # iter = 60500  time[fs]=60.50000
   C -0.653249094E+01 -0.184378391E+00 -0.287096446E+00
   C  0.612332648E+01  0.217204404E+00  0.222470645E+00
   H -0.306204429E+02  0.196009668E+01 -0.168130399E+01
   H  0.295127508E+02 -0.252306177E+01  0.755140384E+00
     4
 # iter = 61000  time[fs]=61.00000
   C -0.662061373E+01 -0.186982994E+00 -0.290570680E+00
   C  0.620599159E+01  0.220283726E+00  0.225593541E+00
   H -0.309854833E+02  0.198393616E+01 -0.170089217E+01
   H  0.298643744E+02 -0.255374589E+01  0.764247042E+00
     4
 # iter = 61500  time[fs]=61.50000
   C -0.670881565E+01 -0.189590480E+00 -0.294047989E+00
   C  0.628873546E+01  0.223366138E+00  0.228719720E+00
   H -0.313506153E+02  0.200778264E+01 -0.172048534E+01
   H  0.302160940E+02 -0.258443950E+01  0.773356209E+00
     4
 # iter = 62000  time[fs]=62.00000
   C -0.679709460E+01 -0.192200776E+00 -0.297528290E+00
   C  0.637155602E+01  0.226451565E+00  0.231849093E+00
   H -0.317158369E+02  0.203163595E+01 -0.174008339E+01
   H  0.305679073E+02 -0.261514240E+01  0.782467824E+00
     4
 # iter = 62500  time[fs]=62.50000
   C -0.688544860E+01 -0.194813814E+00 -0.301011504E+00
   C  0.645445129E+01  0.229539932E+00  0.234981576E+00
   H -0.320811461E+02  0.205549596E+01 -0.175968621E+01
   H  0.309198122E+02 -0.264585438E+01  0.791581834E+00
     4
 # iter = 63000  time[fs]=63.00000
   C -0.697387571E+01 -0.197429525E+00 -0.304497553E+00
   C  0.653741934E+01  0.232631168E+00  0.238117088E+00
   H -0.324465409E+02  0.207936251E+01 -0.177929369E+01
   H  0.312718067E+02 -0.267657524E+01  0.800698184E+00
     4
 # iter = 63500  time[fs]=63.50000
   C -0.706237408E+01 -0.200047846E+00 -0.307986364E+00
   C  0.662045832E+01  0.235725205E+00  0.241255552E+00
   H -0.328120194E+02  0.210323547E+01 -0.179890574E+01
   H  0.316238888E+02 -0.270730480E+01  0.809816821E+00
     4
 # iter = 64000  time[fs]=64.00000
   C -0.715094192E+01 -0.202668715E+00 -0.311477866E+00
   C  0.670356647E+01  0.238821975E+00  0.244396892E+00
   H -0.331775797E+02  0.212711470E+01 -0.181852224E+01
   H  0.319760566E+02 -0.273804287E+01  0.818937695E+00
     4
 # iter = 64500  time[fs]=64.50000
   C -0.723957751E+01 -0.205292070E+00 -0.314971990E+00
   C  0.678674205E+01  0.241921416E+00  0.247541036E+00
   H -0.335432202E+02  0.215100007E+01 -0.183814311E+01
   H  0.323283082E+02 -0.276878927E+01  0.828060757E+00
     4
 # iter = 65000  time[fs]=65.00000
   C -0.732827919E+01 -0.207917855E+00 -0.318468671E+00
   C  0.686998342E+01  0.245023464E+00  0.250687915E+00
   H -0.339089391E+02  0.217489144E+01 -0.185776825E+01
   H  0.326806418E+02 -0.279954383E+01  0.837185959E+00
     4
 # iter = 65500  time[fs]=65.50000
   C -0.741704536E+01 -0.210546012E+00 -0.321967846E+00
   C  0.695328899E+01  0.248128060E+00  0.253837461E+00
   H -0.342747348E+02  0.219878871E+01 -0.187739757E+01
   H  0.330330558E+02 -0.283030639E+01  0.846313257E+00
     4
 # iter = 66000  time[fs]=66.00000
   C -0.750587448E+01 -0.213176488E+00 -0.325469453E+00
   C  0.703665721E+01  0.251235148E+00  0.256989609E+00
   H -0.346406056E+02  0.222269175E+01 -0.189703099E+01
   H  0.333855483E+02 -0.286107677E+01  0.855442606E+00
     4
 # iter = 66500  time[fs]=66.50000
   C -0.759476505E+01 -0.215809231E+00 -0.328973433E+00
   C  0.712008660E+01  0.254344669E+00  0.260144297E+00
   H -0.350065500E+02  0.224660043E+01 -0.191666841E+01
   H  0.337381179E+02 -0.289185483E+01  0.864573962E+00
     4
 # iter = 67000  time[fs]=67.00000
   C -0.768371564E+01 -0.218444189E+00 -0.332479730E+00
   C  0.720357573E+01  0.257456572E+00  0.263301465E+00
   H -0.353725665E+02  0.227051466E+01 -0.193630976E+01
   H  0.340907629E+02 -0.292264040E+01  0.873707284E+00
     4
 # iter = 67500  time[fs]=67.50000
   C -0.777272485E+01 -0.221081314E+00 -0.335988287E+00
   C  0.728712321E+01  0.260570803E+00  0.266461054E+00
   H -0.357386537E+02  0.229443432E+01 -0.195595496E+01
   H  0.344434818E+02 -0.295343335E+01  0.882842532E+00
     4
 # iter = 68000  time[fs]=68.00000
   C -0.786179134E+01 -0.223720558E+00 -0.339499053E+00
   C  0.737072771E+01  0.263687312E+00  0.269623009E+00
   H -0.361048100E+02  0.231835930E+01 -0.197560393E+01
   H  0.347962731E+02 -0.298423353E+01  0.891979667E+00
     4
 # iter = 68500  time[fs]=68.50000
   C -0.795091381E+01 -0.226361876E+00 -0.343011977E+00
   C  0.745438792E+01  0.266806050E+00  0.272787274E+00
   H -0.364710341E+02  0.234228951E+01 -0.199525659E+01
   H  0.351491353E+02 -0.301504079E+01  0.901118650E+00
     4
 # iter = 69000  time[fs]=69.00000
   C -0.804009101E+01 -0.229005222E+00 -0.346527007E+00
   C  0.753810261E+01  0.269926969E+00  0.275953798E+00
   H -0.368373248E+02  0.236622484E+01 -0.201491288E+01
   H  0.355020671E+02 -0.304585501E+01  0.910259445E+00
     4
 # iter = 69500  time[fs]=69.50000
   C -0.812932172E+01 -0.231650555E+00 -0.350044098E+00
   C  0.762187055E+01  0.273050024E+00  0.279122530E+00
   H -0.372036806E+02  0.239016519E+01 -0.203457272E+01
   H  0.358550671E+02 -0.307667604E+01  0.919402016E+00
     4
 # iter = 70000  time[fs]=70.00000
   C -0.821860476E+01 -0.234297832E+00 -0.353563202E+00
   C  0.770569058E+01  0.276175170E+00  0.282293421E+00
   H -0.375701004E+02  0.241411047E+01 -0.205423604E+01
   H  0.362081340E+02 -0.310750377E+01  0.928546329E+00
     4
 # iter = 70500  time[fs]=70.50000
   C -0.830793899E+01 -0.236947013E+00 -0.357084275E+00
   C  0.778956157E+01  0.279302364E+00  0.285466422E+00
   H -0.379365829E+02  0.243806059E+01 -0.207390278E+01
   H  0.365612665E+02 -0.313833807E+01  0.937692349E+00
     4
 # iter = 71000  time[fs]=71.00000
   C -0.839732332E+01 -0.239598058E+00 -0.360607273E+00
   C  0.787348241E+01  0.282431564E+00  0.288641489E+00
   H -0.383031269E+02  0.246201546E+01 -0.209357287E+01
   H  0.369144634E+02 -0.316917881E+01  0.946840044E+00
     4
 # iter = 71500  time[fs]=71.50000
   C -0.848675668E+01 -0.242250930E+00 -0.364132154E+00
   C  0.795745205E+01  0.285562729E+00  0.291818576E+00
   H -0.386697313E+02  0.248597500E+01 -0.211324625E+01
   H  0.372677234E+02 -0.320002588E+01  0.955989382E+00
     4
 # iter = 72000  time[fs]=72.00000
   C -0.857623802E+01 -0.244905592E+00 -0.367658878E+00
   C  0.804146945E+01  0.288695821E+00  0.294997641E+00
   H -0.390363950E+02  0.250993911E+01 -0.213292286E+01
   H  0.376210454E+02 -0.323087917E+01  0.965140332E+00
     4
 # iter = 72500  time[fs]=72.50000
   C -0.866576635E+01 -0.247562008E+00 -0.371187406E+00
   C  0.812553361E+01  0.291830801E+00  0.298178641E+00
   H -0.394031168E+02  0.253390772E+01 -0.215260264E+01
   H  0.379744282E+02 -0.326173856E+01  0.974292864E+00
     4
 # iter = 73000  time[fs]=73.00000
   C -0.875534070E+01 -0.250220144E+00 -0.374717699E+00
   C  0.820964357E+01  0.294967631E+00  0.301361537E+00
   H -0.397698956E+02  0.255788074E+01 -0.217228552E+01
   H  0.383278708E+02 -0.329260394E+01  0.983446949E+00
     4
 # iter = 73500  time[fs]=73.50000
   C -0.884496012E+01 -0.252879964E+00 -0.378249721E+00
   C  0.829379838E+01  0.298106276E+00  0.304546289E+00
   H -0.401367306E+02  0.258185811E+01 -0.219197146E+01
   H  0.386813720E+02 -0.332347521E+01  0.992602558E+00
     4
 # iter = 74000  time[fs]=74.00000
   C -0.893462369E+01 -0.255541438E+00 -0.381783435E+00
   C  0.837799715E+01  0.301246701E+00  0.307732858E+00
   H -0.405036206E+02  0.260583973E+01 -0.221166041E+01
   H  0.390349308E+02 -0.335435227E+01  0.100175966E+01
     4
 # iter = 74500  time[fs]=74.50000
   C -0.902433054E+01 -0.258204533E+00 -0.385318807E+00
   C  0.846223897E+01  0.304388872E+00  0.310921208E+00
   H -0.408705646E+02  0.262982555E+01 -0.223135229E+01
   H  0.393885461E+02 -0.338523501E+01  0.101091824E+01
     4
 # iter = 75000  time[fs]=75.00000
   C -0.911407979E+01 -0.260869218E+00 -0.388855803E+00
   C  0.854652300E+01  0.307532755E+00  0.314111304E+00
   H -0.412375618E+02  0.265381548E+01 -0.225104708E+01
   H  0.397422170E+02 -0.341612334E+01  0.102007826E+01
     4
 # iter = 75500  time[fs]=75.50000
   C -0.920387062E+01 -0.263535463E+00 -0.392394391E+00
   C  0.863084840E+01  0.310678319E+00  0.317303109E+00
   H -0.416046112E+02  0.267780946E+01 -0.227074470E+01
   H  0.400959425E+02 -0.344701716E+01  0.102923970E+01
     4
 # iter = 76000  time[fs]=76.00000
   C -0.929370220E+01 -0.266203238E+00 -0.395934538E+00
   C  0.871521436E+01  0.313825532E+00  0.320496592E+00
   H -0.419717119E+02  0.270180742E+01 -0.229044512E+01
   H  0.404497216E+02 -0.347791638E+01  0.103840253E+01
     4
 # iter = 76500  time[fs]=76.50000
   C -0.938357376E+01 -0.268872517E+00 -0.399476215E+00
   C  0.879962011E+01  0.316974364E+00  0.323691718E+00
   H -0.423388630E+02  0.272580928E+01 -0.231014829E+01
   H  0.408035535E+02 -0.350882091E+01  0.104756673E+01
     4
 # iter = 77000  time[fs]=77.00000
   C -0.947348452E+01 -0.271543270E+00 -0.403019390E+00
   C  0.888406486E+01  0.320124785E+00  0.326888456E+00
   H -0.427060636E+02  0.274981500E+01 -0.232985416E+01
   H  0.411574371E+02 -0.353973067E+01  0.105673228E+01
     4
 # iter = 77500  time[fs]=77.50000
   C -0.956343373E+01 -0.274215471E+00 -0.406564036E+00
   C  0.896854788E+01  0.323276767E+00  0.330086775E+00
   H -0.430733129E+02  0.277382450E+01 -0.234956268E+01
   H  0.415113718E+02 -0.357064555E+01  0.106589914E+01
     4
 # iter = 78000  time[fs]=78.00000
   C -0.965342068E+01 -0.276889094E+00 -0.410110123E+00
   C  0.905306846E+01  0.326430282E+00  0.333286644E+00
   H -0.434406101E+02  0.279783772E+01 -0.236927381E+01
   H  0.418653565E+02 -0.360156549E+01  0.107506731E+01
     4
 # iter = 78500  time[fs]=78.50000
   C -0.974344466E+01 -0.279564113E+00 -0.413657624E+00
   C  0.913762588E+01  0.329585302E+00  0.336488036E+00
   H -0.438079545E+02  0.282185460E+01 -0.238898751E+01
   H  0.422193905E+02 -0.363249040E+01  0.108423676E+01
     4
 # iter = 79000  time[fs]=79.00000
   C -0.983350497E+01 -0.282240504E+00 -0.417206513E+00
   C  0.922221947E+01  0.332741801E+00  0.339690920E+00
   H -0.441753451E+02  0.284587509E+01 -0.240870373E+01
   H  0.425734729E+02 -0.366342020E+01  0.109340746E+01
     4
 # iter = 79500  time[fs]=79.50000
   C -0.992360097E+01 -0.284918242E+00 -0.420756764E+00
   C  0.930684856E+01  0.335899752E+00  0.342895270E+00
   H -0.445427813E+02  0.286989912E+01 -0.242842244E+01
   H  0.429276030E+02 -0.369435481E+01  0.110257940E+01
     4
 # iter = 80000  time[fs]=80.00000
   C -0.100137320E+02 -0.287597304E+00 -0.424308351E+00
   C  0.939151250E+01  0.339059131E+00  0.346101059E+00
   H -0.449102624E+02  0.289392664E+01 -0.244814358E+01
   H  0.432817799E+02 -0.372529415E+01  0.111175256E+01
