     4
 # iter = 25000  time[fs]=25.00000
   C -0.103123146E+01  0.149168975E-01  0.210025056E-02
   C  0.980759184E+00 -0.433354136E-01 -0.212333062E-01
   H -0.536225703E+01  0.301098277E+00  0.277267768E+00
   H  0.543717305E+01 -0.320328256E+00 -0.401586731E+00
     4
 # iter = 25500  time[fs]=25.50000
   C -0.107999789E+01  0.148677643E-01  0.222077334E-02
   C  0.102328254E+01 -0.426641717E-01 -0.194902089E-01
   H -0.569957793E+01  0.321386372E+00  0.296562808E+00
   H  0.575631809E+01 -0.336596243E+00 -0.423887282E+00
     4
 # iter = 26000  time[fs]=26.00000
   C -0.113085075E+01  0.148720316E-01  0.235893329E-02
   C  0.106790118E+01 -0.420475987E-01 -0.177615700E-01
   H -0.603953171E+01  0.341837513E+00  0.316012642E+00
   H  0.607798985E+01 -0.353012055E+00 -0.446380772E+00
     4
 # iter = 26500  time[fs]=26.50000
   C -0.118361616E+01  0.149224319E-01  0.251108303E-02
   C  0.111443906E+01 -0.414782630E-01 -0.160440169E-01
   H -0.638182587E+01  0.362433773E+00  0.335600231E+00
   H  0.640192166E+01 -0.369559732E+00 -0.469046864E+00
     4
 # iter = 27000  time[fs]=27.00000
   C -0.123813484E+01  0.150127455E-01  0.267420659E-02
   C  0.116273525E+01 -0.409498099E-01 -0.143347763E-01
   H -0.672621307E+01  0.383159977E+00  0.355311164E+00
   H  0.672788604E+01 -0.386225724E+00 -0.491868237E+00
     4
 # iter = 27500  time[fs]=27.50000
   C -0.129426160E+01  0.151376588E-01  0.284582212E-02
   C  0.121264328E+01 -0.404568130E-01 -0.126315814E-01
   H -0.707248245E+01  0.404003179E+00  0.375133154E+00
   H  0.705568743E+01 -0.402998436E+00 -0.514830021E+00
     4
 # iter = 28000  time[fs]=28.00000
   C -0.135186457E+01  0.152926345E-01  0.302389486E-02
   C  0.126403029E+01 -0.399946402E-01 -0.109325886E-01
   H -0.742045288E+01  0.424952249E+00  0.395055642E+00
   H  0.738515667E+01 -0.419867875E+00 -0.537919366E+00
     4
 # iter = 28500  time[fs]=28.50000
   C -0.141082422E+01  0.154737966E-01  0.320676157E-02
   C  0.131677596E+01 -0.395593353E-01 -0.923630517E-02
   H -0.776996774E+01  0.445997552E+00  0.415069494E+00
   H  0.771614646E+01 -0.436825369E+00 -0.561125088E+00
     4
 # iter = 29000  time[fs]=29.00000
   C -0.147103235E+01  0.156778309E-01  0.339306607E-02
   C  0.137077150E+01 -0.391475156E-01 -0.754152745E-02
   H -0.812089069E+01  0.467130697E+00  0.435166751E+00
   H  0.804852784E+01 -0.453863349E+00 -0.584437402E+00
     4
 # iter = 29500  time[fs]=29.50000
   C -0.153239112E+01  0.159018988E-01  0.358170507E-02
   C  0.142591857E+01 -0.387562833E-01 -0.584728905E-02
   H -0.847310240E+01  0.488344330E+00  0.455340446E+00
   H  0.838218728E+01 -0.470975171E+00 -0.607847695E+00
     4
 # iter = 30000  time[fs]=30.00000
   C -0.159481200E+01  0.161435639E-01  0.377178299E-02
   C  0.148212825E+01 -0.383831512E-01 -0.415281770E-02
   H -0.882649786E+01  0.509631976E+00  0.475584439E+00
   H  0.871702439E+01 -0.488154971E+00 -0.631348350E+00
     4
 # iter = 30500  time[fs]=30.50000
   C -0.165821491E+01  0.164007311E-01  0.396257470E-02
   C  0.153932016E+01 -0.380259795E-01 -0.245749960E-02
   H -0.918098419E+01  0.530987904E+00  0.495893299E+00
   H  0.905294994E+01 -0.505397552E+00 -0.654932596E+00
     4
 # iter = 31000  time[fs]=31.00000
   C -0.172252730E+01  0.166715933E-01  0.415349470E-02
   C  0.159742152E+01 -0.376829223E-01 -0.760850085E-03
   H -0.953647887E+01  0.552407015E+00  0.516262192E+00
   H  0.938988433E+01 -0.522698284E+00 -0.678594393E+00
     4
 # iter = 31500  time[fs]=31.50000
   C -0.178768344E+01  0.169545886E-01  0.434407191E-02
   C  0.165636639E+01 -0.373523832E-01  0.937510326E-03
   H -0.989290827E+01  0.573884759E+00  0.536686805E+00
   H  0.972775625E+01 -0.540053026E+00 -0.702328328E+00
     4
 # iter = 32000  time[fs]=32.00000
   C -0.185362367E+01  0.172483626E-01  0.453392898E-02
   C  0.171609496E+01 -0.370329778E-01  0.263787558E-02
   H -0.102502064E+02  0.595417053E+00  0.557163269E+00
   H  0.100665016E+02 -0.557458061E+00 -0.726129529E+00
     4
 # iter = 32500  time[fs]=32.50000
   C -0.192029376E+01  0.175517382E-01  0.472276533E-02
   C  0.177655289E+01 -0.367235018E-01  0.434047012E-02
   H -0.106083141E+02  0.617000225E+00  0.577688102E+00
   H  0.104060625E+02 -0.574910040E+00 -0.749993602E+00
     4
 # iter = 33000  time[fs]=33.00000
   C -0.198764437E+01  0.178636893E-01  0.491034327E-02
   C  0.183769074E+01 -0.364229049E-01  0.604546190E-02
   H -0.109671777E+02  0.638630959E+00  0.598258160E+00
   H  0.107463865E+02 -0.592405936E+00 -0.773916566E+00
     4
 # iter = 33500  time[fs]=33.50000
   C -0.205563054E+01  0.181833187E-01  0.509647669E-02
   C  0.189946346E+01 -0.361302686E-01  0.775297313E-02
   H -0.113267488E+02  0.660306249E+00  0.618870592E+00
   H  0.110874262E+02 -0.609943001E+00 -0.797894804E+00
     4
 # iter = 34000  time[fs]=34.00000
   C -0.212421121E+01  0.185098401E-01  0.528102173E-02
   C  0.196182995E+01 -0.358447871E-01  0.946308887E-02
   H -0.116869835E+02  0.682023364E+00  0.639522810E+00
   H  0.114291383E+02 -0.627518738E+00 -0.821925020E+00
     4
 # iter = 34500  time[fs]=34.50000
   C -0.219334884E+01  0.188425623E-01  0.546386912E-02
   C  0.202475263E+01 -0.355657518E-01  0.111758642E-01
   H -0.120478416E+02  0.703779817E+00  0.660212451E+00
   H  0.117714832E+02 -0.645130868E+00 -0.846004205E+00
     4
 # iter = 35000  time[fs]=35.00000
   C -0.226300906E+01  0.191808764E-01  0.564493799E-02
   C  0.208819709E+01 -0.352925379E-01  0.128913301E-01
   H -0.124092867E+02  0.725573331E+00  0.680937359E+00
   H  0.121144247E+02 -0.662777305E+00 -0.870129599E+00
     4
 # iter = 35500  time[fs]=35.50000
   C -0.233316032E+01  0.195242441E-01  0.582417066E-02
   C  0.215213176E+01 -0.350245928E-01  0.146094978E-01
   H -0.127712852E+02  0.747401824E+00  0.701695557E+00
   H  0.124579296E+02 -0.680456139E+00 -0.894298671E+00
     4
 # iter = 36000  time[fs]=36.00000
   C -0.240377367E+01  0.198721887E-01  0.600152845E-02
   C  0.221652766E+01 -0.347614267E-01  0.163303633E-01
   H -0.131338064E+02  0.769263381E+00  0.722485228E+00
   H  0.128019674E+02 -0.698165611E+00 -0.918509091E+00
     4
 # iter = 36500  time[fs]=36.50000
   C -0.247482242E+01  0.202242868E-01  0.617698818E-02
   C  0.228135812E+01 -0.345026043E-01  0.180539099E-01
   H -0.134968221E+02  0.791156241E+00  0.743304699E+00
   H  0.131465099E+02 -0.715904104E+00 -0.942758707E+00
     4
 # iter = 37000  time[fs]=37.00000
   C -0.254628201E+01  0.205801617E-01  0.635053931E-02
   C  0.234659855E+01 -0.342477379E-01  0.197801111E-01
   H -0.138603062E+02  0.813078776E+00  0.764152428E+00
   H  0.134915312E+02 -0.733670122E+00 -0.967045534E+00
     4
 # iter = 37500  time[fs]=37.50000
   C -0.261812975E+01  0.209394769E-01  0.652218153E-02
   C  0.241222626E+01 -0.339964811E-01  0.215089328E-01
   H -0.142242346E+02  0.835029486E+00  0.785026987E+00
   H  0.138370072E+02 -0.751462283E+00 -0.991367730E+00
     4
 # iter = 38000  time[fs]=38.00000
   C -0.269034464E+01  0.213019320E-01  0.669192286E-02
   C  0.247822027E+01 -0.337485241E-01  0.232403347E-01
   H -0.145885850E+02  0.857006977E+00  0.805927056E+00
   H  0.141829155E+02 -0.769279306E+00 -0.101572359E+01
     4
 # iter = 38500  time[fs]=38.50000
   C -0.276290728E+01  0.216672573E-01  0.685977799E-02
   C  0.254456118E+01 -0.335035889E-01  0.249742722E-01
   H -0.149533368E+02  0.879009958E+00  0.826851407E+00
   H  0.145292354E+02 -0.787120000E+00 -0.104011152E+01
     4
 # iter = 39000  time[fs]=39.00000
   C -0.283579965E+01  0.220352108E-01  0.702576694E-02
   C  0.261123096E+01 -0.332614256E-01  0.267106970E-01
   H -0.153184709E+02  0.901037227E+00  0.847798900E+00
   H  0.148759477E+02 -0.804983259E+00 -0.106453005E+01
     4
 # iter = 39500  time[fs]=39.50000
   C -0.290900501E+01  0.224055748E-01  0.718991399E-02
   C  0.267821291E+01 -0.330218092E-01  0.284495586E-01
   H -0.156839693E+02  0.923087667E+00  0.868768471E+00
   H  0.152230344E+02 -0.822868050E+00 -0.108897779E+01
     4
 # iter = 40000  time[fs]=40.00000
   C -0.298250781E+01  0.227781528E-01  0.735224671E-02
   C  0.274549147E+01 -0.327845365E-01  0.301908047E-01
   H -0.160498154E+02  0.945160233E+00  0.889759130E+00
   H  0.155704787E+02 -0.840773412E+00 -0.111345347E+01
     4
 # iter = 40500  time[fs]=40.50000
   C -0.305629357E+01  0.231527674E-01  0.751279524E-02
   C  0.281305218E+01 -0.325494238E-01  0.319343818E-01
   H -0.164159936E+02  0.967253951E+00  0.910769951E+00
   H  0.159182649E+02 -0.858698444E+00 -0.113795586E+01
     4
 # iter = 41000  time[fs]=41.00000
   C -0.313034878E+01  0.235292579E-01  0.767159164E-02
   C  0.288088153E+01 -0.323163047E-01  0.336802361E-01
   H -0.167824895E+02  0.989367909E+00  0.931800066E+00
   H  0.162663783E+02 -0.876642304E+00 -0.116248386E+01
     4
 # iter = 41500  time[fs]=41.50000
   C -0.320466083E+01  0.239074786E-01  0.782866941E-02
   C  0.294896694E+01 -0.320850281E-01  0.354283135E-01
   H -0.171492894E+02  0.101150125E+01  0.952848663E+00
   H  0.166148052E+02 -0.894604202E+00 -0.118703639E+01
     4
 # iter = 42000  time[fs]=42.00000
   C -0.327921793E+01  0.242872972E-01  0.798406298E-02
   C  0.301729663E+01 -0.318554566E-01  0.371785602E-01
   H -0.175163806E+02  0.103365318E+01  0.973914980E+00
   H  0.169635326E+02 -0.912583398E+00 -0.121161246E+01
     4
 # iter = 42500  time[fs]=42.50000
   C -0.335400905E+01  0.246685934E-01  0.813780746E-02
   C  0.308585957E+01 -0.316274652E-01  0.389309227E-01
   H -0.178837511E+02  0.105582294E+01  0.994998302E+00
   H  0.173125484E+02 -0.930579194E+00 -0.123621113E+01
     4
 # iter = 43000  time[fs]=43.00000
   C -0.342902384E+01  0.250512575E-01  0.828993828E-02
   C  0.315464545E+01 -0.314009396E-01  0.406853483E-01
   H -0.182513896E+02  0.107800982E+01  0.101609795E+01
   H  0.176618411E+02 -0.948590935E+00 -0.126083153E+01
     4
 # iter = 43500  time[fs]=43.50000
   C -0.350425262E+01  0.254351892E-01  0.844049094E-02
   C  0.322364458E+01 -0.311757757E-01  0.424417851E-01
   H -0.186192855E+02  0.110021315E+01  0.103721330E+01
   H  0.180114001E+02 -0.966618004E+00 -0.128547282E+01
     4
 # iter = 44000  time[fs]=44.00000
   C -0.357968627E+01  0.258202971E-01  0.858950091E-02
   C  0.329284787E+01 -0.309518779E-01  0.442001823E-01
   H -0.189874289E+02  0.112243231E+01  0.105834375E+01
   H  0.183612151E+02 -0.984659818E+00 -0.131013422E+01
     4
 # iter = 44500  time[fs]=44.50000
   C -0.365531623E+01  0.262064972E-01  0.873700335E-02
   C  0.336224677E+01 -0.307291588E-01  0.459604899E-01
   H -0.193558103E+02  0.114466670E+01  0.107948872E+01
   H  0.187112765E+02 -0.100271583E+01 -0.133481499E+01
     4
 # iter = 45000  time[fs]=45.00000
   C -0.373113444E+01  0.265937129E-01  0.888303307E-02
   C  0.343183324E+01 -0.305075382E-01  0.477226591E-01
   H -0.197244209E+02  0.116691576E+01  0.110064770E+01
   H  0.190615753E+02 -0.102078551E+01 -0.135951442E+01
     4
 # iter = 45500  time[fs]=45.50000
   C -0.380713330E+01  0.269818735E-01  0.902762441E-02
   C  0.350159969E+01 -0.302869422E-01  0.494866426E-01
   H -0.200932522E+02  0.118917896E+01  0.112182017E+01
   H  0.194121029E+02 -0.103886838E+01 -0.138423186E+01
     4
 # iter = 46000  time[fs]=46.00000
   C -0.388330567E+01  0.273709142E-01  0.917081113E-02
   C  0.357153897E+01 -0.300673030E-01  0.512523938E-01
   H -0.204622963E+02  0.121145580E+01  0.114300565E+01
   H  0.197628511E+02 -0.105696396E+01 -0.140896666E+01
     4
 # iter = 46500  time[fs]=46.50000
   C -0.395964476E+01  0.277607753E-01  0.931262638E-02
   C  0.364164435E+01 -0.298485579E-01  0.530198678E-01
   H -0.208315456E+02  0.123374580E+01  0.116420370E+01
   H  0.201138123E+02 -0.107507182E+01 -0.143371825E+01
     4
 # iter = 47000  time[fs]=47.00000
   C -0.403614421E+01  0.281514018E-01  0.945310262E-02
   C  0.371190946E+01 -0.296306494E-01  0.547890207E-01
   H -0.212009930E+02  0.125604850E+01  0.118541387E+01
   H  0.204649792E+02 -0.109319153E+01 -0.145848605E+01
     4
 # iter = 47500  time[fs]=47.50000
   C -0.411279797E+01  0.285427429E-01  0.959227164E-02
   C  0.378232825E+01 -0.294135239E-01  0.565598098E-01
   H -0.215706316E+02  0.127836349E+01  0.120663577E+01
   H  0.208163447E+02 -0.111132271E+01 -0.148326951E+01
     4
 # iter = 48000  time[fs]=48.00000
   C -0.418960032E+01  0.289347518E-01  0.973016445E-02
   C  0.385289503E+01 -0.291971322E-01  0.583321939E-01
   H -0.219404552E+02  0.130069035E+01  0.122786901E+01
   H  0.211679024E+02 -0.112946496E+01 -0.150806814E+01
     4
 # iter = 48500  time[fs]=48.50000
   C -0.426654585E+01  0.293273851E-01  0.986681136E-02
   C  0.392360440E+01 -0.289814287E-01  0.601061327E-01
   H -0.223104575E+02  0.132302869E+01  0.124911321E+01
   H  0.215196458E+02 -0.114761792E+01 -0.153288144E+01
     4
 # iter = 49000  time[fs]=49.00000
   C -0.434362941E+01  0.297206027E-01  0.100022419E-01
   C  0.399445123E+01 -0.287663710E-01  0.618815874E-01
   H -0.226806327E+02  0.134537814E+01  0.127036802E+01
   H  0.218715692E+02 -0.116578127E+01 -0.155770894E+01
     4
 # iter = 49500  time[fs]=49.50000
   C -0.442084615E+01  0.301143673E-01  0.101364848E-01
   C  0.406543066E+01 -0.285519198E-01  0.636585202E-01
   H -0.230509753E+02  0.136773836E+01  0.129163311E+01
   H  0.222236666E+02 -0.118395466E+01 -0.158255021E+01
     4
 # iter = 50000  time[fs]=50.00000
   C -0.449819142E+01  0.305086444E-01  0.102695681E-01
   C  0.413653808E+01 -0.283380386E-01  0.654368946E-01
   H -0.234214799E+02  0.139010900E+01  0.131290816E+01
   H  0.225759328E+02 -0.120213779E+01 -0.160740482E+01
     4
 # iter = 50500  time[fs]=50.50000
   C -0.457566083E+01  0.309034021E-01  0.104015191E-01
   C  0.420776909E+01 -0.281246935E-01  0.672166749E-01
   H -0.237921416E+02  0.141248975E+01  0.133419286E+01
   H  0.229283625E+02 -0.122033036E+01 -0.163227237E+01
     4
 # iter = 51000  time[fs]=51.00000
   C -0.465325019E+01  0.312986104E-01  0.105323642E-01
   C  0.427911953E+01 -0.279118529E-01  0.689978270E-01
   H -0.241629555E+02  0.143488030E+01  0.135548693E+01
   H  0.232809508E+02 -0.123853209E+01 -0.165715248E+01
     4
 # iter = 51500  time[fs]=51.50000
   C -0.473095553E+01  0.316942418E-01  0.106621293E-01
   C  0.435058542E+01 -0.276994874E-01  0.707803174E-01
   H -0.245339171E+02  0.145728037E+01  0.137679008E+01
   H  0.236336930E+02 -0.125674270E+01 -0.168204476E+01
     4
 # iter = 52000  time[fs]=52.00000
   C -0.480877304E+01  0.320902703E-01  0.107908393E-01
   C  0.442216298E+01 -0.274875696E-01  0.725641140E-01
   H -0.249050219E+02  0.147968966E+01  0.139810205E+01
   H  0.239865845E+02 -0.127496194E+01 -0.170694888E+01
     4
 # iter = 52500  time[fs]=52.50000
   C -0.488669912E+01  0.324866720E-01  0.109185185E-01
   C  0.449384861E+01 -0.272760738E-01  0.743491855E-01
   H -0.252762657E+02  0.150210791E+01  0.141942259E+01
   H  0.243396210E+02 -0.129318955E+01 -0.173186450E+01
     4
 # iter = 53000  time[fs]=53.00000
   C -0.496473031E+01  0.328834243E-01  0.110451907E-01
   C  0.456563886E+01 -0.270649761E-01  0.761355016E-01
   H -0.256476445E+02  0.152453488E+01  0.144075144E+01
   H  0.246927984E+02 -0.131142530E+01 -0.175679128E+01
     4
 # iter = 53500  time[fs]=53.50000
   C -0.504286332E+01  0.332805064E-01  0.111708786E-01
   C  0.463753045E+01 -0.268542542E-01  0.779230331E-01
   H -0.260191545E+02  0.154697030E+01  0.146208839E+01
   H  0.250461126E+02 -0.132966896E+01 -0.178172893E+01
     4
 # iter = 54000  time[fs]=54.00000
   C -0.512109500E+01  0.336778986E-01  0.112956048E-01
   C  0.470952026E+01 -0.266438872E-01  0.797117514E-01
   H -0.263907920E+02  0.156941395E+01  0.148343319E+01
   H  0.253995600E+02 -0.134792031E+01 -0.180667714E+01
     4
 # iter = 54500  time[fs]=54.50000
   C -0.519942236E+01  0.340755827E-01  0.114193907E-01
   C  0.478160528E+01 -0.264338553E-01  0.815016292E-01
   H -0.267625535E+02  0.159186561E+01  0.150478565E+01
   H  0.257531368E+02 -0.136617914E+01 -0.183163562E+01
     4
 # iter = 55000  time[fs]=55.00000
   C -0.527784252E+01  0.344735416E-01  0.115422573E-01
   C  0.485378265E+01 -0.262241403E-01  0.832926396E-01
   H -0.271344355E+02  0.161432505E+01  0.152614555E+01
   H  0.261068396E+02 -0.138444526E+01 -0.185660412E+01
     4
 # iter = 55500  time[fs]=55.50000
   C -0.535635273E+01  0.348717591E-01  0.116642251E-01
   C  0.492604963E+01 -0.260147250E-01  0.850847570E-01
   H -0.275064348E+02  0.163679207E+01  0.154751269E+01
   H  0.264606649E+02 -0.140271846E+01 -0.188158235E+01
     4
 # iter = 56000  time[fs]=56.00000
   C -0.543495036E+01  0.352702203E-01  0.117853139E-01
   C  0.499840360E+01 -0.258055931E-01  0.868779563E-01
   H -0.278785483E+02  0.165926648E+01  0.156888689E+01
   H  0.268146095E+02 -0.142099857E+01 -0.190657008E+01
     4
 # iter = 56500  time[fs]=56.50000
   C -0.551363288E+01  0.356689110E-01  0.119055429E-01
   C  0.507084205E+01 -0.255967295E-01  0.886722131E-01
   H -0.282507730E+02  0.168174807E+01  0.159026796E+01
   H  0.271686705E+02 -0.143928540E+01 -0.193156705E+01
     4
 # iter = 57000  time[fs]=57.00000
   C -0.559239788E+01  0.360678181E-01  0.120249308E-01
   C  0.514336256E+01 -0.253881199E-01  0.904675040E-01
   H -0.286231060E+02  0.170423666E+01  0.161165573E+01
   H  0.275228446E+02 -0.145757878E+01 -0.195657303E+01
     4
 # iter = 57500  time[fs]=57.50000
   C -0.567124304E+01  0.364669291E-01  0.121434956E-01
   C  0.521596282E+01 -0.251797508E-01  0.922638061E-01
   H -0.289955445E+02  0.172673208E+01  0.163305002E+01
   H  0.278771292E+02 -0.147587855E+01 -0.198158780E+01
     4
 # iter = 58000  time[fs]=58.00000
   C -0.575016614E+01  0.368662323E-01  0.122612551E-01
   C  0.528864063E+01 -0.249716098E-01  0.940610974E-01
   H -0.293680859E+02  0.174923416E+01  0.165445068E+01
   H  0.282315214E+02 -0.149418454E+01 -0.200661114E+01
     4
 # iter = 58500  time[fs]=58.50000
   C -0.582916505E+01  0.372657169E-01  0.123782262E-01
   C  0.536139385E+01 -0.247636847E-01  0.958593563E-01
   H -0.297407275E+02  0.177174273E+01  0.167585755E+01
   H  0.285860185E+02 -0.151249661E+01 -0.203164284E+01
     4
 # iter = 59000  time[fs]=59.00000
   C -0.590823770E+01  0.376653724E-01  0.124944257E-01
   C  0.543422045E+01 -0.245559645E-01  0.976585622E-01
   H -0.301134670E+02  0.179425763E+01  0.169727048E+01
   H  0.289406180E+02 -0.153081461E+01 -0.205668270E+01
     4
 # iter = 59500  time[fs]=59.50000
   C -0.598738215E+01  0.380651891E-01  0.126098696E-01
   C  0.550711845E+01 -0.243484386E-01  0.994586947E-01
   H -0.304863019E+02  0.181677872E+01  0.171868932E+01
   H  0.292953174E+02 -0.154913840E+01 -0.208173052E+01
     4
 # iter = 60000  time[fs]=60.00000
   C -0.606659648E+01  0.384651579E-01  0.127245735E-01
   C  0.558008597E+01 -0.241410969E-01  0.101259734E+00
   H -0.308592299E+02  0.183930583E+01  0.174011392E+01
   H  0.296501144E+02 -0.156746783E+01 -0.210678612E+01
     4
 # iter = 60500  time[fs]=60.50000
   C -0.614587887E+01  0.388652703E-01  0.128385528E-01
   C  0.565312120E+01 -0.239339302E-01  0.103061662E+00
   H -0.312322488E+02  0.186183884E+01  0.176154417E+01
   H  0.300050066E+02 -0.158580278E+01 -0.213184932E+01
     4
 # iter = 61000  time[fs]=61.00000
   C -0.622522758E+01  0.392655179E-01  0.129518223E-01
   C  0.572622239E+01 -0.237269294E-01  0.104864459E+00
   H -0.316053565E+02  0.188437761E+01  0.178297992E+01
   H  0.303599918E+02 -0.160414311E+01 -0.215691994E+01
     4
 # iter = 61500  time[fs]=61.50000
   C -0.630464092E+01  0.396658933E-01  0.130643962E-01
   C  0.579938786E+01 -0.235200861E-01  0.106668109E+00
   H -0.319785509E+02  0.190692200E+01  0.180442104E+01
   H  0.307150678E+02 -0.162248871E+01 -0.218199781E+01
     4
 # iter = 62000  time[fs]=62.00000
   C -0.638411726E+01  0.400663891E-01  0.131762886E-01
   C  0.587261599E+01 -0.233133925E-01  0.108472592E+00
   H -0.323518299E+02  0.192947188E+01  0.182586743E+01
   H  0.310702327E+02 -0.164083945E+01 -0.220708278E+01
     4
 # iter = 62500  time[fs]=62.50000
   C -0.646365503E+01  0.404669985E-01  0.132875130E-01
   C  0.594590522E+01 -0.231068410E-01  0.110277893E+00
   H -0.327251918E+02  0.195202713E+01  0.184731895E+01
   H  0.314254843E+02 -0.165919522E+01 -0.223217467E+01
     4
 # iter = 63000  time[fs]=63.00000
   C -0.654325273E+01  0.408677150E-01  0.133980827E-01
   C  0.601925405E+01 -0.229004244E-01  0.112083995E+00
   H -0.330986346E+02  0.197458764E+01  0.186877550E+01
   H  0.317808208E+02 -0.167755591E+01 -0.225727335E+01
     4
 # iter = 63500  time[fs]=63.50000
   C -0.662290889E+01  0.412685327E-01  0.135080106E-01
   C  0.609266102E+01 -0.226941362E-01  0.113890882E+00
   H -0.334721564E+02  0.199715328E+01  0.189023696E+01
   H  0.321362403E+02 -0.169592141E+01 -0.228237866E+01
     4
 # iter = 64000  time[fs]=64.00000
   C -0.670262212E+01  0.416694456E-01  0.136173090E-01
   C  0.616612474E+01 -0.224879697E-01  0.115698538E+00
   H -0.338457557E+02  0.201972395E+01  0.191170323E+01
   H  0.324917409E+02 -0.171429162E+01 -0.230749046E+01
     4
 # iter = 64500  time[fs]=64.50000
   C -0.678239106E+01  0.420704484E-01  0.137259903E-01
   C  0.623964386E+01 -0.222819191E-01  0.117506949E+00
   H -0.342194306E+02  0.204229953E+01  0.193317421E+01
   H  0.328473210E+02 -0.173266643E+01 -0.233260861E+01
     4
 # iter = 65000  time[fs]=65.00000
   C -0.686221439E+01  0.424715359E-01  0.138340661E-01
   C  0.631321707E+01 -0.220759786E-01  0.119316100E+00
   H -0.345931796E+02  0.206487993E+01  0.195464978E+01
   H  0.332029787E+02 -0.175104575E+01 -0.235773298E+01
     4
 # iter = 65500  time[fs]=65.50000
   C -0.694209086E+01  0.428727032E-01  0.139415480E-01
   C  0.638684312E+01 -0.218701427E-01  0.121125977E+00
   H -0.349670011E+02  0.208746503E+01  0.197612987E+01
   H  0.335587126E+02 -0.176942948E+01 -0.238286344E+01
     4
 # iter = 66000  time[fs]=66.00000
   C -0.702201924E+01  0.432739456E-01  0.140484472E-01
   C  0.646052078E+01 -0.216644062E-01  0.122936565E+00
   H -0.353408935E+02  0.211005475E+01  0.199761437E+01
   H  0.339145209E+02 -0.178781753E+01 -0.240799986E+01
     4
 # iter = 66500  time[fs]=66.50000
   C -0.710199836E+01  0.436752589E-01  0.141547746E-01
   C  0.653424889E+01 -0.214587643E-01  0.124747851E+00
   H -0.357148554E+02  0.213264898E+01  0.201910320E+01
   H  0.342704022E+02 -0.180620981E+01 -0.243314212E+01
     4
 # iter = 67000  time[fs]=67.00000
   C -0.718202706E+01  0.440766387E-01  0.142605408E-01
   C  0.660802630E+01 -0.212532122E-01  0.126559823E+00
   H -0.360888853E+02  0.215524764E+01  0.204059626E+01
   H  0.346263549E+02 -0.182460624E+01 -0.245829010E+01
     4
 # iter = 67500  time[fs]=67.50000
   C -0.726210425E+01  0.444780813E-01  0.143657562E-01
   C  0.668185191E+01 -0.210477457E-01  0.128372467E+00
   H -0.364629819E+02  0.217785064E+01  0.206209346E+01
   H  0.349823776E+02 -0.184300673E+01 -0.248344369E+01
     4
 # iter = 68000  time[fs]=68.00000
   C -0.734222885E+01  0.448795828E-01  0.144704308E-01
   C  0.675572467E+01 -0.208423604E-01  0.130185771E+00
   H -0.368371438E+02  0.220045788E+01  0.208359474E+01
   H  0.353384689E+02 -0.186141120E+01 -0.250860278E+01
     4
 # iter = 68500  time[fs]=68.50000
   C -0.742239984E+01  0.452811398E-01  0.145745744E-01
   C  0.682964354E+01 -0.206370523E-01  0.131999723E+00
   H -0.372113696E+02  0.222306928E+01  0.210510000E+01
   H  0.356946274E+02 -0.187981958E+01 -0.253376726E+01
     4
 # iter = 69000  time[fs]=69.00000
   C -0.750261621E+01  0.456827488E-01  0.146781966E-01
   C  0.690360753E+01 -0.204318177E-01  0.133814311E+00
   H -0.375856582E+02  0.224568477E+01  0.212660917E+01
   H  0.360508519E+02 -0.189823177E+01 -0.255893702E+01
     4
 # iter = 69500  time[fs]=69.50000
   C -0.758287699E+01  0.460844066E-01  0.147813066E-01
   C  0.697761567E+01 -0.202266528E-01  0.135629524E+00
   H -0.379600082E+02  0.226830426E+01  0.214812217E+01
   H  0.364071409E+02 -0.191664773E+01 -0.258411196E+01
     4
 # iter = 70000  time[fs]=70.00000
   C -0.766318124E+01  0.464861103E-01  0.148839136E-01
   C  0.705166702E+01 -0.200215543E-01  0.137445350E+00
   H -0.383344185E+02  0.229092768E+01  0.216963893E+01
   H  0.367634933E+02 -0.193506736E+01 -0.260929199E+01
     4
 # iter = 70500  time[fs]=70.50000
   C -0.774352806E+01  0.468878570E-01  0.149860264E-01
   C  0.712576068E+01 -0.198165189E-01  0.139261779E+00
   H -0.387088880E+02  0.231355495E+01  0.219115938E+01
   H  0.371199079E+02 -0.195349060E+01 -0.263447701E+01
     4
 # iter = 71000  time[fs]=71.00000
   C -0.782391655E+01  0.472896438E-01  0.150876537E-01
   C  0.719989577E+01 -0.196115435E-01  0.141078800E+00
   H -0.390834154E+02  0.233618600E+01  0.221268344E+01
   H  0.374763834E+02 -0.197191738E+01 -0.265966691E+01
     4
 # iter = 71500  time[fs]=71.50000
   C -0.790434586E+01  0.476914683E-01  0.151888037E-01
   C  0.727407143E+01 -0.194066250E-01  0.142896402E+00
   H -0.394579997E+02  0.235882075E+01  0.223421106E+01
   H  0.378329187E+02 -0.199034764E+01 -0.268486163E+01
     4
 # iter = 72000  time[fs]=72.00000
   C -0.798481516E+01  0.480933279E-01  0.152894847E-01
   C  0.734828685E+01 -0.192017605E-01  0.144714576E+00
   H -0.398326399E+02  0.238145915E+01  0.225574215E+01
   H  0.381895128E+02 -0.200878131E+01 -0.271006106E+01
     4
 # iter = 72500  time[fs]=72.50000
   C -0.806532364E+01  0.484952203E-01  0.153897048E-01
   C  0.742254121E+01 -0.189969475E-01  0.146533312E+00
   H -0.402073348E+02  0.240410111E+01  0.227727667E+01
   H  0.385461645E+02 -0.202721832E+01 -0.273526511E+01
     4
 # iter = 73000  time[fs]=73.00000
   C -0.814587053E+01  0.488971432E-01  0.154894717E-01
   C  0.749683374E+01 -0.187921833E-01  0.148352599E+00
   H -0.405820835E+02  0.242674658E+01  0.229881455E+01
   H  0.389028728E+02 -0.204565863E+01 -0.276047372E+01
     4
 # iter = 73500  time[fs]=73.50000
   C -0.822645506E+01  0.492990945E-01  0.155887930E-01
   C  0.757116368E+01 -0.185874654E-01  0.150172430E+00
   H -0.409568850E+02  0.244939550E+01  0.232035573E+01
   H  0.392596366E+02 -0.206410216E+01 -0.278568678E+01
     4
 # iter = 74000  time[fs]=74.00000
   C -0.830707650E+01  0.497010723E-01  0.156876761E-01
   C  0.764553031E+01 -0.183827915E-01  0.151992794E+00
   H -0.413317384E+02  0.247204780E+01  0.234190014E+01
   H  0.396164550E+02 -0.208254887E+01 -0.281090424E+01
     4
 # iter = 74500  time[fs]=74.50000
   C -0.838773412E+01  0.501030745E-01  0.157861284E-01
   C  0.771993290E+01 -0.181781593E-01  0.153813683E+00
   H -0.417066427E+02  0.249470342E+01  0.236344773E+01
   H  0.399733270E+02 -0.210099869E+01 -0.283612600E+01
     4
 # iter = 75000  time[fs]=75.00000
   C -0.846842724E+01  0.505050994E-01  0.158841568E-01
   C  0.779437077E+01 -0.179735668E-01  0.155635089E+00
   H -0.420815970E+02  0.251736230E+01  0.238499846E+01
   H  0.403302516E+02 -0.211945157E+01 -0.286135199E+01
     4
 # iter = 75500  time[fs]=75.50000
   C -0.854915517E+01  0.509071452E-01  0.159817683E-01
   C  0.786884323E+01 -0.177690117E-01  0.157457001E+00
   H -0.424566004E+02  0.254002439E+01  0.240655225E+01
   H  0.406872279E+02 -0.213790745E+01 -0.288658215E+01
     4
 # iter = 76000  time[fs]=76.00000
   C -0.862991727E+01  0.513092101E-01  0.160789696E-01
   C  0.794334965E+01 -0.175644922E-01  0.159279414E+00
   H -0.428316521E+02  0.256268963E+01  0.242810906E+01
   H  0.410442550E+02 -0.215636630E+01 -0.291181639E+01
     4
 # iter = 76500  time[fs]=76.50000
   C -0.871071288E+01  0.517112928E-01  0.161757674E-01
   C  0.801788937E+01 -0.173600064E-01  0.161102317E+00
   H -0.432067512E+02  0.258535797E+01  0.244966884E+01
   H  0.414013321E+02 -0.217482804E+01 -0.293705465E+01
     4
 # iter = 77000  time[fs]=77.00000
   C -0.879154139E+01  0.521133915E-01  0.162721680E-01
   C  0.809246178E+01 -0.171555525E-01  0.162925704E+00
   H -0.435818970E+02  0.260802936E+01  0.247123153E+01
   H  0.417584583E+02 -0.219329265E+01 -0.296229687E+01
     4
 # iter = 77500  time[fs]=77.50000
   C -0.887240219E+01  0.525155050E-01  0.163681777E-01
   C  0.816706629E+01 -0.169511288E-01  0.164749567E+00
   H -0.439570886E+02  0.263070373E+01  0.249279709E+01
   H  0.421156327E+02 -0.221176006E+01 -0.298754296E+01
     4
 # iter = 78000  time[fs]=78.00000
   C -0.895329469E+01  0.529176318E-01  0.164638028E-01
   C  0.824170230E+01 -0.167467336E-01  0.166573898E+00
   H -0.443323253E+02  0.265338106E+01  0.251436547E+01
   H  0.424728546E+02 -0.223023023E+01 -0.301279289E+01
     4
 # iter = 78500  time[fs]=78.50000
   C -0.903421833E+01  0.533197706E-01  0.165590491E-01
   C  0.831636924E+01 -0.165423654E-01  0.168398689E+00
   H -0.447076062E+02  0.267606127E+01  0.253593663E+01
   H  0.428301232E+02 -0.224870311E+01 -0.303804657E+01
     4
 # iter = 79000  time[fs]=79.00000
   C -0.911517254E+01  0.537219202E-01  0.166539226E-01
   C  0.839106656E+01 -0.163380227E-01  0.170223935E+00
   H -0.450829307E+02  0.269874433E+01  0.255751051E+01
   H  0.431874376E+02 -0.226717867E+01 -0.306330394E+01
     4
 # iter = 79500  time[fs]=79.50000
   C -0.919615677E+01  0.541240794E-01  0.167484290E-01
   C  0.846579371E+01 -0.161337041E-01  0.172049626E+00
   H -0.454582981E+02  0.272143020E+01  0.257908707E+01
   H  0.435447972E+02 -0.228565686E+01 -0.308856496E+01
     4
 # iter = 80000  time[fs]=80.00000
   C -0.927717051E+01  0.545262471E-01  0.168425739E-01
   C  0.854055018E+01 -0.159294081E-01  0.173875758E+00
   H -0.458337076E+02  0.274411882E+01  0.260066628E+01
   H  0.439022013E+02 -0.230413763E+01 -0.311382955E+01
