     4
 # iter = 25000  time[fs]=25.00000
   C -0.103822980E+01 -0.205850083E-01 -0.101665456E-04
   C  0.103046573E+01  0.280920821E-01  0.521245402E-02
   H -0.531267039E+01 -0.335727076E+00 -0.429680157E+00
   H  0.539289677E+01 -0.391525226E+00  0.470603026E+00
     4
 # iter = 25500  time[fs]=25.50000
   C -0.108955135E+01 -0.192387790E-01  0.135072592E-02
   C  0.107743017E+01  0.305000190E-01  0.428667843E-02
   H -0.564874646E+01 -0.354320657E+00 -0.458391924E+00
   H  0.571551035E+01 -0.416178219E+00  0.500387660E+00
     4
 # iter = 26000  time[fs]=26.00000
   C -0.114412538E+01 -0.179553584E-01  0.271619792E-02
   C  0.112765363E+01  0.330005575E-01  0.335585941E-02
   H -0.598747755E+01 -0.373076017E+00 -0.487342734E+00
   H  0.604070029E+01 -0.441026950E+00  0.530416905E+00
     4
 # iter = 26500  time[fs]=26.50000
   C -0.120166160E+01 -0.167277850E-01  0.408885520E-02
   C  0.118084424E+01  0.355834881E-01  0.241736545E-02
   H -0.632856814E+01 -0.391974610E+00 -0.516506524E+00
   H  0.636819034E+01 -0.466050986E+00  0.560665005E+00
     4
 # iter = 27000  time[fs]=27.00000
   C -0.126189292E+01 -0.155498560E-01  0.547061903E-02
   C  0.123673367E+01  0.382398681E-01  0.146926443E-02
   H -0.667176878E+01 -0.411000908E+00 -0.545861286E+00
   H  0.669774571E+01 -0.491232977E+00  0.591110083E+00
     4
 # iter = 27500  time[fs]=27.50000
   C -0.132457580E+01 -0.144160867E-01  0.686284780E-02
   C  0.129507745E+01  0.409618797E-01  0.510196988E-03
   H -0.701686703E+01 -0.430141777E+00 -0.575388268E+00
   H  0.702916531E+01 -0.516558058E+00  0.621733399E+00
     4
 # iter = 28000  time[fs]=28.00000
   C -0.138948960E+01 -0.133216508E-01  0.826644882E-02
   C  0.135565419E+01  0.437426931E-01 -0.460738516E-03
   H -0.736368061E+01 -0.449386013E+00 -0.605071361E+00
   H  0.736227563E+01 -0.542013395E+00  0.652518776E+00
     4
 # iter = 28500  time[fs]=28.50000
   C -0.145643534E+01 -0.122623139E-01  0.968197535E-02
   C  0.141826436E+01  0.465763405E-01 -0.144408536E-02
   H -0.771205196E+01 -0.468723979E+00 -0.634896623E+00
   H  0.769692601E+01 -0.567587821E+00  0.683452151E+00
     4
 # iter = 29000  time[fs]=29.00000
   C -0.152523411E+01 -0.112343661E-01  0.111097078E-01
   C  0.148272857E+01  0.494576017E-01 -0.244011122E-02
   H -0.806184401E+01 -0.488147325E+00 -0.664851906E+00
   H  0.803298477E+01 -0.593271563E+00  0.714521224E+00
     4
 # iter = 29500  time[fs]=29.50000
   C -0.159572530E+01 -0.102345580E-01  0.125497200E-01
   C  0.154888588E+01  0.523819035E-01 -0.344887548E-02
   H -0.841293682E+01 -0.507648774E+00 -0.694926561E+00
   H  0.837033625E+01 -0.619056014E+00  0.745715174E+00
     4
 # iter = 30000  time[fs]=30.00000
   C -0.166776486E+01 -0.926004187E-02  0.140019321E-01
   C  0.161659196E+01  0.553452310E-01 -0.447028281E-02
   H -0.876522487E+01 -0.527221939E+00 -0.725111201E+00
   H  0.870887830E+01 -0.644933554E+00  0.777024427E+00
     4
 # iter = 30500  time[fs]=30.50000
   C -0.174122365E+01 -0.830831919E-02  0.154661520E-01
   C  0.168571741E+01  0.583440514E-01 -0.550412543E-02
   H -0.911861482E+01 -0.546861188E+00 -0.755397508E+00
   H  0.904852027E+01 -0.670897402E+00  0.808440477E+00
     4
 # iter = 31000  time[fs]=31.00000
   C -0.181598575E+01 -0.737719409E-02  0.169421081E-01
   C  0.175614618E+01  0.613752477E-01 -0.655011583E-02
   H -0.947302376E+01 -0.566561528E+00 -0.785778077E+00
   H  0.938918137E+01 -0.696941499E+00  0.839955726E+00
     4
 # iter = 31500  time[fs]=31.50000
   C -0.189194711E+01 -0.646473286E-02  0.184294741E-01
   C  0.182777405E+01  0.644360624E-01 -0.760791201E-02
   H -0.982837770E+01 -0.586318512E+00 -0.816246284E+00
   H  0.973078932E+01 -0.723060406E+00  0.871563366E+00
     4
 # iter = 32000  time[fs]=32.00000
   C -0.196901418E+01 -0.556922887E-02  0.199278881E-01
   C  0.190050736E+01  0.675240490E-01 -0.867713667E-02
   H -0.101846103E+02 -0.606128162E+00 -0.846796185E+00
   H  0.100732792E+02 -0.749249224E+00  0.903257265E+00
     4
 # iter = 32500  time[fs]=32.50000
   C -0.204710273E+01 -0.468917231E-02  0.214369667E-01
   C  0.197426179E+01  0.706370307E-01 -0.975739172E-02
   H -0.105416621E+02 -0.625986905E+00 -0.877422420E+00
   H  0.104165924E+02 -0.775503520E+00  0.935031887E+00
     4
 # iter = 33000  time[fs]=33.00000
   C -0.212613681E+01 -0.382322416E-02  0.229563164E-01
   C  0.204896133E+01  0.737730651E-01 -0.108482692E-01
   H -0.108994791E+02 -0.645891521E+00 -0.908120143E+00
   H  0.107606760E+02 -0.801819277E+00  0.966882212E+00
     4
 # iter = 33500  time[fs]=33.50000
   C -0.220604780E+01 -0.297019381E-02  0.244855411E-01
   C  0.212453729E+01  0.769304140E-01 -0.119493591E-01
   H -0.112580126E+02 -0.665839096E+00 -0.938884956E+00
   H  0.111054819E+02 -0.828192833E+00  0.998803678E+00
     4
 # iter = 34000  time[fs]=34.00000
   C -0.228677361E+01 -0.212901996E-02  0.260242479E-01
   C  0.220092756E+01  0.801075174E-01 -0.130602554E-01
   H -0.116172185E+02 -0.685826986E+00 -0.969712857E+00
   H  0.114509664E+02 -0.854620850E+00  0.103079212E+01
     4
 # iter = 34500  time[fs]=34.50000
   C -0.236825795E+01 -0.129875408E-02  0.275720515E-01
   C  0.227807581E+01  0.833029713E-01 -0.141805603E-01
   H -0.119770564E+02 -0.705852784E+00 -0.100060019E+01
   H  0.117970896E+02 -0.881100270E+00  0.106284374E+01
     4
 # iter = 35000  time[fs]=35.00000
   C -0.245044970E+01 -0.478546298E-03  0.291285771E-01
   C  0.235593088E+01  0.865155091E-01 -0.153098868E-01
   H -0.123374896E+02 -0.725914293E+00 -0.103154361E+01
   H  0.121438149E+02 -0.907628289E+00  0.109495505E+01
     4
 # iter = 35500  time[fs]=35.50000
   C -0.253330230E+01  0.332366787E-03  0.306934621E-01
   C  0.243444620E+01  0.897439846E-01 -0.164478609E-01
   H -0.126984842E+02 -0.746009501E+00 -0.106254006E+01
   H  0.124911089E+02 -0.934202324E+00  0.112712283E+01
     4
 # iter = 36000  time[fs]=36.00000
   C -0.261677332E+01  0.113467257E-02  0.322663578E-01
   C  0.251357934E+01  0.929873582E-01 -0.175941229E-01
   H -0.130600093E+02 -0.766136562E+00 -0.109358669E+01
   H  0.128389407E+02 -0.960819997E+00  0.115934413E+01
     4
 # iter = 36500  time[fs]=36.50000
   C -0.270082399E+01  0.192899152E-02  0.338469296E-01
   C  0.259329152E+01  0.962446848E-01 -0.187483279E-01
   H -0.134220365E+02 -0.786293777E+00 -0.112468092E+01
   H  0.131872820E+02 -0.987479108E+00  0.119161623E+01
     4
 # iter = 37000  time[fs]=37.00000
   C -0.278541884E+01  0.271588497E-02  0.354348576E-01
   C  0.267354725E+01  0.995151026E-01 -0.199101460E-01
   H -0.137845394E+02 -0.806479581E+00 -0.115582034E+01
   H  0.135361065E+02 -0.101417762E+01  0.122393660E+01
     4
 # iter = 37500  time[fs]=37.50000
   C -0.287052533E+01  0.349586198E-02  0.370298365E-01
   C  0.275431400E+01  0.102797825E+00 -0.210792625E-01
   H -0.141474939E+02 -0.826692527E+00 -0.118700272E+01
   H  0.138853899E+02 -0.104091365E+01  0.125630289E+01
     4
 # iter = 38000  time[fs]=38.00000
   C -0.295611357E+01  0.426938513E-02  0.386315755E-01
   C  0.283556189E+01  0.106092131E+00 -0.222553778E-01
   H -0.145108775E+02 -0.846931275E+00 -0.121822599E+01
   H  0.142351098E+02 -0.106768543E+01  0.128871295E+01
     4
 # iter = 38500  time[fs]=38.50000
   C -0.304215607E+01  0.503687577E-02  0.402397981E-01
   C  0.291726342E+01  0.109397359E+00 -0.234382066E-01
   H -0.148746692E+02 -0.867194582E+00 -0.124948823E+01
   H  0.145852453E+02 -0.109449133E+01  0.132116474E+01
     4
 # iter = 39000  time[fs]=39.00000
   C -0.312862748E+01  0.579871841E-02  0.418542410E-01
   C  0.299939324E+01  0.112712902E+00 -0.246274778E-01
   H -0.152388498E+02 -0.887481293E+00 -0.128078766E+01
   H  0.149357770E+02 -0.112132983E+01  0.135365637E+01
     4
 # iter = 39500  time[fs]=39.50000
   C -0.321550439E+01  0.655526468E-02  0.434746545E-01
   C  0.308192796E+01  0.116038200E+00 -0.258229337E-01
   H -0.156034012E+02 -0.907790333E+00 -0.131212260E+01
   H  0.152866867E+02 -0.114819950E+01  0.138618610E+01
     4
 # iter = 40000  time[fs]=40.00000
   C -0.330276516E+01  0.730683677E-02  0.451008011E-01
   C  0.316484596E+01  0.119372735E+00 -0.270243296E-01
   H -0.159683066E+02 -0.928120698E+00 -0.134349151E+01
   H  0.156379575E+02 -0.117509900E+01  0.141875227E+01
     4
 # iter = 40500  time[fs]=40.50000
   C -0.339038975E+01  0.805373045E-02  0.467324556E-01
   C  0.324812718E+01  0.122716031E+00 -0.282314333E-01
   H -0.163335502E+02 -0.948471452E+00 -0.137489292E+01
   H  0.159895736E+02 -0.120202710E+01  0.145135334E+01
     4
 # iter = 41000  time[fs]=41.00000
   C -0.347835956E+01  0.879621773E-02  0.483694040E-01
   C  0.333175304E+01  0.126067643E+00 -0.294440239E-01
   H -0.166991174E+02 -0.968841718E+00 -0.140632547E+01
   H  0.163415203E+02 -0.122898260E+01  0.148398786E+01
     4
 # iter = 41500  time[fs]=41.50000
   C -0.356665732E+01  0.953454917E-02  0.500114431E-01
   C  0.341570629E+01  0.129427161E+00 -0.306618922E-01
   H -0.170649945E+02 -0.989230676E+00 -0.143778787E+01
   H  0.166937836E+02 -0.125596443E+01  0.151665449E+01
     4
 # iter = 42000  time[fs]=42.00000
   C -0.365526695E+01  0.102689560E-01  0.516583800E-01
   C  0.349997085E+01  0.132794205E+00 -0.318848390E-01
   H -0.174311684E+02 -0.100963755E+01 -0.146927893E+01
   H  0.170463506E+02 -0.128297153E+01  0.154935193E+01
     4
 # iter = 42500  time[fs]=42.50000
   C -0.374417348E+01  0.109996521E-01  0.533100317E-01
   C  0.358453176E+01  0.136168417E+00 -0.331126755E-01
   H -0.177976272E+02 -0.103006163E+01 -0.150079751E+01
   H  0.173992089E+02 -0.131000293E+01  0.158207900E+01
     4
 # iter = 43000  time[fs]=43.00000
   C -0.383336295E+01  0.117268352E-01  0.549662239E-01
   C  0.366937506E+01  0.139549467E+00 -0.343452220E-01
   H -0.181643594E+02 -0.105050222E+01 -0.153234255E+01
   H  0.177523471E+02 -0.133705772E+01  0.161483456E+01
     4
 # iter = 43500  time[fs]=43.50000
   C -0.392282229E+01  0.124506888E-01  0.566267914E-01
   C  0.375448772E+01  0.142937045E+00 -0.355823079E-01
   H -0.185313542E+02 -0.107095869E+01 -0.156391304E+01
   H  0.181057543E+02 -0.136413501E+01  0.164761754E+01
     4
 # iter = 44000  time[fs]=44.00000
   C -0.401253932E+01  0.131713834E-01  0.582915769E-01
   C  0.383985754E+01  0.146330862E+00 -0.368237708E-01
   H -0.188986017E+02 -0.109143043E+01 -0.159550803E+01
   H  0.184594203E+02 -0.139123400E+01  0.168042693E+01
     4
 # iter = 44500  time[fs]=44.50000
   C -0.410250259E+01  0.138890774E-01  0.599604308E-01
   C  0.392547310E+01  0.149730648E+00 -0.380694563E-01
   H -0.192660921E+02 -0.111191687E+01 -0.162712662E+01
   H  0.188133354E+02 -0.141835390E+01  0.171326177E+01
     4
 # iter = 45000  time[fs]=45.00000
   C -0.419270140E+01  0.146039183E-01  0.616332108E-01
   C  0.401132370E+01  0.153136149E+00 -0.393192176E-01
   H -0.196338166E+02 -0.113241747E+01 -0.165876797E+01
   H  0.191674905E+02 -0.144549397E+01  0.174612117E+01
     4
 # iter = 45500  time[fs]=45.50000
   C -0.428312568E+01  0.153160438E-01  0.633097814E-01
   C  0.409739928E+01  0.156547126E+00 -0.405729147E-01
   H -0.200017665E+02 -0.115293173E+01 -0.169043128E+01
   H  0.195218769E+02 -0.147265353E+01  0.177900426E+01
     4
 # iter = 46000  time[fs]=46.00000
   C -0.437376597E+01  0.160255822E-01  0.649900137E-01
   C  0.418369040E+01  0.159963355E+00 -0.418304144E-01
   H -0.203699338E+02 -0.117345915E+01 -0.172211578E+01
   H  0.198764865E+02 -0.149983190E+01  0.181191024E+01
     4
 # iter = 46500  time[fs]=46.50000
   C -0.446461340E+01  0.167326538E-01  0.666737847E-01
   C  0.427018818E+01  0.163384626E+00 -0.430915897E-01
   H -0.207383109E+02 -0.119399928E+01 -0.175382074E+01
   H  0.202313114E+02 -0.152702846E+01  0.184483832E+01
     4
 # iter = 47000  time[fs]=47.00000
   C -0.455565957E+01  0.174373708E-01  0.683609772E-01
   C  0.435688425E+01  0.166810740E+00 -0.443563196E-01
   H -0.211068905E+02 -0.121455169E+01 -0.178554549E+01
   H  0.205863443E+02 -0.155424261E+01  0.187778779E+01
     4
 # iter = 47500  time[fs]=47.50000
   C -0.464689660E+01  0.181398386E-01  0.700514794E-01
   C  0.444377074E+01  0.170241511E+00 -0.456244883E-01
   H -0.214756657E+02 -0.123511596E+01 -0.181728937E+01
   H  0.209415781E+02 -0.158147378E+01  0.191075794E+01
     4
 # iter = 48000  time[fs]=48.00000
   C -0.473831704E+01  0.188401560E-01  0.717451846E-01
   C  0.453084019E+01  0.173676761E+00 -0.468959858E-01
   H -0.218446300E+02 -0.125569171E+01 -0.184905176E+01
   H  0.212970064E+02 -0.160872142E+01  0.194374810E+01
     4
 # iter = 48500  time[fs]=48.50000
   C -0.482991384E+01  0.195384158E-01  0.734419910E-01
   C  0.461808557E+01  0.177116324E+00 -0.481707067E-01
   H -0.222137772E+02 -0.127627855E+01 -0.188083206E+01
   H  0.216526226E+02 -0.163598503E+01  0.197675765E+01
     4
 # iter = 49000  time[fs]=49.00000
   C -0.492168036E+01  0.202347054E-01  0.751418013E-01
   C  0.470550026E+01  0.180560042E+00 -0.494485505E-01
   H -0.225831013E+02 -0.129687614E+01 -0.191262973E+01
   H  0.220084208E+02 -0.166326412E+01  0.200978599E+01
     4
 # iter = 49500  time[fs]=49.50000
   C -0.501361029E+01  0.209291067E-01  0.768445225E-01
   C  0.479307794E+01  0.184007765E+00 -0.507294208E-01
   H -0.229525967E+02 -0.131748413E+01 -0.194444421E+01
   H  0.223643952E+02 -0.169055820E+01  0.204283253E+01
     4
 # iter = 50000  time[fs]=50.00000
   C -0.510569768E+01  0.216216971E-01  0.785500657E-01
   C  0.488081268E+01  0.187459352E+00 -0.520132259E-01
   H -0.233222580E+02 -0.133810221E+01 -0.197627500E+01
   H  0.227205404E+02 -0.171786683E+01  0.207589674E+01
     4
 # iter = 50500  time[fs]=50.50000
   C -0.519793687E+01  0.223125497E-01  0.802583457E-01
   C  0.496869883E+01  0.190914668E+00 -0.532998775E-01
   H -0.236920801E+02 -0.135873006E+01 -0.200812161E+01
   H  0.230768512E+02 -0.174518958E+01  0.210897807E+01
     4
 # iter = 51000  time[fs]=51.00000
   C -0.529032249E+01  0.230017332E-01  0.819692811E-01
   C  0.505673103E+01  0.194373586E+00 -0.545892915E-01
   H -0.240620581E+02 -0.137936739E+01 -0.203998357E+01
   H  0.234333224E+02 -0.177252605E+01  0.214207605E+01
     4
 # iter = 51500  time[fs]=51.50000
   C -0.538284946E+01  0.236893127E-01  0.836827939E-01
   C  0.514490420E+01  0.197835985E+00 -0.558813872E-01
   H -0.244321874E+02 -0.140001393E+01 -0.207186043E+01
   H  0.237899494E+02 -0.179987583E+01  0.217519017E+01
     4
 # iter = 52000  time[fs]=52.00000
   C -0.547551294E+01  0.243753498E-01  0.853988094E-01
   C  0.523321350E+01  0.201301749E+00 -0.571760871E-01
   H -0.248024634E+02 -0.142066939E+01 -0.210375177E+01
   H  0.241467276E+02 -0.182723856E+01  0.220831999E+01
     4
 # iter = 52500  time[fs]=52.50000
   C -0.556830831E+01  0.250599026E-01  0.871172560E-01
   C  0.532165433E+01  0.204770769E+00 -0.584733171E-01
   H -0.251728819E+02 -0.144133354E+01 -0.213565717E+01
   H  0.245036527E+02 -0.185461387E+01  0.224146507E+01
     4
 # iter = 53000  time[fs]=53.00000
   C -0.566123121E+01  0.257430264E-01  0.888380648E-01
   C  0.541022234E+01  0.208242940E+00 -0.597730061E-01
   H -0.255434388E+02 -0.146200611E+01 -0.216757625E+01
   H  0.248607204E+02 -0.188200142E+01  0.227462498E+01
     4
 # iter = 53500  time[fs]=53.50000
   C -0.575427746E+01  0.264247734E-01  0.905611700E-01
   C  0.549891335E+01  0.211718163E+00 -0.610750857E-01
   H -0.259141302E+02 -0.148268687E+01 -0.219950862E+01
   H  0.252179267E+02 -0.190940088E+01  0.230779931E+01
     4
 # iter = 54000  time[fs]=54.00000
   C -0.584744308E+01  0.271051932E-01  0.922865083E-01
   C  0.558772340E+01  0.215196343E+00 -0.623794905E-01
   H -0.262849523E+02 -0.150337560E+01 -0.223145393E+01
   H  0.255752679E+02 -0.193681192E+01  0.234098769E+01
     4
 # iter = 54500  time[fs]=54.50000
   C -0.594072429E+01  0.277843330E-01  0.940140188E-01
   C  0.567664869E+01  0.218677389E+00 -0.636861573E-01
   H -0.266559016E+02 -0.152407208E+01 -0.226341183E+01
   H  0.259327402E+02 -0.196423425E+01  0.237418973E+01
     4
 # iter = 55000  time[fs]=55.00000
   C -0.603411746E+01  0.284622374E-01  0.957436431E-01
   C  0.576568562E+01  0.222161214E+00 -0.649950257E-01
   H -0.270269745E+02 -0.154477611E+01 -0.229538199E+01
   H  0.262903400E+02 -0.199166756E+01  0.240740509E+01
     4
 # iter = 55500  time[fs]=55.50000
   C -0.612761913E+01  0.291389491E-01  0.974753251E-01
   C  0.585483074E+01  0.225647737E+00 -0.663060374E-01
   H -0.273981678E+02 -0.156548747E+01 -0.232736408E+01
   H  0.266480641E+02 -0.201911159E+01  0.244063341E+01
     4
 # iter = 56000  time[fs]=56.00000
   C -0.622122601E+01  0.298145085E-01  0.992090108E-01
   C  0.594408075E+01  0.229136877E+00 -0.676191365E-01
   H -0.277694782E+02 -0.158620599E+01 -0.235935780E+01
   H  0.270059091E+02 -0.204656604E+01  0.247387436E+01
     4
 # iter = 56500  time[fs]=56.50000
   C -0.631493494E+01  0.304889542E-01  0.100944648E+00
   C  0.603343250E+01  0.232628559E+00 -0.689342691E-01
   H -0.281409027E+02 -0.160693148E+01 -0.239136286E+01
   H  0.273638719E+02 -0.207403067E+01  0.250712763E+01
     4
 # iter = 57000  time[fs]=57.00000
   C -0.640874290E+01  0.311623230E-01  0.102682187E+00
   C  0.612288297E+01  0.236122710E+00 -0.702513833E-01
   H -0.285124384E+02 -0.162766375E+01 -0.242337897E+01
   H  0.277219495E+02 -0.210150522E+01  0.254039291E+01
     4
 # iter = 57500  time[fs]=57.50000
   C -0.650264699E+01  0.318346500E-01  0.104421579E+00
   C  0.621242929E+01  0.239619262E+00 -0.715704292E-01
   H -0.288840825E+02 -0.164840264E+01 -0.245540585E+01
   H  0.280801389E+02 -0.212898946E+01  0.257366991E+01
     4
 # iter = 58000  time[fs]=58.00000
   C -0.659664444E+01  0.325059685E-01  0.106162779E+00
   C  0.630206867E+01  0.243118147E+00 -0.728913585E-01
   H -0.292558321E+02 -0.166914799E+01 -0.248744324E+01
   H  0.284384375E+02 -0.215648313E+01  0.260695833E+01
     4
 # iter = 58500  time[fs]=58.50000
   C -0.669073260E+01  0.331763105E-01  0.107905740E+00
   C  0.639179848E+01  0.246619301E+00 -0.742141251E-01
   H -0.296276848E+02 -0.168989962E+01 -0.251949090E+01
   H  0.287968424E+02 -0.218398603E+01  0.264025791E+01
     4
 # iter = 59000  time[fs]=59.00000
   C -0.678490892E+01  0.338457065E-01  0.109650421E+00
   C  0.648161618E+01  0.250122664E+00 -0.755386839E-01
   H -0.299996379E+02 -0.171065741E+01 -0.255154856E+01
   H  0.291553511E+02 -0.221149793E+01  0.267356838E+01
     4
 # iter = 59500  time[fs]=59.50000
   C -0.687917096E+01  0.345141856E-01  0.111396780E+00
   C  0.657151932E+01  0.253628175E+00 -0.768649920E-01
   H -0.303716890E+02 -0.173142118E+01 -0.258361600E+01
   H  0.295139612E+02 -0.223901862E+01  0.270688949E+01
     4
 # iter = 60000  time[fs]=60.00000
   C -0.697351637E+01  0.351817757E-01  0.113144775E+00
   C  0.666150556E+01  0.257135780E+00 -0.781930076E-01
   H -0.307438358E+02 -0.175219082E+01 -0.261569298E+01
   H  0.298726701E+02 -0.226654791E+01  0.274022098E+01
     4
 # iter = 60500  time[fs]=60.50000
   C -0.706794291E+01  0.358485036E-01  0.114894370E+00
   C  0.675157267E+01  0.260645423E+00 -0.795226906E-01
   H -0.311160760E+02 -0.177296616E+01 -0.264777930E+01
   H  0.302314756E+02 -0.229408559E+01  0.277356263E+01
     4
 # iter = 61000  time[fs]=61.00000
   C -0.716244840E+01  0.365143947E-01  0.116645525E+00
   C  0.684171847E+01  0.264157051E+00 -0.808540020E-01
   H -0.314884075E+02 -0.179374710E+01 -0.267987473E+01
   H  0.305903754E+02 -0.232163147E+01  0.280691420E+01
     4
 # iter = 61500  time[fs]=61.50000
   C -0.725703077E+01  0.371794735E-01  0.118398206E+00
   C  0.693194089E+01  0.267670616E+00 -0.821869044E-01
   H -0.318608280E+02 -0.181453348E+01 -0.271197906E+01
   H  0.309493674E+02 -0.234918538E+01  0.284027546E+01
     4
 # iter = 62000  time[fs]=62.00000
   C -0.735168801E+01  0.378437636E-01  0.120152377E+00
   C  0.702223795E+01  0.271186067E+00 -0.835213615E-01
   H -0.322333357E+02 -0.183532521E+01 -0.274409211E+01
   H  0.313084494E+02 -0.237674714E+01  0.287364622E+01
     4
 # iter = 62500  time[fs]=62.50000
   C -0.744641820E+01  0.385072874E-01  0.121908004E+00
   C  0.711260770E+01  0.274703359E+00 -0.848573383E-01
   H -0.326059284E+02 -0.185612214E+01 -0.277621368E+01
   H  0.316676195E+02 -0.240431657E+01  0.290702624E+01
     4
 # iter = 63000  time[fs]=63.00000
   C -0.754121949E+01  0.391700665E-01  0.123665055E+00
   C  0.720304832E+01  0.278222446E+00 -0.861948007E-01
   H -0.329786044E+02 -0.187692418E+01 -0.280834357E+01
   H  0.320268756E+02 -0.243189352E+01  0.294041535E+01
     4
 # iter = 63500  time[fs]=63.50000
   C -0.763609009E+01  0.398321217E-01  0.125423498E+00
   C  0.729355800E+01  0.281743286E+00 -0.875337161E-01
   H -0.333513617E+02 -0.189773120E+01 -0.284048162E+01
   H  0.323862159E+02 -0.245947781E+01  0.297381333E+01
     4
 # iter = 64000  time[fs]=64.00000
   C -0.773102828E+01  0.404934728E-01  0.127183303E+00
   C  0.738413505E+01  0.285265835E+00 -0.888740526E-01
   H -0.337241985E+02 -0.191854310E+01 -0.287262765E+01
   H  0.327456386E+02 -0.248706930E+01  0.300722001E+01
     4
 # iter = 64500  time[fs]=64.50000
   C -0.782603239E+01  0.411541391E-01  0.128944440E+00
   C  0.747477780E+01  0.288790055E+00 -0.902157795E-01
   H -0.340971133E+02 -0.193935978E+01 -0.290478149E+01
   H  0.331051419E+02 -0.251466783E+01  0.304063520E+01
     4
 # iter = 65000  time[fs]=65.00000
   C -0.792110084E+01  0.418141388E-01  0.130706880E+00
   C  0.756548466E+01  0.292315906E+00 -0.915588671E-01
   H -0.344701042E+02 -0.196018113E+01 -0.293694297E+01
   H  0.334647240E+02 -0.254227327E+01  0.307405873E+01
     4
 # iter = 65500  time[fs]=65.50000
   C -0.801623208E+01  0.424734897E-01  0.132470595E+00
   C  0.765625408E+01  0.295843350E+00 -0.929032864E-01
   H -0.348431697E+02 -0.198100706E+01 -0.296911194E+01
   H  0.338243833E+02 -0.256988546E+01  0.310749041E+01
     4
 # iter = 66000  time[fs]=66.00000
   C -0.811142461E+01  0.431322088E-01  0.134235560E+00
   C  0.774708459E+01  0.299372351E+00 -0.942490097E-01
   H -0.352163082E+02 -0.200183747E+01 -0.300128825E+01
   H  0.341841183E+02 -0.259750428E+01  0.314093010E+01
     4
 # iter = 66500  time[fs]=66.50000
   C -0.820667701E+01  0.437903126E-01  0.136001747E+00
   C  0.783797475E+01  0.302902874E+00 -0.955960097E-01
   H -0.355895182E+02 -0.202267226E+01 -0.303347174E+01
   H  0.345439272E+02 -0.262512958E+01  0.317437762E+01
     4
 # iter = 67000  time[fs]=67.00000
   C -0.830198788E+01  0.444478167E-01  0.137769131E+00
   C  0.792892317E+01  0.306434885E+00 -0.969442602E-01
   H -0.359627983E+02 -0.204351136E+01 -0.306566228E+01
   H  0.349038087E+02 -0.265276125E+01  0.320783282E+01
     4
 # iter = 67500  time[fs]=67.50000
   C -0.839735588E+01  0.451047364E-01  0.139537688E+00
   C  0.801992852E+01  0.309968351E+00 -0.982937357E-01
   H -0.363361469E+02 -0.206435467E+01 -0.309785971E+01
   H  0.352637612E+02 -0.268039915E+01  0.324129554E+01
     4
 # iter = 68000  time[fs]=68.00000
   C -0.849277971E+01  0.457610864E-01  0.141307394E+00
   C  0.811098950E+01  0.313503241E+00 -0.996444116E-01
   H -0.367095628E+02 -0.208520211E+01 -0.313006392E+01
   H  0.356237834E+02 -0.270804316E+01  0.327476565E+01
     4
 # iter = 68500  time[fs]=68.50000
   C -0.858825812E+01  0.464168807E-01  0.143078227E+00
   C  0.820210486E+01  0.317039523E+00 -0.100996264E+00
   H -0.370830445E+02 -0.210605360E+01 -0.316227475E+01
   H  0.359838738E+02 -0.273569317E+01  0.330824300E+01
     4
 # iter = 69000  time[fs]=69.00000
   C -0.868378989E+01  0.470721331E-01  0.144850163E+00
   C  0.829327340E+01  0.320577168E+00 -0.102349269E+00
   H -0.374565908E+02 -0.212690906E+01 -0.319449210E+01
   H  0.363440311E+02 -0.276334907E+01  0.334172744E+01
     4
 # iter = 69500  time[fs]=69.50000
   C -0.877937386E+01  0.477268567E-01  0.146623180E+00
   C  0.838449393E+01  0.324116148E+00 -0.103703405E+00
   H -0.378302005E+02 -0.214776841E+01 -0.322671582E+01
   H  0.367042540E+02 -0.279101073E+01  0.337521885E+01
     4
 # iter = 70000  time[fs]=70.00000
   C -0.887500888E+01  0.483810641E-01  0.148397259E+00
   C  0.847576533E+01  0.327656433E+00 -0.105058649E+00
   H -0.382038722E+02 -0.216863158E+01 -0.325894581E+01
   H  0.370645413E+02 -0.281867806E+01  0.340871709E+01
     4
 # iter = 70500  time[fs]=70.50000
   C -0.897069385E+01  0.490347677E-01  0.150172378E+00
   C  0.856708650E+01  0.331197998E+00 -0.106414980E+00
   H -0.385776048E+02 -0.218949849E+01 -0.329118194E+01
   H  0.374248917E+02 -0.284635095E+01  0.344222204E+01
     4
 # iter = 71000  time[fs]=71.00000
   C -0.906642772E+01  0.496879793E-01  0.151948517E+00
   C  0.865845638E+01  0.334740816E+00 -0.107772378E+00
   H -0.389513971E+02 -0.221036908E+01 -0.332342410E+01
   H  0.377853040E+02 -0.287402929E+01  0.347573357E+01
     4
 # iter = 71500  time[fs]=71.50000
   C -0.916220944E+01  0.503407103E-01  0.153725658E+00
   C  0.874987393E+01  0.338284861E+00 -0.109130822E+00
   H -0.393252481E+02 -0.223124328E+01 -0.335567217E+01
   H  0.381457770E+02 -0.290171299E+01  0.350925156E+01
     4
 # iter = 72000  time[fs]=72.00000
   C -0.925803802E+01  0.509929718E-01  0.155503780E+00
   C  0.884133817E+01  0.341830109E+00 -0.110490292E+00
   H -0.396991566E+02 -0.225212101E+01 -0.338792606E+01
   H  0.385063097E+02 -0.292940194E+01  0.354277590E+01
     4
 # iter = 72500  time[fs]=72.50000
   C -0.935391248E+01  0.516447745E-01  0.157282867E+00
   C  0.893284812E+01  0.345376535E+00 -0.111850771E+00
   H -0.400731216E+02 -0.227300222E+01 -0.342018566E+01
   H  0.388669010E+02 -0.295709607E+01  0.357630646E+01
     4
 # iter = 73000  time[fs]=73.00000
   C -0.944983189E+01  0.522961288E-01  0.159062899E+00
   C  0.902440284E+01  0.348924118E+00 -0.113212238E+00
   H -0.404471419E+02 -0.229388685E+01 -0.345245086E+01
   H  0.392275497E+02 -0.298479527E+01  0.360984315E+01
     4
 # iter = 73500  time[fs]=73.50000
   C -0.954579533E+01  0.529470447E-01  0.160843860E+00
   C  0.911600143E+01  0.352472833E+00 -0.114574677E+00
   H -0.408212167E+02 -0.231477482E+01 -0.348472156E+01
   H  0.395882548E+02 -0.301249945E+01  0.364338585E+01
     4
 # iter = 74000  time[fs]=74.00000
   C -0.964180191E+01  0.535975319E-01  0.162625734E+00
   C  0.920764299E+01  0.356022660E+00 -0.115938068E+00
   H -0.411953450E+02 -0.233566609E+01 -0.351699767E+01
   H  0.399490154E+02 -0.304020853E+01  0.367693445E+01
     4
 # iter = 74500  time[fs]=74.50000
   C -0.973785079E+01  0.542475997E-01  0.164408502E+00
   C  0.929932669E+01  0.359573577E+00 -0.117302397E+00
   H -0.415695257E+02 -0.235656059E+01 -0.354927909E+01
   H  0.403098303E+02 -0.306792242E+01  0.371048886E+01
     4
 # iter = 75000  time[fs]=75.00000
   C -0.983394111E+01  0.548972574E-01  0.166192151E+00
   C  0.939105167E+01  0.363125562E+00 -0.118667645E+00
   H -0.419437580E+02 -0.237745827E+01 -0.358156573E+01
   H  0.406706988E+02 -0.309564105E+01  0.374404897E+01
     4
 # iter = 75500  time[fs]=75.50000
   C -0.993007208E+01  0.555465136E-01  0.167976663E+00
   C  0.948281714E+01  0.366678597E+00 -0.120033797E+00
   H -0.423180409E+02 -0.239835907E+01 -0.361385750E+01
   H  0.410316199E+02 -0.312336432E+01  0.377761469E+01
     4
 # iter = 76000  time[fs]=76.00000
   C -0.100262429E+02  0.561953769E-01  0.169762024E+00
   C  0.957462232E+01  0.370232662E+00 -0.121400836E+00
   H -0.426923737E+02 -0.241926294E+01 -0.364615432E+01
   H  0.413925925E+02 -0.315109217E+01  0.381118592E+01
     4
 # iter = 76500  time[fs]=76.50000
   C -0.101224528E+02  0.568438557E-01  0.171548219E+00
   C  0.966646642E+01  0.373787737E+00 -0.122768748E+00
   H -0.430667553E+02 -0.244016982E+01 -0.367845610E+01
   H  0.417536159E+02 -0.317882451E+01  0.384476257E+01
     4
 # iter = 77000  time[fs]=77.00000
   C -0.102187011E+02  0.574919579E-01  0.173335234E+00
   C  0.975834873E+01  0.377343804E+00 -0.124137518E+00
   H -0.434411850E+02 -0.246107967E+01 -0.371076275E+01
   H  0.421146893E+02 -0.320656128E+01  0.387834455E+01
     4
 # iter = 77500  time[fs]=77.50000
   C -0.103149870E+02  0.581396913E-01  0.175123054E+00
   C  0.985026851E+01  0.380900846E+00 -0.125507130E+00
   H -0.438156620E+02 -0.248199243E+01 -0.374307420E+01
   H  0.424758116E+02 -0.323430239E+01  0.391193177E+01
     4
 # iter = 78000  time[fs]=78.00000
   C -0.104113098E+02  0.587870635E-01  0.176911667E+00
   C  0.994222506E+01  0.384458844E+00 -0.126877571E+00
   H -0.441901855E+02 -0.250290806E+01 -0.377539036E+01
   H  0.428369822E+02 -0.326204779E+01  0.394552414E+01
     4
 # iter = 78500  time[fs]=78.50000
   C -0.105076688E+02  0.594340819E-01  0.178701058E+00
   C  0.100342177E+02  0.388017782E+00 -0.128248827E+00
   H -0.445647546E+02 -0.252382652E+01 -0.380771117E+01
   H  0.431982002E+02 -0.328979739E+01  0.397912159E+01
     4
 # iter = 79000  time[fs]=79.00000
   C -0.106040634E+02  0.600807535E-01  0.180491214E+00
   C  0.101262458E+02  0.391577642E+00 -0.129620884E+00
   H -0.449393688E+02 -0.254474774E+01 -0.384003654E+01
   H  0.435594649E+02 -0.331755113E+01  0.401272403E+01
     4
 # iter = 79500  time[fs]=79.50000
   C -0.107004930E+02  0.607270852E-01  0.182282124E+00
   C  0.102183086E+02  0.395138410E+00 -0.130993728E+00
   H -0.453140271E+02 -0.256567169E+01 -0.387236639E+01
   H  0.439207755E+02 -0.334530895E+01  0.404633138E+01
     4
 # iter = 80000  time[fs]=80.00000
   C -0.107969568E+02  0.613730839E-01  0.184073775E+00
   C  0.103104057E+02  0.398700069E+00 -0.132367348E+00
   H -0.456887289E+02 -0.258659833E+01 -0.390470067E+01
   H  0.442821312E+02 -0.337307078E+01  0.407994356E+01
