     4
 # iter = 25000  time[fs]=25.00000
   C -0.971516063E+00  0.117237149E-01 -0.115919847E-01
   C  0.101041379E+01 -0.685190780E-01  0.730368013E-03
   H -0.522960966E+01 -0.505323926E+00 -0.147182775E+00
   H  0.536644377E+01  0.364421455E+00  0.410660007E+00
     4
 # iter = 25500  time[fs]=25.50000
   C -0.101717057E+01  0.137453556E-01 -0.112307337E-01
   C  0.105586744E+01 -0.723711413E-01  0.502252842E-04
   H -0.556211707E+01 -0.537998160E+00 -0.157081707E+00
   H  0.568200955E+01  0.390244500E+00  0.436427968E+00
     4
 # iter = 26000  time[fs]=26.00000
   C -0.106757953E+01  0.159804572E-01 -0.108957110E-01
   C  0.110608238E+01 -0.764321960E-01 -0.614433693E-03
   H -0.589732470E+01 -0.570949533E+00 -0.167066330E+00
   H  0.600019358E+01  0.416291050E+00  0.462410554E+00
     4
 # iter = 26500  time[fs]=26.50000
   C -0.112231594E+01  0.184136347E-01 -0.105814549E-01
   C  0.116062945E+01 -0.806875597E-01 -0.126798840E-02
   H -0.623493072E+01 -0.604147293E+00 -0.177127464E+00
   H  0.632071980E+01  0.442538783E+00  0.488585600E+00
     4
 # iter = 27000  time[fs]=27.00000
   C -0.118097709E+01  0.210297652E-01 -0.102834489E-01
   C  0.121910434E+01 -0.851226699E-01 -0.191403334E-02
   H -0.657468090E+01 -0.637565698E+00 -0.187257346E+00
   H  0.664335326E+01  0.468968685E+00  0.514934278E+00
     4
 # iter = 27500  time[fs]=27.50000
   C -0.124319000E+01  0.238143184E-01 -0.999801079E-02
   C  0.128113284E+01 -0.897234498E-01 -0.255545865E-02
   H -0.691635914E+01 -0.671182967E+00 -0.197449352E+00
   H  0.696789245E+01  0.495564414E+00  0.541440458E+00
     4
 # iter = 28000  time[fs]=28.00000
   C -0.130861381E+01  0.267535765E-01 -0.972216974E-02
   C  0.134637319E+01 -0.944765525E-01 -0.319454876E-02
   H -0.725978023E+01 -0.704980485E+00 -0.207697778E+00
   H  0.729416320E+01  0.522311808E+00  0.568090201E+00
     4
 # iter = 28500  time[fs]=28.50000
   C -0.137694006E+01  0.298347598E-01 -0.945354814E-02
   C  0.141451621E+01 -0.993695052E-01 -0.383308255E-02
   H -0.760478425E+01 -0.738942212E+00 -0.217997684E+00
   H  0.762201404E+01  0.549198507E+00  0.594871382E+00
     4
 # iter = 29000  time[fs]=29.00000
   C -0.144789143E+01  0.330460817E-01 -0.919025432E-02
   C  0.148528406E+01 -0.104390777E+00 -0.447242588E-02
   H -0.795123222E+01 -0.773054215E+00 -0.228344756E+00
   H  0.795131239E+01  0.576213650E+00  0.621773376E+00
     4
 # iter = 29500  time[fs]=29.50000
   C -0.152121979E+01  0.363767504E-01 -0.893079006E-02
   C  0.155842819E+01 -0.109529792E+00 -0.511361252E-02
   H -0.829900255E+01 -0.807304310E+00 -0.238735209E+00
   H  0.828194159E+01  0.603347640E+00  0.648786826E+00
     4
 # iter = 30000  time[fs]=30.00000
   C -0.159670375E+01  0.398169368E-01 -0.867397303E-02
   C  0.163372691E+01 -0.114776904E+00 -0.575741241E-02
   H -0.864798835E+01 -0.841681777E+00 -0.249165700E+00
   H  0.861379845E+01  0.630591948E+00  0.675903439E+00
     4
 # iter = 30500  time[fs]=30.50000
   C -0.167414608E+01  0.433577207E-01 -0.841887305E-02
   C  0.171098274E+01 -0.120123348E+00 -0.640438767E-02
   H -0.899809507E+01 -0.876177127E+00 -0.259633262E+00
   H  0.894679127E+01  0.657938959E+00  0.703115833E+00
     4
 # iter = 31000  time[fs]=31.00000
   C -0.175337119E+01  0.469910257E-01 -0.816476052E-02
   C  0.179001992E+01 -0.125561182E+00 -0.705493800E-02
   H -0.934923875E+01 -0.910781918E+00 -0.270135250E+00
   H  0.928083817E+01  0.685381842E+00  0.730417404E+00
     4
 # iter = 31500  time[fs]=31.50000
   C -0.183422270E+01  0.507095488E-01 -0.791106500E-02
   C  0.187068195E+01 -0.131083219E+00 -0.770933691E-02
   H -0.970134446E+01 -0.945488608E+00 -0.280669298E+00
   H  0.961586580E+01  0.712914441E+00  0.757802220E+00
     4
 # iter = 32000  time[fs]=32.00000
   C -0.191656125E+01  0.545066899E-01 -0.765734220E-02
   C  0.195282936E+01 -0.136682960E+00 -0.836776037E-02
   H -0.100543451E+02 -0.980290422E+00 -0.291233274E+00
   H  0.995180816E+01  0.740531194E+00  0.785264933E+00
     4
 # iter = 32500  time[fs]=32.50000
   C -0.200026248E+01  0.583764837E-01 -0.740324778E-02
   C  0.203633775E+01 -0.142354528E+00 -0.903030944E-02
   H -0.104081802E+02 -0.101518126E+01 -0.301825257E+00
   H  0.102886056E+02  0.768227050E+00  0.812800700E+00
     4
 # iter = 33000  time[fs]=33.00000
   C -0.208521528E+01  0.623135355E-01 -0.714851657E-02
   C  0.212109594E+01 -0.148092604E+00 -0.969702795E-02
   H -0.107627954E+02 -0.105015558E+01 -0.312443507E+00
   H  0.106262043E+02  0.795997412E+00  0.840405126E+00
     4
 # iter = 33500  time[fs]=33.50000
   C -0.217132014E+01  0.663129629E-01 -0.689294615E-02
   C  0.220700440E+01 -0.153892374E+00 -0.103679163E-01
   H -0.111181414E+02 -0.108520839E+01 -0.323086442E+00
   H  0.109645550E+02  0.823838079E+00  0.868074204E+00
     4
 # iter = 34000  time[fs]=34.00000
   C -0.225848781E+01  0.703703413E-01 -0.663638378E-02
   C  0.229397389E+01 -0.159749475E+00 -0.110429424E-01
   H -0.114741731E+02 -0.112033512E+01 -0.333752619E+00
   H  0.113036131E+02  0.851745206E+00  0.895804275E+00
     4
 # iter = 34500  time[fs]=34.50000
   C -0.234663809E+01  0.744816560E-01 -0.637871618E-02
   C  0.238192419E+01 -0.165659944E+00 -0.117220499E-01
   H -0.118308499E+02 -0.115553158E+01 -0.344440723E+00
   H  0.116433377E+02  0.879715260E+00  0.923591985E+00
     4
 # iter = 35000  time[fs]=35.00000
   C -0.243569871E+01  0.786432589E-01 -0.611986127E-02
   C  0.247078306E+01 -0.171620180E+00 -0.124051647E-01
   H -0.121881345E+02 -0.119079396E+01 -0.355149544E+00
   H  0.119836914E+02  0.907744987E+00  0.951434253E+00
     4
 # iter = 35500  time[fs]=35.50000
   C -0.252560445E+01  0.828518291E-01 -0.585976176E-02
   C  0.256048528E+01 -0.177626907E+00 -0.130922002E-01
   H -0.125459925E+02 -0.122611875E+01 -0.365877973E+00
   H  0.123246399E+02  0.935831387E+00  0.979328242E+00
     4
 # iter = 36000  time[fs]=36.00000
   C -0.261629632E+01  0.871043391E-01 -0.559837994E-02
   C  0.265097187E+01 -0.183677133E+00 -0.137830610E-01
   H -0.129043927E+02 -0.126150270E+01 -0.376624989E+00
   H  0.126661514E+02  0.963971680E+00  0.100727133E+01
     4
 # iter = 36500  time[fs]=36.50000
   C -0.270772081E+01  0.913980240E-01 -0.533569356E-02
   C  0.274218937E+01 -0.189768129E+00 -0.144776462E-01
   H -0.132633061E+02 -0.129694285E+01 -0.387389646E+00
   H  0.130081968E+02  0.992163294E+00  0.103526111E+01
     4
 # iter = 37000  time[fs]=37.00000
   C -0.279982934E+01  0.957303540E-01 -0.507169261E-02
   C  0.283408922E+01 -0.195897395E+00 -0.151758513E-01
   H -0.136227061E+02 -0.133243641E+01 -0.398171073E+00
   H  0.133507491E+02  0.102040384E+01  0.106329531E+01
     4
 # iter = 37500  time[fs]=37.50000
   C -0.289257766E+01  0.100099011E+00 -0.480637666E-02
   C  0.292662719E+01 -0.202062642E+00 -0.158775705E-01
   H -0.139825680E+02 -0.136798084E+01 -0.408968460E+00
   H  0.136937833E+02  0.104869108E+01  0.109137186E+01
     4
 # iter = 38000  time[fs]=38.00000
   C -0.298592540E+01  0.104501867E+00 -0.453975276E-02
   C  0.301976296E+01 -0.208261766E+00 -0.165826975E-01
   H -0.143428691E+02 -0.140357376E+01 -0.419781056E+00
   H  0.140372762E+02  0.107702295E+01  0.111948883E+01
     4
 # iter = 38500  time[fs]=38.50000
   C -0.307983567E+01  0.108936964E+00 -0.427183380E-02
   C  0.311345967E+01 -0.214492832E+00 -0.172911270E-01
   H -0.147035881E+02 -0.143921295E+01 -0.430608161E+00
   H  0.143812061E+02  0.110539751E+01  0.114764439E+01
     4
 # iter = 39000  time[fs]=39.00000
   C -0.317427467E+01  0.113402500E+00 -0.400263711E-02
   C  0.320768354E+01 -0.220754060E+00 -0.180027552E-01
   H -0.150647054E+02 -0.147489635E+01 -0.441449123E+00
   H  0.147255530E+02  0.113381295E+01  0.117583685E+01
     4
 # iter = 39500  time[fs]=39.50000
   C -0.326921139E+01  0.117896812E+00 -0.373218345E-02
   C  0.330240361E+01 -0.227043804E+00 -0.187174805E-01
   H -0.154262027E+02 -0.151062204E+01 -0.452303333E+00
   H  0.150702982E+02  0.116226758E+01  0.120406465E+01
     4
 # iter = 40000  time[fs]=40.00000
   C -0.336461732E+01  0.122418362E+00 -0.346049608E-02
   C  0.339759140E+01 -0.233360546E+00 -0.194352038E-01
   H -0.157880627E+02 -0.154638821E+01 -0.463170223E+00
   H  0.154154241E+02  0.119075978E+01  0.123232630E+01
     4
 # iter = 40500  time[fs]=40.50000
   C -0.346046618E+01  0.126965726E+00 -0.318760011E-02
   C  0.349322067E+01 -0.239702876E+00 -0.201558286E-01
   H -0.161502696E+02 -0.158219317E+01 -0.474049259E+00
   H  0.157609143E+02  0.121928808E+01  0.126062041E+01
     4
 # iter = 41000  time[fs]=41.00000
   C -0.355673377E+01  0.131537587E+00 -0.291352194E-02
   C  0.358926723E+01 -0.246069492E+00 -0.208792616E-01
   H -0.165128084E+02 -0.161803535E+01 -0.484939942E+00
   H  0.161067535E+02  0.124785106E+01  0.128894568E+01
     4
 # iter = 41500  time[fs]=41.50000
   C -0.365339766E+01  0.136132719E+00 -0.263828878E-02
   C  0.368570872E+01 -0.252459182E+00 -0.216054126E-01
   H -0.168756652E+02 -0.165391326E+01 -0.495841802E+00
   H  0.164529272E+02  0.127644740E+01  0.131730088E+01
     4
 # iter = 42000  time[fs]=42.00000
   C -0.375043715E+01  0.140749982E+00 -0.236192834E-02
   C  0.378252444E+01 -0.258870818E+00 -0.223341945E-01
   H -0.172388266E+02 -0.168982549E+01 -0.506754397E+00
   H  0.167994219E+02  0.130507584E+01  0.134568486E+01
     4
 # iter = 42500  time[fs]=42.50000
   C -0.384783299E+01  0.145388318E+00 -0.208446854E-02
   C  0.387969520E+01 -0.265303352E+00 -0.230655232E-01
   H -0.176022805E+02 -0.172577073E+01 -0.517677311E+00
   H  0.171462250E+02  0.133373520E+01  0.137409653E+01
     4
 # iter = 43000  time[fs]=43.00000
   C -0.394556736E+01  0.150046736E+00 -0.180593725E-02
   C  0.397720319E+01 -0.271755806E+00 -0.237993179E-01
   H -0.179660152E+02 -0.176174773E+01 -0.528610154E+00
   H  0.174933242E+02  0.136242438E+01  0.140253487E+01
     4
 # iter = 43500  time[fs]=43.50000
   C -0.404362363E+01  0.154724313E+00 -0.152636216E-02
   C  0.407503183E+01 -0.278227265E+00 -0.245355008E-01
   H -0.183300198E+02 -0.179775533E+01 -0.539552554E+00
   H  0.178407085E+02  0.139114230E+01  0.143099889E+01
     4
 # iter = 44000  time[fs]=44.00000
   C -0.414198635E+01  0.159420186E+00 -0.124577063E-02
   C  0.417316569E+01 -0.284716876E+00 -0.252739972E-01
   H -0.186942839E+02 -0.183379242E+01 -0.550504162E+00
   H  0.181883670E+02  0.141988797E+01  0.145948768E+01
     4
 # iter = 44500  time[fs]=44.50000
   C -0.424064111E+01  0.164133548E+00 -0.964189566E-03
   C  0.427159039E+01 -0.291223838E+00 -0.260147352E-01
   H -0.190587978E+02 -0.186985794E+01 -0.561464648E+00
   H  0.185362897E+02  0.144866045E+01  0.148800038E+01
     4
 # iter = 45000  time[fs]=45.00000
   C -0.433957443E+01  0.168863640E+00 -0.681645354E-03
   C  0.437029249E+01 -0.297747403E+00 -0.267576457E-01
   H -0.194235523E+02 -0.190595090E+01 -0.572433698E+00
   H  0.188844670E+02  0.147745882E+01  0.151653615E+01
     4
 # iter = 45500  time[fs]=45.50000
   C -0.443877372E+01  0.173609751E+00 -0.398163803E-03
   C  0.446925942E+01 -0.304286866E+00 -0.275026626E-01
   H -0.197885388E+02 -0.194207036E+01 -0.583411017E+00
   H  0.192328900E+02  0.150628224E+01  0.154509422E+01
     4
 # iter = 46000  time[fs]=46.00000
   C -0.453822720E+01  0.178371215E+00 -0.113770097E-03
   C  0.456847942E+01 -0.310841566E+00 -0.282497220E-01
   H -0.201537489E+02 -0.197821544E+01 -0.594396321E+00
   H  0.195815499E+02  0.153512989E+01  0.157367385E+01
     4
 # iter = 46500  time[fs]=46.50000
   C -0.463792380E+01  0.183147403E+00  0.171511237E-03
   C  0.466794146E+01 -0.317410882E+00 -0.289987629E-01
   H -0.205191748E+02 -0.201438526E+01 -0.605389345E+00
   H  0.199304387E+02  0.156400099E+01  0.160227431E+01
     4
 # iter = 47000  time[fs]=47.00000
   C -0.473785315E+01  0.187937724E+00  0.457656345E-03
   C  0.476763520E+01 -0.323994227E+00 -0.297497266E-01
   H -0.208848093E+02 -0.205057904E+01 -0.616389833E+00
   H  0.202795487E+02  0.159289481E+01  0.163089495E+01
     4
 # iter = 47500  time[fs]=47.50000
   C -0.483800552E+01  0.192741620E+00  0.744642056E-03
   C  0.486755091E+01 -0.330591052E+00 -0.305025568E-01
   H -0.212506451E+02 -0.208679600E+01 -0.627397545E+00
   H  0.206288725E+02  0.162181065E+01  0.165953513E+01
     4
 # iter = 48000  time[fs]=48.00000
   C -0.493837172E+01  0.197558566E+00  0.103244589E-02
   C  0.496767945E+01 -0.337200833E+00 -0.312571992E-01
   H -0.216166757E+02 -0.212303541E+01 -0.638412250E+00
   H  0.209784031E+02  0.165074783E+01  0.168819422E+01
     4
 # iter = 48500  time[fs]=48.50000
   C -0.503894312E+01  0.202388064E+00  0.132104604E-02
   C  0.506801221E+01 -0.343823080E+00 -0.320136019E-01
   H -0.219828946E+02 -0.215929658E+01 -0.649433729E+00
   H  0.213281339E+02  0.167970571E+01  0.171687166E+01
     4
 # iter = 49000  time[fs]=49.00000
   C -0.513971159E+01  0.207229647E+00  0.161042141E-02
   C  0.516854107E+01 -0.350457328E+00 -0.327717149E-01
   H -0.223492959E+02 -0.219557883E+01 -0.660461772E+00
   H  0.216780586E+02  0.170868368E+01  0.174556688E+01
     4
 # iter = 49500  time[fs]=49.50000
   C -0.524066945E+01  0.212082869E+00  0.190055153E-02
   C  0.526925837E+01 -0.357103136E+00 -0.335314903E-01
   H -0.227158736E+02 -0.223188153E+01 -0.671496181E+00
   H  0.220281711E+02  0.173768116E+01  0.177427936E+01
     4
 # iter = 50000  time[fs]=50.00000
   C -0.534180944E+01  0.216947309E+00  0.219141662E-02
   C  0.537015689E+01 -0.363760087E+00 -0.342928818E-01
   H -0.230826225E+02 -0.226820409E+01 -0.682536765E+00
   H  0.223784656E+02  0.176669759E+01  0.180300859E+01
     4
 # iter = 50500  time[fs]=50.50000
   C -0.544312469E+01  0.221822569E+00  0.248299752E-02
   C  0.547122979E+01 -0.370427787E+00 -0.350558451E-01
   H -0.234495371E+02 -0.230454590E+01 -0.693583342E+00
   H  0.227289367E+02  0.179573242E+01  0.183175409E+01
     4
 # iter = 51000  time[fs]=51.00000
   C -0.554460873E+01  0.226708270E+00  0.277527573E-02
   C  0.557247059E+01 -0.377105860E+00 -0.358203375E-01
   H -0.238166125E+02 -0.234090643E+01 -0.704635737E+00
   H  0.230795791E+02  0.182478516E+01  0.186051538E+01
     4
 # iter = 51500  time[fs]=51.50000
   C -0.564625541E+01  0.231604054E+00  0.306823332E-02
   C  0.567387317E+01 -0.383793951E+00 -0.365863180E-01
   H -0.241838439E+02 -0.237728515E+01 -0.715693784E+00
   H  0.234303878E+02  0.185385529E+01  0.188929203E+01
     4
 # iter = 52000  time[fs]=52.00000
   C -0.574805890E+01  0.236509578E+00  0.336185297E-02
   C  0.577543173E+01 -0.390491721E+00 -0.373537470E-01
   H -0.245512268E+02 -0.241368153E+01 -0.726757324E+00
   H  0.237813579E+02  0.188294237E+01  0.191808361E+01
     4
 # iter = 52500  time[fs]=52.50000
   C -0.585001367E+01  0.241424518E+00  0.365611794E-02
   C  0.587714075E+01 -0.397198848E+00 -0.381225865E-01
   H -0.249187566E+02 -0.245009510E+01 -0.737826203E+00
   H  0.241324849E+02  0.191204592E+01  0.194688971E+01
     4
 # iter = 53000  time[fs]=53.00000
   C -0.595211447E+01  0.246348565E+00  0.395101203E-02
   C  0.597899500E+01 -0.403915026E+00 -0.388928000E-01
   H -0.252864294E+02 -0.248652539E+01 -0.748900276E+00
   H  0.244837643E+02  0.194116551E+01  0.197570995E+01
     4
 # iter = 53500  time[fs]=53.50000
   C -0.605435631E+01  0.251281425E+00  0.424651959E-02
   C  0.608098951E+01 -0.410639963E+00 -0.396643520E-01
   H -0.256542409E+02 -0.252297194E+01 -0.759979401E+00
   H  0.248351920E+02  0.197030073E+01  0.200454393E+01
     4
 # iter = 54000  time[fs]=54.00000
   C -0.615673446E+01  0.256222817E+00  0.454262549E-02
   C  0.618311956E+01 -0.417373381E+00 -0.404372087E-01
   H -0.260221874E+02 -0.255943434E+01 -0.771063443E+00
   H  0.251867638E+02  0.199945118E+01  0.203339131E+01
     4
 # iter = 54500  time[fs]=54.50000
   C -0.625924439E+01  0.261172473E+00  0.483931509E-02
   C  0.628538065E+01 -0.424115014E+00 -0.412113373E-01
   H -0.263902652E+02 -0.259591216E+01 -0.782152274E+00
   H  0.255384758E+02  0.202861647E+01  0.206225174E+01
     4
 # iter = 55000  time[fs]=55.00000
   C -0.636188180E+01  0.266130138E+00  0.513657423E-02
   C  0.638776848E+01 -0.430864609E+00 -0.419867062E-01
   H -0.267584708E+02 -0.263240501E+01 -0.793245767E+00
   H  0.258903244E+02  0.205779622E+01  0.209112488E+01
     4
 # iter = 55500  time[fs]=55.50000
   C -0.646464260E+01  0.271095568E+00  0.543438923E-02
   C  0.649027899E+01 -0.437621925E+00 -0.427632848E-01
   H -0.271268007E+02 -0.266891250E+01 -0.804343805E+00
   H  0.262423060E+02  0.208699009E+01  0.212001041E+01
     4
 # iter = 56000  time[fs]=56.00000
   C -0.656752288E+01  0.276068529E+00  0.573274684E-02
   C  0.659290827E+01 -0.444386730E+00 -0.435410439E-01
   H -0.274952516E+02 -0.270543427E+01 -0.815446271E+00
   H  0.265944170E+02  0.211619772E+01  0.214890802E+01
     4
 # iter = 56500  time[fs]=56.50000
   C -0.667051891E+01  0.281048800E+00  0.603163427E-02
   C  0.669565261E+01 -0.451158803E+00 -0.443199550E-01
   H -0.278638205E+02 -0.274196996E+01 -0.826553054E+00
   H  0.269466542E+02  0.214541878E+01  0.217781742E+01
     4
 # iter = 57000  time[fs]=57.00000
   C -0.677362712E+01  0.286036166E+00  0.633103911E-02
   C  0.679850847E+01 -0.457937932E+00 -0.450999908E-01
   H -0.282325043E+02 -0.277851923E+01 -0.837664048E+00
   H  0.272990144E+02  0.217465295E+01  0.220673831E+01
     4
 # iter = 57500  time[fs]=57.50000
   C -0.687684410E+01  0.291030422E+00  0.663094937E-02
   C  0.690147244E+01 -0.464723914E+00 -0.458811247E-01
   H -0.286013001E+02 -0.281508176E+01 -0.848779151E+00
   H  0.276514945E+02  0.220389992E+01  0.223567043E+01
     4
 # iter = 58000  time[fs]=58.00000
   C -0.698016661E+01  0.296031374E+00  0.693135345E-02
   C  0.700454129E+01 -0.471516556E+00 -0.466633313E-01
   H -0.289702051E+02 -0.285165722E+01 -0.859898262E+00
   H  0.280040915E+02  0.223315940E+01  0.226461349E+01
     4
 # iter = 58500  time[fs]=58.50000
   C -0.708359153E+01  0.301038834E+00  0.723224011E-02
   C  0.710771191E+01 -0.478315671E+00 -0.474465858E-01
   H -0.293392166E+02 -0.288824532E+01 -0.871021287E+00
   H  0.283568026E+02  0.226243110E+01  0.229356726E+01
     4
 # iter = 59000  time[fs]=59.00000
   C -0.718711587E+01  0.306052621E+00  0.753359847E-02
   C  0.721098134E+01 -0.485121080E+00 -0.482308643E-01
   H -0.297083320E+02 -0.292484575E+01 -0.882148134E+00
   H  0.287096251E+02  0.229171473E+01  0.232253148E+01
     4
 # iter = 59500  time[fs]=59.50000
   C -0.729073678E+01  0.311072563E+00  0.783541800E-02
   C  0.731434673E+01 -0.491932612E+00 -0.490161438E-01
   H -0.300775488E+02 -0.296145823E+01 -0.893278712E+00
   H  0.290625562E+02  0.232101003E+01  0.235150590E+01
     4
 # iter = 60000  time[fs]=60.00000
   C -0.739445152E+01  0.316098495E+00  0.813768847E-02
   C  0.741780535E+01 -0.498750104E+00 -0.498024019E-01
   H -0.304468646E+02 -0.299808249E+01 -0.904412937E+00
   H  0.294155935E+02  0.235031675E+01  0.238049031E+01
     4
 # iter = 60500  time[fs]=60.50000
   C -0.749825746E+01  0.321130256E+00  0.844040001E-02
   C  0.752135459E+01 -0.505573395E+00 -0.505896169E-01
   H -0.308162770E+02 -0.303471825E+01 -0.915550726E+00
   H  0.297687344E+02  0.237963462E+01  0.240948447E+01
     4
 # iter = 61000  time[fs]=61.00000
   C -0.760215208E+01  0.326167693E+00  0.874354304E-02
   C  0.762499195E+01 -0.512402335E+00 -0.513777681E-01
   H -0.311857838E+02 -0.307136527E+01 -0.926691998E+00
   H  0.301219767E+02  0.240896341E+01  0.243848817E+01
     4
 # iter = 61500  time[fs]=61.50000
   C -0.770613297E+01  0.331210660E+00  0.904710825E-02
   C  0.772871500E+01 -0.519236777E+00 -0.521668350E-01
   H -0.315553829E+02 -0.310802330E+01 -0.937836676E+00
   H  0.304753178E+02  0.243830289E+01  0.246750119E+01
     4
 # iter = 62000  time[fs]=62.00000
   C -0.781019780E+01  0.336259014E+00  0.935108665E-02
   C  0.783252145E+01 -0.526076581E+00 -0.529567981E-01
   H -0.319250722E+02 -0.314469210E+01 -0.948984685E+00
   H  0.308287558E+02  0.246765281E+01  0.249652335E+01
     4
 # iter = 62500  time[fs]=62.50000
   C -0.791434433E+01  0.341312620E+00  0.965546949E-02
   C  0.793640906E+01 -0.532921611E+00 -0.537476384E-01
   H -0.322948495E+02 -0.318137142E+01 -0.960135953E+00
   H  0.311822883E+02  0.249701297E+01  0.252555443E+01
     4
 # iter = 63000  time[fs]=63.00000
   C -0.801857043E+01  0.346371346E+00  0.996024832E-02
   C  0.804037571E+01 -0.539771738E+00 -0.545393374E-01
   H -0.326647130E+02 -0.321806106E+01 -0.971290410E+00
   H  0.315359133E+02  0.252638316E+01  0.255459426E+01
     4
 # iter = 63500  time[fs]=63.50000
   C -0.812287402E+01  0.351435065E+00  0.102654149E-01
   C  0.814441933E+01 -0.546626834E+00 -0.553318773E-01
   H -0.330346607E+02 -0.325476078E+01 -0.982447987E+00
   H  0.318896288E+02  0.255576315E+01  0.258364265E+01
     4
 # iter = 64000  time[fs]=64.00000
   C -0.822725312E+01  0.356503655E+00  0.105709613E-01
   C  0.824853795E+01 -0.553486780E+00 -0.561252408E-01
   H -0.334046909E+02 -0.329147039E+01 -0.993608619E+00
   H  0.322434329E+02  0.258515276E+01  0.261269941E+01
     4
 # iter = 64500  time[fs]=64.50000
   C -0.833170581E+01  0.361577000E+00  0.108768797E-01
   C  0.835272966E+01 -0.560351458E+00 -0.569194110E-01
   H -0.337748018E+02 -0.332818968E+01 -0.100477224E+01
   H  0.325973236E+02  0.261455179E+01  0.264176438E+01
     4
 # iter = 65000  time[fs]=65.00000
   C -0.843623026E+01  0.366654985E+00  0.111831626E-01
   C  0.845699263E+01 -0.567220756E+00 -0.577143717E-01
   H -0.341449915E+02 -0.336491844E+01 -0.101593879E+01
   H  0.329512992E+02  0.264396005E+01  0.267083740E+01
     4
 # iter = 65500  time[fs]=65.50000
   C -0.854082469E+01  0.371737501E+00  0.114898028E-01
   C  0.856132510E+01 -0.574094565E+00 -0.585101070E-01
   H -0.345152585E+02 -0.340165649E+01 -0.102710822E+01
   H  0.333053578E+02  0.267337735E+01  0.269991829E+01
     4
 # iter = 66000  time[fs]=66.00000
   C -0.864548738E+01  0.376824443E+00  0.117967931E-01
   C  0.866572536E+01 -0.580972781E+00 -0.593066016E-01
   H -0.348856012E+02 -0.343840363E+01 -0.103828045E+01
   H  0.336594978E+02  0.270280353E+01  0.272900690E+01
     4
 # iter = 66500  time[fs]=66.50000
   C -0.875021668E+01  0.381915708E+00  0.121041266E-01
   C  0.877019177E+01 -0.587855301E+00 -0.601038405E-01
   H -0.352560180E+02 -0.347515970E+01 -0.104945544E+01
   H  0.340137174E+02  0.273223840E+01  0.275810309E+01
     4
 # iter = 67000  time[fs]=67.00000
   C -0.885501100E+01  0.387011197E+00  0.124117967E-01
   C  0.887472274E+01 -0.594742029E+00 -0.609018094E-01
   H -0.356265074E+02 -0.351192451E+01 -0.106063313E+01
   H  0.343680151E+02  0.276168181E+01  0.278720669E+01
     4
 # iter = 67500  time[fs]=67.50000
   C -0.895986881E+01  0.392110816E+00  0.127197969E-01
   C  0.897931674E+01 -0.601632868E+00 -0.617004941E-01
   H -0.359970678E+02 -0.354869790E+01 -0.107181347E+01
   H  0.347223893E+02  0.279113358E+01  0.281631757E+01
     4
 # iter = 68000  time[fs]=68.00000
   C -0.906478862E+01  0.397214472E+00  0.130281207E-01
   C  0.908397231E+01 -0.608527729E+00 -0.624998809E-01
   H -0.363676980E+02 -0.358547969E+01 -0.108299641E+01
   H  0.350768386E+02  0.282059357E+01  0.284543559E+01
     4
 # iter = 68500  time[fs]=68.50000
   C -0.916976899E+01  0.402322077E+00  0.133367622E-01
   C  0.918868800E+01 -0.615426521E+00 -0.632999567E-01
   H -0.367383965E+02 -0.362226974E+01 -0.109418189E+01
   H  0.354313613E+02  0.285006161E+01  0.287456061E+01
     4
 # iter = 69000  time[fs]=69.00000
   C -0.927480854E+01  0.407433543E+00  0.136457153E-01
   C  0.929346244E+01 -0.622329160E+00 -0.641007083E-01
   H -0.371091619E+02 -0.365906787E+01 -0.110536987E+01
   H  0.357859561E+02  0.287953756E+01  0.290369250E+01
     4
 # iter = 69500  time[fs]=69.50000
   C -0.937990593E+01  0.412548788E+00  0.139549741E-01
   C  0.939829431E+01 -0.629235563E+00 -0.649021234E-01
   H -0.374799930E+02 -0.369587395E+01 -0.111656030E+01
   H  0.361406216E+02  0.290902127E+01  0.293283114E+01
     4
 # iter = 70000  time[fs]=70.00000
   C -0.948505986E+01  0.417667730E+00  0.142645331E-01
   C  0.950318231E+01 -0.636145649E+00 -0.657041896E-01
   H -0.378508885E+02 -0.373268782E+01 -0.112775313E+01
   H  0.364953564E+02  0.293851260E+01  0.296197639E+01
     4
 # iter = 70500  time[fs]=70.50000
   C -0.959026908E+01  0.422790292E+00  0.145743867E-01
   C  0.960812519E+01 -0.643059340E+00 -0.665068950E-01
   H -0.382218471E+02 -0.376950934E+01 -0.113894833E+01
   H  0.368501593E+02  0.296801141E+01  0.299112813E+01
     4
 # iter = 71000  time[fs]=71.00000
   C -0.969553239E+01  0.427916397E+00  0.148845296E-01
   C  0.971312175E+01 -0.649976562E+00 -0.673102282E-01
   H -0.385928677E+02 -0.380633838E+01 -0.115014584E+01
   H  0.372050289E+02  0.299751758E+01  0.302028626E+01
     4
 # iter = 71500  time[fs]=71.50000
   C -0.980084859E+01  0.433045972E+00  0.151949565E-01
   C  0.981817082E+01 -0.656897240E+00 -0.681141778E-01
   H -0.389639492E+02 -0.384317478E+01 -0.116134563E+01
   H  0.375599640E+02  0.302703097E+01  0.304945065E+01
     4
 # iter = 72000  time[fs]=72.00000
   C -0.990621657E+01  0.438178946E+00  0.155056623E-01
   C  0.992327128E+01 -0.663821305E+00 -0.689187328E-01
   H -0.393350903E+02 -0.388001843E+01 -0.117254766E+01
   H  0.379149635E+02  0.305655145E+01  0.307862119E+01
     4
 # iter = 72500  time[fs]=72.50000
   C -0.100116352E+02  0.443315250E+00  0.158166422E-01
   C  0.100284220E+02 -0.670748687E+00 -0.697238827E-01
   H -0.397062900E+02 -0.391686920E+01 -0.118375187E+01
   H  0.382700261E+02  0.308607890E+01  0.310779778E+01
     4
 # iter = 73000  time[fs]=73.00000
   C -0.101171034E+02  0.448454816E+00  0.161278912E-01
   C  0.101336220E+02 -0.677679320E+00 -0.705296169E-01
   H -0.400775472E+02 -0.395372696E+01 -0.119495824E+01
   H  0.386251506E+02  0.311561320E+01  0.313698030E+01
     4
 # iter = 73500  time[fs]=73.50000
   C -0.102226203E+02  0.453597580E+00  0.164394047E-01
   C  0.102388702E+02 -0.684613140E+00 -0.713359254E-01
   H -0.404488609E+02 -0.399059158E+01 -0.120616673E+01
   H  0.389803361E+02  0.314515423E+01  0.316616866E+01
     4
 # iter = 74000  time[fs]=74.00000
   C -0.103281846E+02  0.458743478E+00  0.167511781E-01
   C  0.103441655E+02 -0.691550082E+00 -0.721427982E-01
   H -0.408202301E+02 -0.402746296E+01 -0.121737731E+01
   H  0.393355814E+02  0.317470189E+01  0.319536275E+01
     4
 # iter = 74500  time[fs]=74.50000
   C -0.104337956E+02  0.463892449E+00  0.170632070E-01
   C  0.104495071E+02 -0.698490088E+00 -0.729502258E-01
   H -0.411916538E+02 -0.406434097E+01 -0.122858992E+01
   H  0.396908854E+02  0.320425605E+01  0.322456248E+01
     4
 # iter = 75000  time[fs]=75.00000
   C -0.105394522E+02  0.469044433E+00  0.173754869E-01
   C  0.105548941E+02 -0.705433096E+00 -0.737581988E-01
   H -0.415631310E+02 -0.410122550E+01 -0.123980455E+01
   H  0.400462471E+02  0.323381661E+01  0.325376775E+01
     4
 # iter = 75500  time[fs]=75.50000
   C -0.106451535E+02  0.474199374E+00  0.176880136E-01
   C  0.106603253E+02 -0.712379051E+00 -0.745667079E-01
   H -0.419346607E+02 -0.413811644E+01 -0.125102115E+01
   H  0.404016656E+02  0.326338346E+01  0.328297847E+01
     4
 # iter = 76000  time[fs]=76.00000
   C -0.107508987E+02  0.479357213E+00  0.180007831E-01
   C  0.107658001E+02 -0.719327895E+00 -0.753757444E-01
   H -0.423062422E+02 -0.417501369E+01 -0.126223969E+01
   H  0.407571398E+02  0.329295650E+01  0.331219454E+01
     4
 # iter = 76500  time[fs]=76.50000
   C -0.108566869E+02  0.484517898E+00  0.183137912E-01
   C  0.108713176E+02 -0.726279575E+00 -0.761852994E-01
   H -0.426778745E+02 -0.421191714E+01 -0.127346015E+01
   H  0.411126689E+02  0.332253563E+01  0.334141589E+01
     4
 # iter = 77000  time[fs]=77.00000
   C -0.109625172E+02  0.489681374E+00  0.186270340E-01
   C  0.109768769E+02 -0.733234037E+00 -0.769953645E-01
   H -0.430495567E+02 -0.424882669E+01 -0.128468248E+01
   H  0.414682518E+02  0.335212076E+01  0.337064242E+01
     4
 # iter = 77500  time[fs]=77.50000
   C -0.110683889E+02  0.494847591E+00  0.189405077E-01
   C  0.110824771E+02 -0.740191231E+00 -0.778059314E-01
   H -0.434212879E+02 -0.428574224E+01 -0.129590666E+01
   H  0.418238877E+02  0.338171178E+01  0.339987404E+01
     4
 # iter = 78000  time[fs]=78.00000
   C -0.111743010E+02  0.500016497E+00  0.192542085E-01
   C  0.111881176E+02 -0.747151107E+00 -0.786169921E-01
   H -0.437930675E+02 -0.432266369E+01 -0.130713266E+01
   H  0.421795757E+02  0.341130860E+01  0.342911069E+01
     4
 # iter = 78500  time[fs]=78.50000
   C -0.112802530E+02  0.505188044E+00  0.195681328E-01
   C  0.112937976E+02 -0.754113615E+00 -0.794285385E-01
   H -0.441648945E+02 -0.435959095E+01 -0.131836044E+01
   H  0.425353150E+02  0.344091113E+01  0.345835227E+01
     4
 # iter = 79000  time[fs]=79.00000
   C -0.113862440E+02  0.510362184E+00  0.198822769E-01
   C  0.113995162E+02 -0.761078709E+00 -0.802405631E-01
   H -0.445367683E+02 -0.439652392E+01 -0.132958999E+01
   H  0.428911046E+02  0.347051929E+01  0.348759871E+01
     4
 # iter = 79500  time[fs]=79.50000
   C -0.114922732E+02  0.515538872E+00  0.201966375E-01
   C  0.115052729E+02 -0.768046342E+00 -0.810530582E-01
   H -0.449086879E+02 -0.443346252E+01 -0.134082127E+01
   H  0.432469439E+02  0.350013297E+01  0.351684993E+01
     4
 # iter = 80000  time[fs]=80.00000
   C -0.115983401E+02  0.520718061E+00  0.205112110E-01
   C  0.116110668E+02 -0.775016470E+00 -0.818660165E-01
   H -0.452806528E+02 -0.447040666E+01 -0.135205425E+01
   H  0.436028320E+02  0.352975211E+01  0.354610586E+01
