     4
 # iter = 25000  time[fs]=25.00000
   C -0.972961015E+00 -0.143502891E-01 -0.274797788E-01
   C  0.100085096E+01 -0.245600504E-01  0.247803195E-01
   H -0.522720627E+01  0.604002230E+00  0.521388627E+00
   H  0.532081274E+01 -0.506021184E+00 -0.573948593E+00
     4
 # iter = 25500  time[fs]=25.50000
   C -0.101764462E+01 -0.159303510E-01 -0.305800221E-01
   C  0.104423712E+01 -0.223700499E-01  0.268907443E-01
   H -0.555508235E+01  0.644262404E+00  0.552467028E+00
   H  0.563490856E+01 -0.533967731E+00 -0.612328395E+00
     4
 # iter = 26000  time[fs]=26.00000
   C -0.106485629E+01 -0.175165518E-01 -0.337640655E-01
   C  0.109015382E+01 -0.201801959E-01  0.290865895E-01
   H -0.588560246E+01  0.684861847E+00  0.583840626E+00
   H  0.595161861E+01 -0.562178121E+00 -0.651022838E+00
     4
 # iter = 26500  time[fs]=26.50000
   C -0.111438504E+01 -0.191124129E-01 -0.370274062E-01
   C  0.113838883E+01 -0.179861989E-01  0.313634534E-01
   H -0.621847371E+01  0.725763070E+00  0.615475908E+00
   H  0.627066504E+01 -0.590624085E+00 -0.689999621E+00
     4
 # iter = 27000  time[fs]=27.00000
   C -0.116603601E+01 -0.207205923E-01 -0.403655689E-01
   C  0.118874639E+01 -0.157847633E-01  0.337169050E-01
   H -0.655344839E+01  0.766934435E+00  0.647344745E+00
   H  0.659181107E+01 -0.619281631E+00 -0.729231147E+00
     4
 # iter = 27500  time[fs]=27.50000
   C -0.121963056E+01 -0.223430291E-01 -0.437741710E-01
   C  0.124104718E+01 -0.135734162E-01  0.361425680E-01
   H -0.689031520E+01  0.808348998E+00  0.679423304E+00
   H  0.691485344E+01 -0.648130228E+00 -0.768693660E+00
     4
 # iter = 28000  time[fs]=28.00000
   C -0.127500581E+01 -0.239810757E-01 -0.472489737E-01
   C  0.129512782E+01 -0.113503528E-01  0.386361845E-01
   H -0.722889261E+01  0.849983634E+00  0.711691218E+00
   H  0.723961646E+01 -0.677152176E+00 -0.808366564E+00
     4
 # iter = 28500  time[fs]=28.50000
   C -0.133201378E+01 -0.256356153E-01 -0.507859190E-01
   C  0.135084000E+01 -0.911430414E-02  0.411936612E-01
   H -0.756902355E+01  0.891818350E+00  0.744130943E+00
   H  0.756594729E+01 -0.706332109E+00 -0.848231888E+00
     4
 # iter = 29000  time[fs]=29.00000
   C -0.139052042E+01 -0.273071613E-01 -0.543811539E-01
   C  0.140804940E+01 -0.686442525E-02  0.438110989E-01
   H -0.791057127E+01  0.933835746E+00  0.776727262E+00
   H  0.789371223E+01 -0.735656609E+00 -0.888273864E+00
     4
 # iter = 29500  time[fs]=29.50000
   C -0.145040448E+01 -0.289959395E-01 -0.580310439E-01
   C  0.146663459E+01 -0.460020288E-02  0.464848104E-01
   H -0.825341604E+01  0.976020587E+00  0.809466893E+00
   H  0.822279369E+01 -0.765113889E+00 -0.928478575E+00
     4
 # iter = 30000  time[fs]=30.00000
   C -0.151155633E+01 -0.307019559E-01 -0.617321776E-01
   C  0.152648584E+01 -0.232138073E-02  0.492113281E-01
   H -0.859745244E+01  0.101835946E+01  0.842338171E+00
   H  0.855308773E+01 -0.794693539E+00 -0.968833685E+00
     4
 # iter = 30500  time[fs]=30.50000
   C -0.157387695E+01 -0.324250506E-01 -0.654813660E-01
   C  0.158750403E+01 -0.278992109E-04  0.519874052E-01
   H -0.894258724E+01  0.106084049E+01  0.875330801E+00
   H  0.888450203E+01 -0.824386324E+00 -0.100932820E+01
     4
 # iter = 31000  time[fs]=31.00000
   C -0.163727679E+01 -0.341649411E-01 -0.692756366E-01
   C  0.164959957E+01  0.228015254E-02  0.548100111E-01
   H -0.928873756E+01  0.110345313E+01  0.908435645E+00
   H  0.921695428E+01 -0.854184010E+00 -0.104995229E+01
     4
 # iter = 31500  time[fs]=31.50000
   C -0.170167487E+01 -0.359212560E-01 -0.731122245E-01
   C  0.171269147E+01  0.460257456E-02  0.576763237E-01
   H -0.963582944E+01  0.114618796E+01  0.941644563E+00
   H  0.955037080E+01 -0.884079230E+00 -0.109069713E+01
     4
 # iter = 32000  time[fs]=32.00000
   C -0.176699789E+01 -0.376935621E-01 -0.769885623E-01
   C  0.177670640E+01  0.693908595E-02  0.605837196E-01
   H -0.998379660E+01  0.118903652E+01  0.974950268E+00
   H  0.988468533E+01 -0.914065361E+00 -0.113155475E+01
     4
 # iter = 32500  time[fs]=32.50000
   C -0.183317938E+01 -0.394813845E-01 -0.809022679E-01
   C  0.184157792E+01  0.928934815E-02  0.635297624E-01
   H -0.103325794E+02  0.123199120E+01  0.100834621E+01
   H  0.102198382E+02 -0.944136433E+00 -0.117251797E+01
     4
 # iter = 33000  time[fs]=33.00000
   C -0.190015903E+01 -0.412842229E-01 -0.848511330E-01
   C  0.190724574E+01  0.116529831E-01  0.665121914E-01
   H -0.106821242E+02  0.127504514E+01  0.104182648E+01
   H  0.105557752E+02 -0.974287041E+00 -0.121358023E+01
     4
 # iter = 33500  time[fs]=33.50000
   C -0.196788203E+01 -0.431015639E-01 -0.888331104E-01
   C  0.197365508E+01  0.140295872E-01  0.695289094E-01
   H -0.110323821E+02  0.131819212E+01  0.107538574E+01
   H  0.108924475E+02 -0.100451228E+01 -0.125473560E+01
     4
 # iter = 34000  time[fs]=34.00000
   C -0.203629848E+01 -0.449328896E-01 -0.928463022E-01
   C  0.204075605E+01  0.164187422E-01  0.725779706E-01
   H -0.113833090E+02  0.136142646E+01  0.110901914E+01
   H  0.112298104E+02 -0.103480769E+01 -0.129597865E+01
     4
 # iter = 34500  time[fs]=34.50000
   C -0.210536287E+01 -0.467776851E-01 -0.968889490E-01
   C  0.210850322E+01  0.188200232E-01  0.756575699E-01
   H -0.117348645E+02  0.140474302E+01  0.114272224E+01
   H  0.115678230E+02 -0.106516918E+01 -0.133730441E+01
     4
 # iter = 35000  time[fs]=35.00000
   C -0.217503367E+01 -0.486354433E-01 -0.100959418E+00
   C  0.217685507E+01  0.212330050E-01  0.787660314E-01
   H -0.120870119E+02  0.144813708E+01  0.117649103E+01
   H  0.119064482E+02 -0.109559303E+01 -0.137870832E+01
     4
 # iter = 35500  time[fs]=35.50000
   C -0.224527286E+01 -0.505056685E-01 -0.105056196E+00
   C  0.224577364E+01  0.236572668E-01  0.819017987E-01
   H -0.124397175E+02  0.149160430E+01  0.121032180E+01
   H  0.122456516E+02 -0.112607581E+01 -0.142018620E+01
     4
 # iter = 36000  time[fs]=36.00000
   C -0.231604563E+01 -0.523878793E-01 -0.109177874E+00
   C  0.231522415E+01  0.260923954E-01  0.850634255E-01
   H -0.127929504E+02  0.153514073E+01  0.124421116E+01
   H  0.125854019E+02 -0.115661436E+01 -0.146173417E+01
     4
 # iter = 36500  time[fs]=36.50000
   C -0.238732003E+01 -0.542816100E-01 -0.113323144E+00
   C  0.238517469E+01  0.285379877E-01  0.882495664E-01
   H -0.131466820E+02  0.157874270E+01  0.127815600E+01
   H  0.129256701E+02 -0.118720578E+01 -0.150334867E+01
     4
 # iter = 37000  time[fs]=37.00000
   C -0.245906667E+01 -0.561864119E-01 -0.117490791E+00
   C  0.245559594E+01  0.309936525E-01  0.914589692E-01
   H -0.135008863E+02  0.162240684E+01  0.131215342E+01
   H  0.132664294E+02 -0.121784738E+01 -0.154502639E+01
     4
 # iter = 37500  time[fs]=37.50000
   C -0.253125850E+01 -0.581018537E-01 -0.121679681E+00
   C  0.252646088E+01  0.334590117E-01  0.946904672E-01
   H -0.138555388E+02  0.166613003E+01  0.134620078E+01
   H  0.136076551E+02 -0.124853668E+01 -0.158676426E+01
     4
 # iter = 38000  time[fs]=38.00000
   C -0.260387060E+01 -0.600275222E-01 -0.125888758E+00
   C  0.259774463E+01  0.359337007E-01  0.979429726E-01
   H -0.142106173E+02  0.170990936E+01  0.138029561E+01
   H  0.139493241E+02 -0.127927137E+01 -0.162855945E+01
     4
 # iter = 38500  time[fs]=38.50000
   C -0.267687992E+01 -0.619630215E-01 -0.130117038E+00
   C  0.266942419E+01  0.384173691E-01  0.101215470E+00
   H -0.145661009E+02  0.175374216E+01  0.141443561E+01
   H  0.142914152E+02 -0.131004931E+01 -0.167040930E+01
     4
 # iter = 39000  time[fs]=39.00000
   C -0.275026516E+01 -0.639079735E-01 -0.134363599E+00
   C  0.274147829E+01  0.409096805E-01  0.104507010E+00
   H -0.149219702E+02  0.179762592E+01  0.144861868E+01
   H  0.146339086E+02 -0.134086849E+01 -0.171231133E+01
     4
 # iter = 39500  time[fs]=39.50000
   C -0.282400656E+01 -0.658620169E-01 -0.138627584E+00
   C  0.281388722E+01  0.434103127E-01  0.107816706E+00
   H -0.152782073E+02  0.184155833E+01  0.148284283E+01
   H  0.149767857E+02 -0.137172707E+01 -0.175426325E+01
     4
 # iter = 40000  time[fs]=40.00000
   C -0.289808583E+01 -0.678248072E-01 -0.142908186E+00
   C  0.288663273E+01  0.459189572E-01  0.111143728E+00
   H -0.156347954E+02  0.188553720E+01  0.151710621E+01
   H  0.153200293E+02 -0.140262331E+01 -0.179626289E+01
     4
 # iter = 40500  time[fs]=40.50000
   C -0.297248594E+01 -0.697960158E-01 -0.147204652E+00
   C  0.295969782E+01  0.484353191E-01  0.114487296E+00
   H -0.159917189E+02  0.192956051E+01  0.155140711E+01
   H  0.156636233E+02 -0.143355556E+01 -0.183830823E+01
     4
 # iter = 41000  time[fs]=41.00000
   C -0.304719106E+01 -0.717753293E-01 -0.151516276E+00
   C  0.303306670E+01  0.509591166E-01  0.117846681E+00
   H -0.163489631E+02  0.197362636E+01  0.158574390E+01
   H  0.160075527E+02 -0.146452233E+01 -0.188039737E+01
     4
 # iter = 41500  time[fs]=41.50000
   C -0.312218645E+01 -0.737624491E-01 -0.155842396E+00
   C  0.310672467E+01  0.534900804E-01  0.121221197E+00
   H -0.167065142E+02  0.201773296E+01  0.162011509E+01
   H  0.163518032E+02 -0.149552217E+01 -0.192252854E+01
     4
 # iter = 42000  time[fs]=42.00000
   C -0.319745834E+01 -0.757570909E-01 -0.160182387E+00
   C  0.318065800E+01  0.560279537E-01  0.124610200E+00
   H -0.170643594E+02  0.206187864E+01  0.165451924E+01
   H  0.166963615E+02 -0.152655374E+01 -0.196470006E+01
     4
 # iter = 42500  time[fs]=42.50000
   C -0.327299389E+01 -0.777589834E-01 -0.164535665E+00
   C  0.325485387E+01  0.585724909E-01  0.128013084E+00
   H -0.174224867E+02  0.210606184E+01  0.168895504E+01
   H  0.170412153E+02 -0.155761578E+01 -0.200691035E+01
     4
 # iter = 43000  time[fs]=43.00000
   C -0.334878108E+01 -0.797678683E-01 -0.168901678E+00
   C  0.332930030E+01  0.611234580E-01  0.131429279E+00
   H -0.177808847E+02  0.215028108E+01  0.172342122E+01
   H  0.173863528E+02 -0.158870711E+01 -0.204915793E+01
     4
 # iter = 43500  time[fs]=43.50000
   C -0.342480865E+01 -0.817834993E-01 -0.173279907E+00
   C  0.340398607E+01  0.636806314E-01  0.134858246E+00
   H -0.181395428E+02  0.219453495E+01  0.175791661E+01
   H  0.177317629E+02 -0.161982661E+01 -0.209144140E+01
     4
 # iter = 44000  time[fs]=44.00000
   C -0.350106607E+01 -0.838056415E-01 -0.177669862E+00
   C  0.347890066E+01  0.662437976E-01  0.138299478E+00
   H -0.184984507E+02  0.223882216E+01  0.179244009E+01
   H  0.180774351E+02 -0.165097321E+01 -0.213375943E+01
     4
 # iter = 44500  time[fs]=44.50000
   C -0.357754342E+01 -0.858340712E-01 -0.182071082E+00
   C  0.355403419E+01  0.688127530E-01  0.141752496E+00
   H -0.188575991E+02  0.228314145E+01  0.182699062E+01
   H  0.184233597E+02 -0.168214592E+01 -0.217611077E+01
     4
 # iter = 45000  time[fs]=45.00000
   C -0.365423142E+01 -0.878685747E-01 -0.186483129E+00
   C  0.362937741E+01  0.713873029E-01  0.145216848E+00
   H -0.192169790E+02  0.232749166E+01  0.186156720E+01
   H  0.187695273E+02 -0.171334379E+01 -0.221849423E+01
     4
 # iter = 45500  time[fs]=45.50000
   C -0.373112131E+01 -0.899089483E-01 -0.190905592E+00
   C  0.370492158E+01  0.739672616E-01  0.148692106E+00
   H -0.195765818E+02  0.237187167E+01  0.189616890E+01
   H  0.191159292E+02 -0.174456593E+01 -0.226090868E+01
     4
 # iter = 46000  time[fs]=46.00000
   C -0.380820486E+01 -0.919549976E-01 -0.195338079E+00
   C  0.378065851E+01  0.765524515E-01  0.152177863E+00
   H -0.199363997E+02  0.241628043E+01  0.193079482E+01
   H  0.194625569E+02 -0.177581149E+01 -0.230335307E+01
     4
 # iter = 46500  time[fs]=46.50000
   C -0.388547431E+01 -0.940065367E-01 -0.199780221E+00
   C  0.385658044E+01  0.791427029E-01  0.155673737E+00
   H -0.202964248E+02  0.246071696E+01  0.196544413E+01
   H  0.198094026E+02 -0.180707967E+01 -0.234582638E+01
     4
 # iter = 47000  time[fs]=47.00000
   C -0.396292233E+01 -0.960633884E-01 -0.204231668E+00
   C  0.393268009E+01  0.817378537E-01  0.159179363E+00
   H -0.206566502E+02  0.250518029E+01  0.200011601E+01
   H  0.201564588E+02 -0.183836971E+01 -0.238832765E+01
     4
 # iter = 47500  time[fs]=47.50000
   C -0.404054202E+01 -0.981253831E-01 -0.208692086E+00
   C  0.400895056E+01  0.843377487E-01  0.162694397E+00
   H -0.210170688E+02  0.254966954E+01  0.203480972E+01
   H  0.205037183E+02 -0.186968087E+01 -0.243085596E+01
     4
 # iter = 48000  time[fs]=48.00000
   C -0.411832683E+01 -0.100192359E+00 -0.213161161E+00
   C  0.408538535E+01  0.869422395E-01  0.166218509E+00
   H -0.213776742E+02  0.259418385E+01  0.206952454E+01
   H  0.208511744E+02 -0.190101247E+01 -0.247341044E+01
     4
 # iter = 48500  time[fs]=48.50000
   C -0.419627059E+01 -0.102264160E+00 -0.217638592E+00
   C  0.416197828E+01  0.895511842E-01  0.169751388E+00
   H -0.217384603E+02  0.263872240E+01  0.210425977E+01
   H  0.211988207E+02 -0.193236385E+01 -0.251599027E+01
     4
 # iter = 49000  time[fs]=49.00000
   C -0.427436743E+01 -0.104340640E+00 -0.222124095E+00
   C  0.423872353E+01  0.921644467E-01  0.173292737E+00
   H -0.220994210E+02  0.268328443E+01  0.213901476E+01
   H  0.215466510E+02 -0.196373439E+01 -0.255859465E+01
     4
 # iter = 49500  time[fs]=49.50000
   C -0.435261182E+01 -0.106421655E+00 -0.226617398E+00
   C  0.431561557E+01  0.947818969E-01  0.176842276E+00
   H -0.224605510E+02  0.272786920E+01  0.217378889E+01
   H  0.218946595E+02 -0.199512348E+01 -0.260122283E+01
     4
 # iter = 50000  time[fs]=50.00000
   C -0.443099849E+01 -0.108507070E+00 -0.231118244E+00
   C  0.439264916E+01  0.974034100E-01  0.180399734E+00
   H -0.228218447E+02  0.277247600E+01  0.220858157E+01
   H  0.222428405E+02 -0.202653057E+01 -0.264387408E+01
     4
 # iter = 50500  time[fs]=50.50000
   C -0.450952245E+01 -0.110596755E+00 -0.235626385E+00
   C  0.446981932E+01  0.100028866E+00  0.183964856E+00
   H -0.231832971E+02  0.281710416E+01  0.224339223E+01
   H  0.225911889E+02 -0.205795510E+01 -0.268654773E+01
     4
 # iter = 51000  time[fs]=51.00000
   C -0.458817895E+01 -0.112690584E+00 -0.240141588E+00
   C  0.454712132E+01  0.102658151E+00  0.187537397E+00
   H -0.235449035E+02  0.286175304E+01  0.227822033E+01
   H  0.229396995E+02 -0.208939655E+01 -0.272924311E+01
     4
 # iter = 51500  time[fs]=51.50000
   C -0.466696348E+01 -0.114788438E+00 -0.244663630E+00
   C  0.462455068E+01  0.105291155E+00  0.191117125E+00
   H -0.239066590E+02  0.290642203E+01  0.231306535E+01
   H  0.232883675E+02 -0.212085444E+01 -0.277195960E+01
     4
 # iter = 52000  time[fs]=52.00000
   C -0.474587176E+01 -0.116890203E+00 -0.249192296E+00
   C  0.470210312E+01  0.107927772E+00  0.194703817E+00
   H -0.242685593E+02  0.295111054E+01  0.234792680E+01
   H  0.236371882E+02 -0.215232829E+01 -0.281469658E+01
     4
 # iter = 52500  time[fs]=52.50000
   C -0.482489968E+01 -0.118995768E+00 -0.253727382E+00
   C  0.477977456E+01  0.110567900E+00  0.198297260E+00
   H -0.246306001E+02  0.299581801E+01  0.238280421E+01
   H  0.239861572E+02 -0.218381763E+01 -0.285745349E+01
     4
 # iter = 53000  time[fs]=53.00000
   C -0.490404337E+01 -0.121105027E+00 -0.258268694E+00
   C  0.485756113E+01  0.113211442E+00  0.201897252E+00
   H -0.249927775E+02  0.304054391E+01  0.241769712E+01
   H  0.243352703E+02 -0.221532204E+01 -0.290022978E+01
     4
 # iter = 53500  time[fs]=53.50000
   C -0.498329911E+01 -0.123217879E+00 -0.262816045E+00
   C  0.493545914E+01  0.115858306E+00  0.205503597E+00
   H -0.253550874E+02  0.308528772E+01  0.245260509E+01
   H  0.246845234E+02 -0.224684110E+01 -0.294302490E+01
     4
 # iter = 54000  time[fs]=54.00000
   C -0.506266336E+01 -0.125334225E+00 -0.267369257E+00
   C  0.501346505E+01  0.118508400E+00  0.209116109E+00
   H -0.257175262E+02  0.313004895E+01  0.248752772E+01
   H  0.250339126E+02 -0.227837440E+01 -0.298583836E+01
     4
 # iter = 54500  time[fs]=54.50000
   C -0.514213273E+01 -0.127453973E+00 -0.271928159E+00
   C  0.509157551E+01  0.121161639E+00  0.212734611E+00
   H -0.260800904E+02  0.317482712E+01  0.252246460E+01
   H  0.253834341E+02 -0.230992157E+01 -0.302866966E+01
     4
 # iter = 55000  time[fs]=55.00000
   C -0.522170401E+01 -0.129577032E+00 -0.276492587E+00
   C  0.516978729E+01  0.123817938E+00  0.216358930E+00
   H -0.264427764E+02  0.321962178E+01  0.255741535E+01
   H  0.257330844E+02 -0.234148223E+01 -0.307151834E+01
     4
 # iter = 55500  time[fs]=55.50000
   C -0.530137410E+01 -0.131703314E+00 -0.281062384E+00
   C  0.524809733E+01  0.126477219E+00  0.219988904E+00
   H -0.268055810E+02  0.326443249E+01  0.259237961E+01
   H  0.260828600E+02 -0.237305604E+01 -0.311438394E+01
     4
 # iter = 56000  time[fs]=56.00000
   C -0.538114004E+01 -0.133832737E+00 -0.285637400E+00
   C  0.532650267E+01  0.129139404E+00  0.223624376E+00
   H -0.271685011E+02  0.330925884E+01  0.262735702E+01
   H  0.264327577E+02 -0.240464264E+01 -0.315726603E+01
     4
 # iter = 56500  time[fs]=56.50000
   C -0.546099902E+01 -0.135965220E+00 -0.290217491E+00
   C  0.540500051E+01  0.131804418E+00  0.227265194E+00
   H -0.275315336E+02  0.335410042E+01  0.266234723E+01
   H  0.267827742E+02 -0.243624171E+01 -0.320016419E+01
     4
 # iter = 57000  time[fs]=57.00000
   C -0.554094833E+01 -0.138100684E+00 -0.294802519E+00
   C  0.548358816E+01  0.134472191E+00  0.230911214E+00
   H -0.278946756E+02  0.339895685E+01  0.269734993E+01
   H  0.271329065E+02 -0.246785294E+01 -0.324307802E+01
     4
 # iter = 57500  time[fs]=57.50000
   C -0.562098538E+01 -0.140239057E+00 -0.299392348E+00
   C  0.556226303E+01  0.137142653E+00  0.234562296E+00
   H -0.282579243E+02  0.344382774E+01  0.273236480E+01
   H  0.274831516E+02 -0.249947603E+01 -0.328600714E+01
     4
 # iter = 58000  time[fs]=58.00000
   C -0.570110767E+01 -0.142380264E+00 -0.303986853E+00
   C  0.564102265E+01  0.139815738E+00  0.238218307E+00
   H -0.286212769E+02  0.348871275E+01  0.276739154E+01
   H  0.278335067E+02 -0.253111067E+01 -0.332895117E+01
     4
 # iter = 58500  time[fs]=58.50000
   C -0.578131283E+01 -0.144524237E+00 -0.308585910E+00
   C  0.571986465E+01  0.142491381E+00  0.241879117E+00
   H -0.289847310E+02  0.353361153E+01  0.280242985E+01
   H  0.281839691E+02 -0.256275660E+01 -0.337190975E+01
     4
 # iter = 59000  time[fs]=59.00000
   C -0.586159856E+01 -0.146670910E+00 -0.313189401E+00
   C  0.579878674E+01  0.145169521E+00  0.245544605E+00
   H -0.293482840E+02  0.357852373E+01  0.283747946E+01
   H  0.285345361E+02 -0.259441353E+01 -0.341488254E+01
     4
 # iter = 59500  time[fs]=59.50000
   C -0.594196268E+01 -0.148820216E+00 -0.317797212E+00
   C  0.587778675E+01  0.147850098E+00  0.249214649E+00
   H -0.297119335E+02  0.362344905E+01  0.287254009E+01
   H  0.288852053E+02 -0.262608120E+01 -0.345786920E+01
     4
 # iter = 60000  time[fs]=60.00000
   C -0.602240307E+01 -0.150972094E+00 -0.322409233E+00
   C  0.595686257E+01  0.150533055E+00  0.252889136E+00
   H -0.300756772E+02  0.366838717E+01  0.290761148E+01
   H  0.292359742E+02 -0.265775938E+01 -0.350086941E+01
     4
 # iter = 60500  time[fs]=60.50000
   C -0.610291770E+01 -0.153126483E+00 -0.327025358E+00
   C  0.603601218E+01  0.153218335E+00  0.256567955E+00
   H -0.304395128E+02  0.371333779E+01  0.294269339E+01
   H  0.295868403E+02 -0.268944780E+01 -0.354388286E+01
     4
 # iter = 61000  time[fs]=61.00000
   C -0.618350462E+01 -0.155283325E+00 -0.331645487E+00
   C  0.611523364E+01  0.155905885E+00  0.260250999E+00
   H -0.308034381E+02  0.375830062E+01  0.297778556E+01
   H  0.299378016E+02 -0.272114623E+01 -0.358690924E+01
     4
 # iter = 61500  time[fs]=61.50000
   C -0.626416196E+01 -0.157442563E+00 -0.336269521E+00
   C  0.619452509E+01  0.158595652E+00  0.263938166E+00
   H -0.311674511E+02  0.380327539E+01  0.301288776E+01
   H  0.302888556E+02 -0.275285446E+01 -0.362994827E+01
     4
 # iter = 62000  time[fs]=62.00000
   C -0.634488791E+01 -0.159604144E+00 -0.340897365E+00
   C  0.627388473E+01  0.161287587E+00  0.267629357E+00
   H -0.315315498E+02  0.384826182E+01  0.304799977E+01
   H  0.306400004E+02 -0.278457224E+01 -0.367299966E+01
     4
 # iter = 62500  time[fs]=62.50000
   C -0.642568073E+01 -0.161768014E+00 -0.345528928E+00
   C  0.635331083E+01  0.163981640E+00  0.271324476E+00
   H -0.318957322E+02  0.389325966E+01  0.308312137E+01
   H  0.309912339E+02 -0.281629939E+01 -0.371606314E+01
     4
 # iter = 63000  time[fs]=63.00000
   C -0.650653875E+01 -0.163934123E+00 -0.350164122E+00
   C  0.643280172E+01  0.166677765E+00  0.275023430E+00
   H -0.322599965E+02  0.393826865E+01  0.311825234E+01
   H  0.313425541E+02 -0.284803568E+01 -0.375913846E+01
     4
 # iter = 63500  time[fs]=63.50000
   C -0.658746036E+01 -0.166102420E+00 -0.354802862E+00
   C  0.651235579E+01  0.169375916E+00  0.278726131E+00
   H -0.326243407E+02  0.398328854E+01  0.315339248E+01
   H  0.316939590E+02 -0.287978093E+01 -0.380222535E+01
     4
 # iter = 64000  time[fs]=64.00000
   C -0.666844399E+01 -0.168272859E+00 -0.359445067E+00
   C  0.659197151E+01  0.172076049E+00  0.282432492E+00
   H -0.329887633E+02  0.402831911E+01  0.318854159E+01
   H  0.320454469E+02 -0.291153493E+01 -0.384532357E+01
     4
 # iter = 64500  time[fs]=64.50000
   C -0.674948814E+01 -0.170445393E+00 -0.364090655E+00
   C  0.667164736E+01  0.174778121E+00  0.286142431E+00
   H -0.333532623E+02  0.407336012E+01  0.322369948E+01
   H  0.323970159E+02 -0.294329751E+01 -0.388843287E+01
     4
 # iter = 65000  time[fs]=65.00000
   C -0.683059138E+01 -0.172619978E+00 -0.368739552E+00
   C  0.675138192E+01  0.177482090E+00  0.289855866E+00
   H -0.337178363E+02  0.411841136E+01  0.325886596E+01
   H  0.327486644E+02 -0.297506847E+01 -0.393155304E+01
     4
 # iter = 65500  time[fs]=65.50000
   C -0.691175229E+01 -0.174796569E+00 -0.373391682E+00
   C  0.683117380E+01  0.180187917E+00  0.293572720E+00
   H -0.340824836E+02  0.416347261E+01  0.329404085E+01
   H  0.331003905E+02 -0.300684766E+01 -0.397468384E+01
     4
 # iter = 66000  time[fs]=66.00000
   C -0.699296954E+01 -0.176975125E+00 -0.378046975E+00
   C  0.691102164E+01  0.182895563E+00  0.297292918E+00
   H -0.344472026E+02  0.420854365E+01  0.332922399E+01
   H  0.334521928E+02 -0.303863489E+01 -0.401782506E+01
     4
 # iter = 66500  time[fs]=66.50000
   C -0.707424181E+01 -0.179155605E+00 -0.382705360E+00
   C  0.699092415E+01  0.185604990E+00  0.301016386E+00
   H -0.348119919E+02  0.425362430E+01  0.336441519E+01
   H  0.338040695E+02 -0.307043001E+01 -0.406097649E+01
     4
 # iter = 67000  time[fs]=67.00000
   C -0.715556785E+01 -0.181337970E+00 -0.387366770E+00
   C  0.707088009E+01  0.188316161E+00  0.304743055E+00
   H -0.351768500E+02  0.429871436E+01  0.339961429E+01
   H  0.341560192E+02 -0.310223285E+01 -0.410413792E+01
     4
 # iter = 67500  time[fs]=67.50000
   C -0.723694644E+01 -0.183522181E+00 -0.392031140E+00
   C  0.715088823E+01  0.191029041E+00  0.308472855E+00
   H -0.355417756E+02  0.434381363E+01  0.343482115E+01
   H  0.345080405E+02 -0.313404326E+01 -0.414730916E+01
     4
 # iter = 68000  time[fs]=68.00000
   C -0.731837639E+01 -0.185708200E+00 -0.396698408E+00
   C  0.723094740E+01  0.193743595E+00  0.312205721E+00
   H -0.359067671E+02  0.438892193E+01  0.347003559E+01
   H  0.348601318E+02 -0.316586109E+01 -0.419049000E+01
     4
 # iter = 68500  time[fs]=68.50000
   C -0.739985658E+01 -0.187895993E+00 -0.401368512E+00
   C  0.731105648E+01  0.196459790E+00  0.315941589E+00
   H -0.362718234E+02  0.443403909E+01  0.350525747E+01
   H  0.352122917E+02 -0.319768619E+01 -0.423368027E+01
     4
 # iter = 69000  time[fs]=69.00000
   C -0.748138589E+01 -0.190085523E+00 -0.406041393E+00
   C  0.739121436E+01  0.199177594E+00  0.319680395E+00
   H -0.366369432E+02  0.447916493E+01  0.354048666E+01
   H  0.355645190E+02 -0.322951843E+01 -0.427687979E+01
     4
 # iter = 69500  time[fs]=69.50000
   C -0.756296326E+01 -0.192276756E+00 -0.410716993E+00
   C  0.747141999E+01  0.201896975E+00  0.323422081E+00
   H -0.370021251E+02  0.452429929E+01  0.357572299E+01
   H  0.359168122E+02 -0.326135766E+01 -0.432008837E+01
     4
 # iter = 70000  time[fs]=70.00000
   C -0.764458766E+01 -0.194469660E+00 -0.415395258E+00
   C  0.755167233E+01  0.204617902E+00  0.327166587E+00
   H -0.373673680E+02  0.456944199E+01  0.361096635E+01
   H  0.362691702E+02 -0.329320376E+01 -0.436330585E+01
     4
 # iter = 70500  time[fs]=70.50000
   C -0.772625809E+01 -0.196664202E+00 -0.420076132E+00
   C  0.763197039E+01  0.207340346E+00  0.330913858E+00
   H -0.377326707E+02  0.461459290E+01  0.364621659E+01
   H  0.366215917E+02 -0.332505659E+01 -0.440653206E+01
     4
 # iter = 71000  time[fs]=71.00000
   C -0.780797356E+01 -0.198860351E+00 -0.424759564E+00
   C  0.771231320E+01  0.210064277E+00  0.334663836E+00
   H -0.380980321E+02  0.465975184E+01  0.368147358E+01
   H  0.369740754E+02 -0.335691602E+01 -0.444976684E+01
     4
 # iter = 71500  time[fs]=71.50000
   C -0.788973315E+01 -0.201058077E+00 -0.429445503E+00
   C  0.779269983E+01  0.212789668E+00  0.338416470E+00
   H -0.384634510E+02  0.470491867E+01  0.371673720E+01
   H  0.373266202E+02 -0.338878194E+01 -0.449301003E+01
     4
 # iter = 72000  time[fs]=72.00000
   C -0.797153595E+01 -0.203257349E+00 -0.434133900E+00
   C  0.787312937E+01  0.215516491E+00  0.342171708E+00
   H -0.388289264E+02  0.475009324E+01  0.375200734E+01
   H  0.376792250E+02 -0.342065423E+01 -0.453626147E+01
     4
 # iter = 72500  time[fs]=72.50000
   C -0.805338106E+01 -0.205458140E+00 -0.438824705E+00
   C  0.795360095E+01  0.218244719E+00  0.345929498E+00
   H -0.391944573E+02  0.479527542E+01  0.378728386E+01
   H  0.380318886E+02 -0.345253277E+01 -0.457952102E+01
     4
 # iter = 73000  time[fs]=73.00000
   C -0.813526763E+01 -0.207660421E+00 -0.443517874E+00
   C  0.803411370E+01  0.220974328E+00  0.349689792E+00
   H -0.395600425E+02  0.484046506E+01  0.382256665E+01
   H  0.383846100E+02 -0.348441745E+01 -0.462278854E+01
     4
 # iter = 73500  time[fs]=73.50000
   C -0.821719482E+01 -0.209864166E+00 -0.448213361E+00
   C  0.811466680E+01  0.223705291E+00  0.353452542E+00
   H -0.399256812E+02  0.488566203E+01  0.385785560E+01
   H  0.387373882E+02 -0.351630815E+01 -0.466606388E+01
     4
 # iter = 74000  time[fs]=74.00000
   C -0.829916184E+01 -0.212069347E+00 -0.452911121E+00
   C  0.819525945E+01  0.226437583E+00  0.357217702E+00
   H -0.402913723E+02  0.493086621E+01  0.389315060E+01
   H  0.390902220E+02 -0.354820478E+01 -0.470934691E+01
     4
 # iter = 74500  time[fs]=74.50000
   C -0.838116789E+01 -0.214275939E+00 -0.457611112E+00
   C  0.827589087E+01  0.229171182E+00  0.360985227E+00
   H -0.406571149E+02  0.497607746E+01  0.392845154E+01
   H  0.394431105E+02 -0.358010722E+01 -0.475263748E+01
     4
 # iter = 75000  time[fs]=75.00000
   C -0.846321221E+01 -0.216483916E+00 -0.462313293E+00
   C  0.835656030E+01  0.231906064E+00  0.364755074E+00
   H -0.410229081E+02  0.502129566E+01  0.396375833E+01
   H  0.397960528E+02 -0.361201538E+01 -0.479593548E+01
     4
 # iter = 75500  time[fs]=75.50000
   C -0.854529406E+01 -0.218693255E+00 -0.467017622E+00
   C  0.843726700E+01  0.234642207E+00  0.368527199E+00
   H -0.413887511E+02  0.506652068E+01  0.399907085E+01
   H  0.401490479E+02 -0.364392916E+01 -0.483924077E+01
     4
 # iter = 76000  time[fs]=76.00000
   C -0.862741272E+01 -0.220903932E+00 -0.471724061E+00
   C  0.851801026E+01  0.237379587E+00  0.372301561E+00
   H -0.417546428E+02  0.511175242E+01  0.403438901E+01
   H  0.405020949E+02 -0.367584845E+01 -0.488255323E+01
     4
 # iter = 76500  time[fs]=76.50000
   C -0.870956749E+01 -0.223115922E+00 -0.476432572E+00
   C  0.859878938E+01  0.240118184E+00  0.376078120E+00
   H -0.421205826E+02  0.515699076E+01  0.406971272E+01
   H  0.408551929E+02 -0.370777318E+01 -0.492587274E+01
     4
 # iter = 77000  time[fs]=77.00000
   C -0.879175770E+01 -0.225329205E+00 -0.481143116E+00
   C  0.867960368E+01  0.242857977E+00  0.379856836E+00
   H -0.424865695E+02  0.520223559E+01  0.410504187E+01
   H  0.412083410E+02 -0.373970324E+01 -0.496919918E+01
     4
 # iter = 77500  time[fs]=77.50000
   C -0.887398268E+01 -0.227543756E+00 -0.485855659E+00
   C  0.876045252E+01  0.245598946E+00  0.383637672E+00
   H -0.428526028E+02  0.524748679E+01  0.414037639E+01
   H  0.415615384E+02 -0.377163855E+01 -0.501253244E+01
     4
 # iter = 78000  time[fs]=78.00000
   C -0.895624179E+01 -0.229759556E+00 -0.490570163E+00
   C  0.884133525E+01  0.248341070E+00  0.387420590E+00
   H -0.432186817E+02  0.529274426E+01  0.417571617E+01
   H  0.419147842E+02 -0.380357903E+01 -0.505587240E+01
     4
 # iter = 78500  time[fs]=78.50000
   C -0.903853440E+01 -0.231976584E+00 -0.495286596E+00
   C  0.892225124E+01  0.251084330E+00  0.391205554E+00
   H -0.435848055E+02  0.533800791E+01  0.421106113E+01
   H  0.422680777E+02 -0.383552457E+01 -0.509921896E+01
     4
 # iter = 79000  time[fs]=79.00000
   C -0.912085990E+01 -0.234194817E+00 -0.500004924E+00
   C  0.900319990E+01  0.253828707E+00  0.394992528E+00
   H -0.439509733E+02  0.538327762E+01  0.424641119E+01
   H  0.426214180E+02 -0.386747511E+01 -0.514257201E+01
     4
 # iter = 79500  time[fs]=79.50000
   C -0.920321770E+01 -0.236414238E+00 -0.504725113E+00
   C  0.908418063E+01  0.256574183E+00  0.398781478E+00
   H -0.443171844E+02  0.542855330E+01  0.428176627E+01
   H  0.429748044E+02 -0.389943057E+01 -0.518593144E+01
     4
 # iter = 80000  time[fs]=80.00000
   C -0.928560723E+01 -0.238634826E+00 -0.509447132E+00
   C  0.916519286E+01  0.259320739E+00  0.402572371E+00
   H -0.446834382E+02  0.547383486E+01  0.431712628E+01
   H  0.433282362E+02 -0.393139086E+01 -0.522929716E+01
