     4
 # iter = 25000  time[fs]=25.00000
   C -0.942391698E+00 -0.146012487E-01 -0.569799468E-01
   C  0.103717176E+01 -0.218390092E-01  0.134982055E-01
   H -0.520183341E+01 -0.505314071E+00  0.555072573E+00
   H  0.530304188E+01  0.628324590E+00 -0.366467207E+00
     4
 # iter = 25500  time[fs]=25.50000
   C -0.985237198E+00 -0.132724268E-01 -0.614860771E-01
   C  0.108227975E+01 -0.242005115E-01  0.149423064E-01
   H -0.553034428E+01 -0.536846866E+00  0.589633338E+00
   H  0.562170399E+01  0.668957639E+00 -0.392262264E+00
     4
 # iter = 26000  time[fs]=26.00000
   C -0.103099577E+01 -0.119130292E-01 -0.661309853E-01
   C  0.113023323E+01 -0.266188288E-01  0.165152241E-01
   H -0.586390022E+01 -0.568881375E+00  0.624785908E+00
   H  0.594622214E+01  0.710407276E+00 -0.418529592E+00
     4
 # iter = 26500  time[fs]=26.50000
   C -0.107942495E+01 -0.105220438E-01 -0.709054245E-01
   C  0.118079652E+01 -0.290922730E-01  0.182091999E-01
   H -0.620193914E+01 -0.601361471E+00  0.660463166E+00
   H  0.627595273E+01  0.752584966E+00 -0.445219934E+00
     4
 # iter = 27000  time[fs]=27.00000
   C -0.113029906E+01 -0.909900947E-02 -0.758006082E-01
   C  0.123374989E+01 -0.316189820E-01  0.200166531E-01
   H -0.654398297E+01 -0.634239563E+00  0.696608405E+00
   H  0.661034656E+01  0.795415245E+00 -0.472291052E+00
     4
 # iter = 27500  time[fs]=27.50000
   C -0.118341013E+01 -0.764392123E-02 -0.808082396E-01
   C  0.128889054E+01 -0.341969517E-01  0.219302741E-01
   H -0.688962239E+01 -0.667475013E+00  0.733173337E+00
   H  0.694893216E+01  0.838833363E+00 -0.499706504E+00
     4
 # iter = 28000  time[fs]=28.00000
   C -0.123856789E+01 -0.615713462E-02 -0.859205308E-01
   C  0.134603273E+01 -0.368240797E-01  0.239430909E-01
   H -0.723850484E+01 -0.701032882E+00  0.770116550E+00
   H  0.729130251E+01  0.882783418E+00 -0.527434668E+00
     4
 # iter = 28500  time[fs]=28.50000
   C -0.129559915E+01 -0.463927960E-02 -0.911302099E-01
   C  0.140500726E+01 -0.394982090E-01  0.260485113E-01
   H -0.759032490E+01 -0.734882944E+00  0.807402292E+00
   H  0.763710433E+01  0.927216861E+00 -0.555447950E+00
     4
 # iter = 29000  time[fs]=29.00000
   C -0.135434685E+01 -0.309118642E-02 -0.964305163E-01
   C  0.146566060E+01 -0.422171679E-01  0.282403459E-01
   H -0.794481654E+01 -0.768998899E+00  0.844999510E+00
   H  0.798602938E+01  0.972091296E+00 -0.583722151E+00
     4
 # iter = 29500  time[fs]=29.50000
   C -0.141466890E+01 -0.151382436E-02 -0.101815187E+00
   C  0.152785377E+01 -0.449788037E-01  0.305128148E-01
   H -0.830174686E+01 -0.803357740E+00  0.882881080E+00
   H  0.833780742E+01  0.101736951E+01 -0.612235942E+00
     4
 # iter = 30000  time[fs]=30.00000
   C -0.147643696E+01  0.917474736E-04 -0.107278436E+00
   C  0.159146118E+01 -0.477810081E-01  0.328605430E-01
   H -0.866091101E+01 -0.837939235E+00  0.921023183E+00
   H  0.869220043E+01  0.106301869E+01 -0.640970440E+00
     4
 # iter = 30500  time[fs]=30.50000
   C -0.153953514E+01  0.172441860E-02 -0.112814928E+00
   C  0.165636942E+01 -0.506217366E-01  0.352785476E-01
   H -0.902212797E+01 -0.872725513E+00  0.959404799E+00
   H  0.904899783E+01  0.110900974E+01 -0.669908856E+00
     4
 # iter = 31000  time[fs]=31.00000
   C -0.160385887E+01  0.338305667E-02 -0.118419750E+00
   C  0.172247609E+01 -0.534990225E-01  0.377622195E-01
   H -0.938523712E+01 -0.907700714E+00  0.998007296E+00
   H  0.940801260E+01  0.115531681E+01 -0.699036201E+00
     4
 # iter = 31500  time[fs]=31.50000
   C -0.166931367E+01  0.506652957E-02 -0.124088382E+00
   C  0.178968873E+01 -0.564109853E-01  0.403073024E-01
   H -0.975009535E+01 -0.942850709E+00  0.103681409E+01
   H  0.976907793E+01  0.120191677E+01 -0.728339044E+00
     4
 # iter = 32000  time[fs]=32.00000
   C -0.173581422E+01  0.677372164E-02 -0.129816669E+00
   C  0.185792376E+01 -0.593558356E-01  0.429098692E-01
   H -0.101165747E+02 -0.978162858E+00  0.107581035E+01
   H  0.101320446E+02  0.124878891E+01 -0.757805307E+00
     4
 # iter = 32500  time[fs]=32.50000
   C -0.180328328E+01  0.850354516E-02 -0.135600789E+00
   C  0.192710556E+01 -0.623318774E-01  0.455662987E-01
   H -0.104845603E+02 -0.101362581E+01  0.111498278E+01
   H  0.104967784E+02  0.129591457E+01 -0.787424091E+00
     4
 # iter = 33000  time[fs]=33.00000
   C -0.187165095E+01  0.102549483E-01 -0.141437229E+00
   C  0.199716567E+01 -0.653375080E-01  0.482732522E-01
   H -0.108539487E+02 -0.104922935E+01  0.115431941E+01
   H  0.108631586E+02  0.134327693E+01 -0.817185532E+00
     4
 # iter = 33500  time[fs]=33.50000
   C -0.194085379E+01  0.120269204E-01 -0.147322753E+00
   C  0.206804197E+01 -0.683712159E-01  0.510276511E-01
   H -0.112246466E+02 -0.108496424E+01  0.119380941E+01
   H  0.112310760E+02  0.139086074E+01 -0.847080674E+00
     4
 # iter = 34000  time[fs]=34.00000
   C -0.201083420E+01  0.138184947E-01 -0.153254385E+00
   C  0.213967806E+01 -0.714315785E-01  0.538266555E-01
   H -0.115965693E+02 -0.112082210E+01  0.123344298E+01
   H  0.116004317E+02  0.143865215E+01 -0.877101363E+00
     4
 # iter = 34500  time[fs]=34.50000
   C -0.208153976E+01  0.156287501E-01 -0.159229382E+00
   C  0.221202261E+01 -0.745172582E-01  0.566676442E-01
   H -0.119696399E+02 -0.115679532E+01  0.127321123E+01
   H  0.119711355E+02  0.148663855E+01 -0.907240157E+00
     4
 # iter = 35000  time[fs]=35.00000
   C -0.215292272E+01  0.174568113E-01 -0.165245213E+00
   C  0.228502886E+01 -0.776269984E-01  0.595481959E-01
   H -0.123437884E+02 -0.119287696E+01  0.131310603E+01
   H  0.123431055E+02  0.153480843E+01 -0.937490244E+00
     4
 # iter = 35500  time[fs]=35.50000
   C -0.222493948E+01  0.193018487E-01 -0.171299544E+00
   C  0.235865414E+01 -0.807596192E-01  0.624660725E-01
   H -0.127189507E+02 -0.122906067E+01  0.135311996E+01
   H  0.127162668E+02  0.158315123E+01 -0.967845375E+00
     4
 # iter = 36000  time[fs]=36.00000
   C -0.229755020E+01  0.211630767E-01 -0.177390215E+00
   C  0.243285942E+01 -0.839140130E-01  0.654192029E-01
   H -0.130950683E+02 -0.126534065E+01  0.139324624E+01
   H  0.130905506E+02  0.163165729E+01 -0.998299805E+00
     4
 # iter = 36500  time[fs]=36.50000
   C -0.237071836E+01  0.230397526E-01 -0.183515231E+00
   C  0.250760898E+01 -0.870891405E-01  0.684056688E-01
   H -0.134720873E+02 -0.130171155E+01  0.143347863E+01
   H  0.134658939E+02  0.168031769E+01 -0.102884824E+01
     4
 # iter = 37000  time[fs]=37.00000
   C -0.244441048E+01  0.249311748E-01 -0.189672740E+00
   C  0.258287004E+01 -0.902840257E-01  0.714236913E-01
   H -0.138499584E+02 -0.133816846E+01  0.147381138E+01
   H  0.138422388E+02  0.172912425E+01 -0.105948579E+01
     4
 # iter = 37500  time[fs]=37.50000
   C -0.251859578E+01  0.268366810E-01 -0.195861028E+00
   C  0.265861250E+01 -0.934977525E-01  0.744716196E-01
   H -0.142286360E+02 -0.137470685E+01  0.151423920E+01
   H  0.142195317E+02  0.177806938E+01 -0.109020794E+01
     4
 # iter = 38000  time[fs]=38.00000
   C -0.259324595E+01  0.287556458E-01 -0.202078503E+00
   C  0.273480862E+01 -0.967294603E-01  0.775479193E-01
   H -0.146080780E+02 -0.141132253E+01  0.155475721E+01
   H  0.145977233E+02  0.182714606E+01 -0.112101049E+01
     4
 # iter = 38500  time[fs]=38.50000
   C -0.266833488E+01  0.306874791E-01 -0.208323684E+00
   C  0.281143288E+01 -0.999783404E-01  0.806511630E-01
   H -0.149882453E+02 -0.144801162E+01  0.159536087E+01
   H  0.149767678E+02  0.187634781E+01 -0.115188955E+01
     4
 # iter = 39000  time[fs]=39.00000
   C -0.274383845E+01  0.326316241E-01 -0.214595194E+00
   C  0.288846167E+01 -0.103243633E+00  0.837800214E-01
   H -0.153691020E+02 -0.148477053E+01  0.163604599E+01
   H  0.153566228E+02  0.192566858E+01 -0.118284150E+01
     4
 # iter = 39500  time[fs]=39.50000
   C -0.281973437E+01  0.345875550E-01 -0.220891748E+00
   C  0.296587320E+01 -0.106524622E+00  0.869332549E-01
   H -0.157506145E+02 -0.152159592E+01  0.167680867E+01
   H  0.157372491E+02  0.197510275E+01 -0.121386297E+01
     4
 # iter = 40000  time[fs]=40.00000
   C -0.289600199E+01  0.365547756E-01 -0.227212150E+00
   C  0.304364727E+01 -0.109820635E+00  0.901097064E-01
   H -0.161327516E+02 -0.155848466E+01  0.171764526E+01
   H  0.161186098E+02  0.202464509E+01 -0.124495081E+01
     4
 # iter = 40500  time[fs]=40.50000
   C -0.297262216E+01  0.385328171E-01 -0.233555280E+00
   C  0.312176515E+01 -0.113131037E+00  0.933082945E-01
   H -0.165154842E+02 -0.159543387E+01  0.175855240E+01
   H  0.165006710E+02  0.207429072E+01 -0.127610208E+01
     4
 # iter = 41000  time[fs]=41.00000
   C -0.304957708E+01  0.405212366E-01 -0.239920094E+00
   C  0.320020944E+01 -0.116455231E+00  0.965280076E-01
   H -0.168987853E+02 -0.163244082E+01  0.179952691E+01
   H  0.168834008E+02  0.212403507E+01 -0.130731403E+01
     4
 # iter = 41500  time[fs]=41.50000
   C -0.312685020E+01  0.425196155E-01 -0.246305612E+00
   C  0.327896397E+01 -0.119792654E+00  0.997678981E-01
   H -0.172826296E+02 -0.166950300E+01  0.184056585E+01
   H  0.172667693E+02  0.217387386E+01 -0.133858408E+01
     4
 # iter = 42000  time[fs]=42.00000
   C -0.320442612E+01  0.445275579E-01 -0.252710917E+00
   C  0.335801366E+01 -0.123142773E+00  0.103027078E+00
   H -0.176669932E+02 -0.170661802E+01  0.188166643E+01
   H  0.176507488E+02  0.222380309E+01 -0.136990981E+01
     4
 # iter = 42500  time[fs]=42.50000
   C -0.328229046E+01  0.465446891E-01 -0.259135148E+00
   C  0.343734446E+01 -0.126505086E+00  0.106304712E+00
   H -0.180518541E+02 -0.174378367E+01  0.192282608E+01
   H  0.180353131E+02  0.227381900E+01 -0.140128895E+01
     4
 # iter = 43000  time[fs]=43.00000
   C -0.336042978E+01  0.485706546E-01 -0.265577497E+00
   C  0.351694326E+01 -0.129879117E+00  0.109600019E+00
   H -0.184371913E+02 -0.178099784E+01  0.196404235E+01
   H  0.184204377E+02  0.232391806E+01 -0.143271935E+01
     4
 # iter = 43500  time[fs]=43.50000
   C -0.343883154E+01  0.506051183E-01 -0.272037204E+00
   C  0.359679779E+01 -0.133264418E+00  0.112912260E+00
   H -0.188229854E+02 -0.181825859E+01  0.200531295E+01
   H  0.188060996E+02  0.237409694E+01 -0.146419900E+01
     4
 # iter = 44000  time[fs]=44.00000
   C -0.351748398E+01  0.526477618E-01 -0.278513555E+00
   C  0.367689656E+01 -0.136660563E+00  0.116240743E+00
   H -0.192092178E+02 -0.185556406E+01  0.204663573E+01
   H  0.191922772E+02  0.242435252E+01 -0.149572601E+01
     4
 # iter = 44500  time[fs]=44.50000
   C -0.359637609E+01  0.546982831E-01 -0.285005876E+00
   C  0.375722882E+01 -0.140067149E+00  0.119584813E+00
   H -0.195958713E+02 -0.189291251E+01  0.208800866E+01
   H  0.195789500E+02  0.247468183E+01 -0.152729858E+01
     4
 # iter = 45000  time[fs]=45.00000
   C -0.367549753E+01  0.567563956E-01 -0.291513531E+00
   C  0.383778446E+01 -0.143483794E+00  0.122943854E+00
   H -0.199829295E+02 -0.193030230E+01  0.212942982E+01
   H  0.199660988E+02  0.252508210E+01 -0.155891501E+01
     4
 # iter = 45500  time[fs]=45.50000
   C -0.375483859E+01  0.588218272E-01 -0.298035921E+00
   C  0.391855400E+01 -0.146910135E+00  0.126317284E+00
   H -0.203703769E+02 -0.196773188E+01  0.217089740E+01
   H  0.203537055E+02  0.257555069E+01 -0.159057371E+01
     4
 # iter = 46000  time[fs]=46.00000
   C -0.383439013E+01  0.608943192E-01 -0.304572481E+00
   C  0.399952854E+01 -0.150345829E+00  0.129704553E+00
   H -0.207581991E+02 -0.200519977E+01  0.221240969E+01
   H  0.207417530E+02  0.262608510E+01 -0.162227315E+01
     4
 # iter = 46500  time[fs]=46.50000
   C -0.391414357E+01  0.629736258E-01 -0.311122674E+00
   C  0.408069966E+01 -0.153790550E+00  0.133105140E+00
   H -0.211463822E+02 -0.204270461E+01  0.225396507E+01
   H  0.211302249E+02  0.267668299E+01 -0.165401191E+01
     4
 # iter = 47000  time[fs]=47.00000
   C -0.399409080E+01  0.650595131E-01 -0.317685995E+00
   C  0.416205947E+01 -0.157243985E+00  0.136518552E+00
   H -0.215349133E+02 -0.208024506E+01  0.229556202E+01
   H  0.215191061E+02  0.272734210E+01 -0.168578861E+01
     4
 # iter = 47500  time[fs]=47.50000
   C -0.407422418E+01  0.671517585E-01 -0.324261962E+00
   C  0.424360051E+01 -0.160705840E+00  0.139944324E+00
   H -0.219237798E+02 -0.211781988E+01  0.233719907E+01
   H  0.219083818E+02  0.277806033E+01 -0.171760195E+01
     4
 # iter = 48000  time[fs]=48.00000
   C -0.415453650E+01  0.692501499E-01 -0.330850122E+00
   C  0.432531572E+01 -0.164175833E+00  0.143382012E+00
   H -0.223129701E+02 -0.215542790E+01  0.237887486E+01
   H  0.222980384E+02  0.282883566E+01 -0.174945072E+01
     4
 # iter = 48500  time[fs]=48.50000
   C -0.423502092E+01  0.713544851E-01 -0.337450042E+00
   C  0.440719846E+01 -0.167653696E+00  0.146831197E+00
   H -0.227024732E+02 -0.219306798E+01  0.242058806E+01
   H  0.226880628E+02  0.287966617E+01 -0.178133375E+01
     4
 # iter = 49000  time[fs]=49.00000
   C -0.431567102E+01  0.734645716E-01 -0.344061313E+00
   C  0.448924244E+01 -0.171139175E+00  0.150291480E+00
   H -0.230922783E+02 -0.223073906E+01  0.246233744E+01
   H  0.230784424E+02  0.293055004E+01 -0.181324990E+01
     4
 # iter = 49500  time[fs]=49.50000
   C -0.439648066E+01  0.755802253E-01 -0.350683546E+00
   C  0.457144169E+01 -0.174632024E+00  0.153762481E+00
   H -0.234823756E+02 -0.226844013E+01  0.250412180E+01
   H  0.234691655E+02  0.298148555E+01 -0.184519814E+01
     4
 # iter = 50000  time[fs]=50.00000
   C -0.447744408E+01  0.777012706E-01 -0.357316370E+00
   C  0.465379056E+01 -0.178132012E+00  0.157243841E+00
   H -0.238727553E+02 -0.230617022E+01  0.254594003E+01
   H  0.238602209E+02  0.303247104E+01 -0.187717744E+01
     4
 # iter = 50500  time[fs]=50.50000
   C -0.455855578E+01  0.798275399E-01 -0.363959432E+00
   C  0.473628371E+01 -0.181638916E+00  0.160735215E+00
   H -0.242634084E+02 -0.234392840E+01  0.258779105E+01
   H  0.242515977E+02  0.308350493E+01 -0.190918685E+01
     4
 # iter = 51000  time[fs]=51.00000
   C -0.463981055E+01  0.819588728E-01 -0.370612398E+00
   C  0.481891604E+01 -0.185152525E+00  0.164236277E+00
   H -0.246543263E+02 -0.238171380E+01  0.262967383E+01
   H  0.246432859E+02  0.313458573E+01 -0.194122543E+01
     4
 # iter = 51500  time[fs]=51.50000
   C -0.472120345E+01  0.840951159E-01 -0.377274947E+00
   C  0.490168275E+01 -0.188672635E+00  0.167746716E+00
   H -0.250455006E+02 -0.241952558E+01  0.267158739E+01
   H  0.250352756E+02  0.318571201E+01 -0.197329232E+01
     4
 # iter = 52000  time[fs]=52.00000
   C -0.480272976E+01  0.862361227E-01 -0.383946774E+00
   C  0.498457922E+01 -0.192199053E+00  0.171266234E+00
   H -0.254369234E+02 -0.245736294E+01  0.271353081E+01
   H  0.254275575E+02  0.323688239E+01 -0.200538667E+01
     4
 # iter = 52500  time[fs]=52.50000
   C -0.488438502E+01  0.883817525E-01 -0.390627590E+00
   C  0.506760112E+01 -0.195731592E+00  0.174794548E+00
   H -0.258285873E+02 -0.249522511E+01  0.275550319E+01
   H  0.258201228E+02  0.328809556E+01 -0.203750767E+01
     4
 # iter = 53000  time[fs]=53.00000
   C -0.496616496E+01  0.905318709E-01 -0.397317114E+00
   C  0.515074427E+01 -0.199270075E+00  0.178331386E+00
   H -0.262204850E+02 -0.253311137E+01  0.279750368E+01
   H  0.262129630E+02  0.333935029E+01 -0.206965457E+01
     4
 # iter = 53500  time[fs]=53.50000
   C -0.504806552E+01  0.926863488E-01 -0.404015083E+00
   C  0.523400472E+01 -0.202814332E+00  0.181876490E+00
   H -0.266126095E+02 -0.257102101E+01  0.283953146E+01
   H  0.266060700E+02  0.339064536E+01 -0.210182661E+01
     4
 # iter = 54000  time[fs]=54.00000
   C -0.513008283E+01  0.948450627E-01 -0.410721242E+00
   C  0.531737870E+01 -0.206364198E+00  0.185429612E+00
   H -0.270049544E+02 -0.260895336E+01  0.288158575E+01
   H  0.269994360E+02  0.344197963E+01 -0.213402310E+01
     4
 # iter = 54500  time[fs]=54.50000
   C -0.521221321E+01  0.970078940E-01 -0.417435348E+00
   C  0.540086261E+01 -0.209919517E+00  0.188990515E+00
   H -0.273975133E+02 -0.264690779E+01  0.292366580E+01
   H  0.273930536E+02  0.349335200E+01 -0.216624336E+01
     4
 # iter = 55000  time[fs]=55.00000
   C -0.529445312E+01  0.991747286E-01 -0.424157170E+00
   C  0.548445301E+01 -0.213480139E+00  0.192558973E+00
   H -0.277902801E+02 -0.268488367E+01  0.296577090E+01
   H  0.277869156E+02  0.354476142E+01 -0.219848674E+01
     4
 # iter = 55500  time[fs]=55.50000
   C -0.537679920E+01  0.101345457E+00 -0.430886483E+00
   C  0.556814662E+01 -0.217045919E+00  0.196134768E+00
   H -0.281832491E+02 -0.272288042E+01  0.300790035E+01
   H  0.281810152E+02  0.359620687E+01 -0.223075261E+01
     4
 # iter = 56000  time[fs]=56.00000
   C -0.545924824E+01  0.103519975E+00 -0.437623076E+00
   C  0.565194032E+01 -0.220616718E+00  0.199717692E+00
   H -0.285764146E+02 -0.276089747E+01  0.305005350E+01
   H  0.285753460E+02  0.364768739E+01 -0.226304038E+01
     4
 # iter = 56500  time[fs]=56.50000
   C -0.554179714E+01  0.105698181E+00 -0.444366743E+00
   C  0.573583109E+01 -0.224192403E+00  0.203307545E+00
   H -0.289697714E+02 -0.279893427E+01  0.309222971E+01
   H  0.289699015E+02  0.369920203E+01 -0.229534947E+01
     4
 # iter = 57000  time[fs]=57.00000
   C -0.562444297E+01  0.107879978E+00 -0.451117288E+00
   C  0.581981606E+01 -0.227772846E+00  0.206904136E+00
   H -0.293633143E+02 -0.283699032E+01  0.313442837E+01
   H  0.293646757E+02  0.375074992E+01 -0.232767933E+01
     4
 # iter = 57500  time[fs]=57.50000
   C -0.570718291E+01  0.110065273E+00 -0.457874523E+00
   C  0.590389250E+01 -0.231357924E+00  0.210507281E+00
   H -0.297570384E+02 -0.287506509E+01  0.317664890E+01
   H  0.297596629E+02  0.380233017E+01 -0.236002942E+01
     4
 # iter = 58000  time[fs]=58.00000
   C -0.579001425E+01  0.112253975E+00 -0.464638267E+00
   C  0.598805776E+01 -0.234947517E+00  0.214116802E+00
   H -0.301509390E+02 -0.291315811E+01  0.321889074E+01
   H  0.301548575E+02  0.385394197E+01 -0.239239924E+01
     4
 # iter = 58500  time[fs]=58.50000
   C -0.587293441E+01  0.114445999E+00 -0.471408346E+00
   C  0.607230933E+01 -0.238541511E+00  0.217732532E+00
   H -0.305450114E+02 -0.295126892E+01  0.326115334E+01
   H  0.305502542E+02  0.390558452E+01 -0.242478829E+01
     4
 # iter = 59000  time[fs]=59.00000
   C -0.595594089E+01  0.116641260E+00 -0.478184593E+00
   C  0.615664477E+01 -0.242139796E+00  0.221354305E+00
   H -0.309392514E+02 -0.298939707E+01  0.330343618E+01
   H  0.309458476E+02  0.395725705E+01 -0.245719609E+01
     4
 # iter = 59500  time[fs]=59.50000
   C -0.603903132E+01  0.118839678E+00 -0.484966847E+00
   C  0.624106178E+01 -0.245742266E+00  0.224981966E+00
   H -0.313336547E+02 -0.302754212E+01  0.334573876E+01
   H  0.313416330E+02  0.400895881E+01 -0.248962220E+01
     4
 # iter = 60000  time[fs]=60.00000
   C -0.612220341E+01  0.121041177E+00 -0.491754954E+00
   C  0.632555812E+01 -0.249348819E+00  0.228615363E+00
   H -0.317282172E+02 -0.306570367E+01  0.338806060E+01
   H  0.317376055E+02  0.406068910E+01 -0.252206615E+01
     4
 # iter = 60500  time[fs]=60.50000
   C -0.620545494E+01  0.123245680E+00 -0.498548765E+00
   C  0.641013166E+01 -0.252959356E+00  0.232254351E+00
   H -0.321229351E+02 -0.310388131E+01  0.343040123E+01
   H  0.321337606E+02  0.411244723E+01 -0.255452754E+01
     4
 # iter = 61000  time[fs]=61.00000
   C -0.628878382E+01  0.125453117E+00 -0.505348137E+00
   C  0.649478032E+01 -0.256573781E+00  0.235898789E+00
   H -0.325178045E+02 -0.314207466E+01  0.347276019E+01
   H  0.325300937E+02  0.416423254E+01 -0.258700595E+01
     4
 # iter = 61500  time[fs]=61.50000
   C -0.637218801E+01  0.127663417E+00 -0.512152932E+00
   C  0.657950213E+01 -0.260192003E+00  0.239548543E+00
   H -0.329128218E+02 -0.318028335E+01  0.351513707E+01
   H  0.329266006E+02  0.421604438E+01 -0.261950099E+01
     4
 # iter = 62000  time[fs]=62.00000
   C -0.645566556E+01  0.129876513E+00 -0.518963015E+00
   C  0.666429520E+01 -0.263813933E+00  0.243203483E+00
   H -0.333079835E+02 -0.321850701E+01  0.355753142E+01
   H  0.333232771E+02  0.426788214E+01 -0.265201227E+01
     4
 # iter = 62500  time[fs]=62.50000
   C -0.653921457E+01  0.132092341E+00 -0.525778260E+00
   C  0.674915768E+01 -0.267439486E+00  0.246863483E+00
   H -0.337032863E+02 -0.325674530E+01  0.359994287E+01
   H  0.337201194E+02  0.431974522E+01 -0.268453941E+01
     4
 # iter = 63000  time[fs]=63.00000
   C -0.662283325E+01  0.134310837E+00 -0.532598543E+00
   C  0.683408782E+01 -0.271068578E+00  0.250528422E+00
   H -0.340987268E+02 -0.329499789E+01  0.364237100E+01
   H  0.341171234E+02  0.437163304E+01 -0.271708207E+01
     4
 # iter = 63500  time[fs]=63.50000
   C -0.670651984E+01  0.136531941E+00 -0.539423743E+00
   C  0.691908391E+01 -0.274701129E+00  0.254198184E+00
   H -0.344943020E+02 -0.333326445E+01  0.368481545E+01
   H  0.345142856E+02  0.442354506E+01 -0.274963990E+01
     4
 # iter = 64000  time[fs]=64.00000
   C -0.679027267E+01  0.138755595E+00 -0.546253746E+00
   C  0.700414433E+01 -0.278337062E+00  0.257872655E+00
   H -0.348900086E+02 -0.337154467E+01  0.372727586E+01
   H  0.349116023E+02  0.447548072E+01 -0.278221257E+01
     4
 # iter = 64500  time[fs]=64.50000
   C -0.687409011E+01  0.140981741E+00 -0.553088440E+00
   C  0.708926748E+01 -0.281976302E+00  0.261551726E+00
   H -0.352858439E+02 -0.340983825E+01  0.376975185E+01
   H  0.353090701E+02  0.452743952E+01 -0.281479974E+01
     4
 # iter = 65000  time[fs]=65.00000
   C -0.695797059E+01  0.143210325E+00 -0.559927717E+00
   C  0.717445185E+01 -0.285618776E+00  0.265235293E+00
   H -0.356818049E+02 -0.344814489E+01  0.381224311E+01
   H  0.357066855E+02  0.457942094E+01 -0.284740112E+01
     4
 # iter = 65500  time[fs]=65.50000
   C -0.704191262E+01  0.145441293E+00 -0.566771474E+00
   C  0.725969598E+01 -0.289264415E+00  0.268923253E+00
   H -0.360778889E+02 -0.348646432E+01  0.385474929E+01
   H  0.361044454E+02  0.463142449E+01 -0.288001639E+01
     4
 # iter = 66000  time[fs]=66.00000
   C -0.712591473E+01  0.147674595E+00 -0.573619610E+00
   C  0.734499843E+01 -0.292913150E+00  0.272615509E+00
   H -0.364740932E+02 -0.352479625E+01  0.389727008E+01
   H  0.365023466E+02  0.468344971E+01 -0.291264526E+01
     4
 # iter = 66500  time[fs]=66.50000
   C -0.720997551E+01  0.149910181E+00 -0.580472027E+00
   C  0.743035786E+01 -0.296564915E+00  0.276311964E+00
   H -0.368704152E+02 -0.356314043E+01  0.393980516E+01
   H  0.369003861E+02  0.473549614E+01 -0.294528744E+01
     4
 # iter = 67000  time[fs]=67.00000
   C -0.729409361E+01  0.152148001E+00 -0.587328632E+00
   C  0.751577292E+01 -0.300219648E+00  0.280012527E+00
   H -0.372668525E+02 -0.360149659E+01  0.398235425E+01
   H  0.372985609E+02  0.478756333E+01 -0.297794267E+01
     4
 # iter = 67500  time[fs]=67.50000
   C -0.737826772E+01  0.154388010E+00 -0.594189333E+00
   C  0.760124235E+01 -0.303877285E+00  0.283717109E+00
   H -0.376634025E+02 -0.363986448E+01  0.402491703E+01
   H  0.376968681E+02  0.483965086E+01 -0.301061067E+01
     4
 # iter = 68000  time[fs]=68.00000
   C -0.746249656E+01  0.156630162E+00 -0.601054042E+00
   C  0.768676492E+01 -0.307537767E+00  0.287425624E+00
   H -0.380600630E+02 -0.367824388E+01  0.406749325E+01
   H  0.380953050E+02  0.489175831E+01 -0.304329119E+01
     4
 # iter = 68500  time[fs]=68.50000
   C -0.754677891E+01  0.158874412E+00 -0.607922674E+00
   C  0.777233942E+01 -0.311201036E+00  0.291137987E+00
   H -0.384568317E+02 -0.371663453E+01  0.411008261E+01
   H  0.384938690E+02  0.494388527E+01 -0.307598397E+01
     4
 # iter = 69000  time[fs]=69.00000
   C -0.763111359E+01  0.161120720E+00 -0.614795146E+00
   C  0.785796470E+01 -0.314867036E+00  0.294854117E+00
   H -0.388537063E+02 -0.375503621E+01  0.415268487E+01
   H  0.388925573E+02  0.499603135E+01 -0.310868877E+01
     4
 # iter = 69500  time[fs]=69.50000
   C -0.771549943E+01  0.163369042E+00 -0.621671378E+00
   C  0.794363965E+01 -0.318535711E+00  0.298573937E+00
   H -0.392506848E+02 -0.379344871E+01  0.419529975E+01
   H  0.392913676E+02  0.504819617E+01 -0.314140536E+01
     4
 # iter = 70000  time[fs]=70.00000
   C -0.779993533E+01  0.165619339E+00 -0.628551292E+00
   C  0.802936319E+01 -0.322207009E+00  0.302297370E+00
   H -0.396477650E+02 -0.383187181E+01  0.423792701E+01
   H  0.396902973E+02  0.510037937E+01 -0.317413349E+01
     4
 # iter = 70500  time[fs]=70.50000
   C -0.788442022E+01  0.167871572E+00 -0.635434812E+00
   C  0.811513426E+01 -0.325880878E+00  0.306024342E+00
   H -0.400449449E+02 -0.387030530E+01  0.428056641E+01
   H  0.400893441E+02  0.515258059E+01 -0.320687296E+01
     4
 # iter = 71000  time[fs]=71.00000
   C -0.796895304E+01  0.170125703E+00 -0.642321866E+00
   C  0.820095185E+01 -0.329557268E+00  0.309754782E+00
   H -0.404422226E+02 -0.390874899E+01  0.432321771E+01
   H  0.404885057E+02  0.520479947E+01 -0.323962354E+01
     4
 # iter = 71500  time[fs]=71.50000
   C -0.805353280E+01  0.172381695E+00 -0.649212382E+00
   C  0.828681498E+01 -0.333236130E+00  0.313488620E+00
   H -0.408395962E+02 -0.394720266E+01  0.436588069E+01
   H  0.408877798E+02  0.525703568E+01 -0.327238503E+01
     4
 # iter = 72000  time[fs]=72.00000
   C -0.813815850E+01  0.174639512E+00 -0.656106292E+00
   C  0.837272270E+01 -0.336917418E+00  0.317225789E+00
   H -0.412370637E+02 -0.398566614E+01  0.440855512E+01
   H  0.412871642E+02  0.530928889E+01 -0.330515721E+01
     4
 # iter = 72500  time[fs]=72.50000
   C -0.822282920E+01  0.176899120E+00 -0.663003528E+00
   C  0.845867408E+01 -0.340601085E+00  0.320966223E+00
   H -0.416346235E+02 -0.402413924E+01  0.445124079E+01
   H  0.416866570E+02  0.536155879E+01 -0.333793989E+01
     4
 # iter = 73000  time[fs]=73.00000
   C -0.830754398E+01  0.179160485E+00 -0.669904026E+00
   C  0.854466823E+01 -0.344287086E+00  0.324709858E+00
   H -0.420322738E+02 -0.406262178E+01  0.449393748E+01
   H  0.420862559E+02  0.541384505E+01 -0.337073287E+01
     4
 # iter = 73500  time[fs]=73.50000
   C -0.839230194E+01  0.181423574E+00 -0.676807723E+00
   C  0.863070427E+01 -0.347975378E+00  0.328456634E+00
   H -0.424300129E+02 -0.410111359E+01  0.453664500E+01
   H  0.424859590E+02  0.546614739E+01 -0.340353598E+01
     4
 # iter = 74000  time[fs]=74.00000
   C -0.847710222E+01  0.183688355E+00 -0.683714558E+00
   C  0.871678137E+01 -0.351665919E+00  0.332206489E+00
   H -0.428278391E+02 -0.413961449E+01  0.457936314E+01
   H  0.428857644E+02  0.551846550E+01 -0.343634901E+01
     4
 # iter = 74500  time[fs]=74.50000
   C -0.856194397E+01  0.185954797E+00 -0.690624470E+00
   C  0.880289871E+01 -0.355358667E+00  0.335959366E+00
   H -0.432257508E+02 -0.417812432E+01  0.462209171E+01
   H  0.432856702E+02  0.557079910E+01 -0.346917180E+01
     4
 # iter = 75000  time[fs]=75.00000
   C -0.864682638E+01  0.188222870E+00 -0.697537402E+00
   C  0.888905549E+01 -0.359053584E+00  0.339715207E+00
   H -0.436237465E+02 -0.421664292E+01  0.466483053E+01
   H  0.436856746E+02  0.562314791E+01 -0.350200417E+01
     4
 # iter = 75500  time[fs]=75.50000
   C -0.873174865E+01  0.190492544E+00 -0.704453298E+00
   C  0.897525094E+01 -0.362750629E+00  0.343473958E+00
   H -0.440218247E+02 -0.425517013E+01  0.470757940E+01
   H  0.440857757E+02  0.567551166E+01 -0.353484595E+01
     4
 # iter = 76000  time[fs]=76.00000
   C -0.881671002E+01  0.192763791E+00 -0.711372102E+00
   C  0.906148431E+01 -0.366449765E+00  0.347235564E+00
   H -0.444199838E+02 -0.429370580E+01  0.475033817E+01
   H  0.444859719E+02  0.572789009E+01 -0.356769699E+01
     4
 # iter = 76500  time[fs]=76.50000
   C -0.890170972E+01  0.195036583E+00 -0.718293762E+00
   C  0.914775488E+01 -0.370150954E+00  0.350999974E+00
   H -0.448182225E+02 -0.433224978E+01  0.479310664E+01
   H  0.448862614E+02  0.578028294E+01 -0.360055710E+01
     4
 # iter = 77000  time[fs]=77.00000
   C -0.898674704E+01  0.197310892E+00 -0.725218226E+00
   C  0.923406192E+01 -0.373854162E+00  0.354767138E+00
   H -0.452165394E+02 -0.437080193E+01  0.483588465E+01
   H  0.452866425E+02  0.583268996E+01 -0.363342615E+01
     4
 # iter = 77500  time[fs]=77.50000
   C -0.907182127E+01  0.199586693E+00 -0.732145443E+00
   C  0.932040477E+01 -0.377559353E+00  0.358537004E+00
   H -0.456149330E+02 -0.440936211E+01  0.487867204E+01
   H  0.456871138E+02  0.588511091E+01 -0.366630398E+01
     4
 # iter = 78000  time[fs]=78.00000
   C -0.915693171E+01  0.201863958E+00 -0.739075364E+00
   C  0.940678274E+01 -0.381266492E+00  0.362309526E+00
   H -0.460134021E+02 -0.444793017E+01  0.492146864E+01
   H  0.460876736E+02  0.593754554E+01 -0.369919044E+01
     4
 # iter = 78500  time[fs]=78.50000
   C -0.924207770E+01  0.204142664E+00 -0.746007942E+00
   C  0.949319519E+01 -0.384975547E+00  0.366084656E+00
   H -0.464119453E+02 -0.448650599E+01  0.496427431E+01
   H  0.464883204E+02  0.598999364E+01 -0.373208538E+01
     4
 # iter = 79000  time[fs]=79.00000
   C -0.932725859E+01  0.206422786E+00 -0.752943129E+00
   C  0.957964148E+01 -0.388686485E+00  0.369862349E+00
   H -0.468105614E+02 -0.452508943E+01  0.500708888E+01
   H  0.468890527E+02  0.604245496E+01 -0.376498866E+01
     4
 # iter = 79500  time[fs]=79.50000
   C -0.941247373E+01  0.208704300E+00 -0.759880880E+00
   C  0.966612100E+01 -0.392399274E+00  0.373642560E+00
   H -0.472092492E+02 -0.456368037E+01  0.504991221E+01
   H  0.472898691E+02  0.609492930E+01 -0.379790016E+01
     4
 # iter = 80000  time[fs]=80.00000
   C -0.949772252E+01  0.210987182E+00 -0.766821152E+00
   C  0.975263314E+01 -0.396113884E+00  0.377425246E+00
   H -0.476080074E+02 -0.460227869E+01  0.509274416E+01
   H  0.476907682E+02  0.614741644E+01 -0.383081972E+01
