     4
 # iter = 25000  time[fs]=25.00000
   C -0.967126135E+00  0.387058239E-01 -0.142781436E-01
   C  0.996678581E+00 -0.308041109E-01  0.143884435E-01
   H -0.518978382E+01 -0.360242227E+00 -0.161452536E+00
   H  0.536460612E+01 -0.241298081E+00 -0.422911042E+00
     4
 # iter = 25500  time[fs]=25.50000
   C -0.101183199E+01  0.416251521E-01 -0.134882421E-01
   C  0.104096878E+01 -0.300033381E-01  0.165316935E-01
   H -0.552392129E+01 -0.382847266E+00 -0.170605381E+00
   H  0.568102723E+01 -0.252830778E+00 -0.448820988E+00
     4
 # iter = 26000  time[fs]=26.00000
   C -0.105957631E+01  0.446900507E-01 -0.127259688E-01
   C  0.108831432E+01 -0.292923442E-01  0.187551414E-01
   H -0.586366207E+01 -0.405885450E+00 -0.179925703E+00
   H  0.600284919E+01 -0.264599829E+00 -0.475194293E+00
     4
 # iter = 26500  time[fs]=26.50000
   C -0.111010365E+01  0.478855460E-01 -0.119894447E-01
   C  0.113845432E+01 -0.286625190E-01  0.210512711E-01
   H -0.620836464E+01 -0.429306456E+00 -0.189394207E+00
   H  0.632949564E+01 -0.276579193E+00 -0.501982608E+00
     4
 # iter = 27000  time[fs]=27.00000
   C -0.116317575E+01  0.511984124E-01 -0.112767947E-01
   C  0.119114645E+01 -0.281060059E-01  0.234133989E-01
   H -0.655748603E+01 -0.453068026E+00 -0.198994617E+00
   H  0.666047259E+01 -0.288746701E+00 -0.529144504E+00
     4
 # iter = 27500  time[fs]=27.50000
   C -0.121857286E+01  0.546169797E-01 -0.105862020E-01
   C  0.124616786E+01 -0.276157000E-01  0.258355777E-01
   H -0.691056353E+01 -0.477134371E+00 -0.208713104E+00
   H  0.699535418E+01 -0.301083359E+00 -0.556644249E+00
     4
 # iter = 28000  time[fs]=28.00000
   C -0.127609391E+01  0.581309524E-01 -0.991594135E-02
   C  0.130331520E+01 -0.271852170E-01  0.283125122E-01
   H -0.726720024E+01 -0.501474932E+00 -0.218537828E+00
   H  0.733377131E+01 -0.313572792E+00 -0.584450839E+00
     4
 # iter = 28500  time[fs]=28.50000
   C -0.133555605E+01  0.617312456E-01 -0.926439803E-02
   C  0.136240384E+01 -0.268088451E-01  0.308394830E-01
   H -0.762705362E+01 -0.526063429E+00 -0.228458587E+00
   H  0.767540244E+01 -0.326200799E+00 -0.612537223E+00
     4
 # iter = 29000  time[fs]=29.00000
   C -0.139679361E+01  0.654098350E-01 -0.863007565E-02
   C  0.142326682E+01 -0.264814883E-01  0.334122796E-01
   H -0.798982637E+01 -0.550877111E+00 -0.238466536E+00
   H  0.801996601E+01 -0.338954998E+00 -0.640879674E+00
     4
 # iter = 29500  time[fs]=29.50000
   C -0.145965698E+01  0.691596251E-01 -0.801159751E-02
   C  0.148575353E+01 -0.261986065E-01  0.360271394E-01
   H -0.835525903E+01 -0.575896158E+00 -0.248553964E+00
   H  0.836721438E+01 -0.351824536E+00 -0.669457275E+00
     4
 # iter = 30000  time[fs]=30.00000
   C -0.152401118E+01  0.729743307E-01 -0.740770336E-02
   C  0.154972826E+01 -0.259561579E-01  0.386806956E-01
   H -0.872312403E+01 -0.601103209E+00 -0.258714110E+00
   H  0.871692878E+01 -0.364799860E+00 -0.698251507E+00
     4
 # iter = 30500  time[fs]=30.50000
   C -0.158973459E+01  0.768483739E-01 -0.681724360E-02
   C  0.161506886E+01 -0.257505433E-01  0.413699298E-01
   H -0.909322080E+01 -0.626482975E+00 -0.268941017E+00
   H  0.906891508E+01 -0.377872513E+00 -0.727245900E+00
     4
 # iter = 31000  time[fs]=31.00000
   C -0.165671762E+01  0.807767945E-01 -0.623917183E-02
   C  0.168166535E+01 -0.255785556E-01  0.440921308E-01
   H -0.946537183E+01 -0.652021925E+00 -0.279229414E+00
   H  0.942300042E+01 -0.391034987E+00 -0.756425750E+00
     4
 # iter = 31500  time[fs]=31.50000
   C -0.172486150E+01  0.847551713E-01 -0.567253695E-02
   C  0.174941868E+01 -0.254373339E-01  0.468448588E-01
   H -0.983941930E+01 -0.677708034E+00 -0.289574615E+00
   H  0.977903024E+01 -0.404280583E+00 -0.785777876E+00
     4
 # iter = 32000  time[fs]=32.00000
   C -0.179407712E+01  0.887795542E-01 -0.511647498E-02
   C  0.181823957E+01 -0.253243227E-01  0.496259133E-01
   H -0.102152224E+02 -0.703530567E+00 -0.299972437E+00
   H  0.101368659E+02 -0.417603305E+00 -0.815290424E+00
     4
 # iter = 32500  time[fs]=32.50000
   C -0.186428402E+01  0.928464059E-01 -0.457020116E-02
   C  0.188804744E+01 -0.252372351E-01  0.524333060E-01
   H -0.105926549E+02 -0.729479904E+00 -0.310419133E+00
   H  0.104963825E+02 -0.430997763E+00 -0.844952699E+00
     4
 # iter = 33000  time[fs]=33.00000
   C -0.193540945E+01  0.969525506E-01 -0.403300250E-02
   C  0.195876949E+01 -0.251740213E-01  0.552652360E-01
   H -0.109716034E+02 -0.755547392E+00 -0.320911335E+00
   H  0.108574675E+02 -0.444459101E+00 -0.874755015E+00
     4
 # iter = 33500  time[fs]=33.50000
   C -0.200738755E+01  0.101095130E+00 -0.350423075E-02
   C  0.203033984E+01 -0.251328401E-01  0.581200691E-01
   H -0.113519658E+02 -0.781725222E+00 -0.331446001E+00
   H  0.112200187E+02 -0.457982928E+00 -0.904688580E+00
     4
 # iter = 34000  time[fs]=34.00000
   C -0.208015859E+01  0.105271567E+00 -0.298329606E-02
   C  0.210269876E+01 -0.251120345E-01  0.609963190E-01
   H -0.117336493E+02 -0.808006323E+00 -0.342020381E+00
   H  0.115839435E+02 -0.471565258E+00 -0.934745388E+00
     4
 # iter = 34500  time[fs]=34.50000
   C -0.215366830E+01  0.109479529E+00 -0.246966109E-02
   C  0.217579203E+01 -0.251101102E-01  0.638926313E-01
   H -0.121165702E+02 -0.834384274E+00 -0.352631977E+00
   H  0.119491574E+02 -0.485202469E+00 -0.964918131E+00
     4
 # iter = 35000  time[fs]=35.00000
   C -0.222786733E+01  0.113716904E+00 -0.196283580E-02
   C  0.224957036E+01 -0.251257168E-01  0.668077689E-01
   H -0.125006520E+02 -0.860853224E+00 -0.363278517E+00
   H  0.123155834E+02 -0.498891256E+00 -0.995200120E+00
     4
 # iter = 35500  time[fs]=35.50000
   C -0.230271067E+01  0.117981770E+00 -0.146237267E-02
   C  0.232398881E+01 -0.251576313E-01  0.697406001E-01
   H -0.128858250E+02 -0.887407834E+00 -0.373957924E+00
   H  0.126831509E+02 -0.512628598E+00 -0.102558522E+01
     4
 # iter = 36000  time[fs]=36.00000
   C -0.237815724E+01  0.122272381E+00 -0.967862448E-03
   C  0.239900638E+01 -0.252047439E-01  0.726900871E-01
   H -0.132720256E+02 -0.914043213E+00 -0.384668301E+00
   H  0.130517952E+02 -0.526411726E+00 -0.105606778E+01
     4
 # iter = 36500  time[fs]=36.50000
   C -0.245416946E+01  0.126587142E+00 -0.478930367E-03
   C  0.247458559E+01 -0.252660456E-01  0.756552768E-01
   H -0.136591952E+02 -0.940754871E+00 -0.395407906E+00
   H  0.134214568E+02 -0.540238095E+00 -0.108664261E+01
     4
 # iter = 37000  time[fs]=37.00000
   C -0.253071291E+01  0.130924593E+00  0.476728676E-05
   C  0.255069210E+01 -0.253406169E-01  0.786352919E-01
   H -0.140472802E+02 -0.967538680E+00 -0.406175137E+00
   H  0.137920809E+02 -0.554105365E+00 -0.111730490E+01
     4
 # iter = 37500  time[fs]=37.50000
   C -0.260775599E+01  0.135283397E+00  0.483546197E-03
   C  0.262729441E+01 -0.254276183E-01  0.816293236E-01
   H -0.144362311E+02 -0.994390833E+00 -0.416968519E+00
   H  0.141636169E+02 -0.568011376E+00 -0.114805022E+01
     4
 # iter = 38000  time[fs]=38.00000
   C -0.268526964E+01  0.139662329E+00  0.957696740E-03
   C  0.270436356E+01 -0.255262821E-01  0.846366250E-01
   H -0.148260024E+02 -0.102130781E+01 -0.427786690E+00
   H  0.145360181E+02 -0.581954129E+00 -0.117887445E+01
     4
 # iter = 38500  time[fs]=38.50000
   C -0.276322712E+01  0.144060257E+00  0.142748640E-02
   C  0.278187291E+01 -0.256359047E-01  0.876565050E-01
   H -0.152165519E+02 -0.104828637E+01 -0.438628390E+00
   H  0.149092409E+02 -0.595931778E+00 -0.120977376E+01
     4
 # iter = 39000  time[fs]=39.00000
   C -0.284160374E+01  0.148476143E+00  0.189316196E-02
   C  0.285979787E+01 -0.257558399E-01  0.906883232E-01
   H -0.156078405E+02 -0.107532347E+01 -0.449492451E+00
   H  0.152832452E+02 -0.609942605E+00 -0.124074459E+01
     4
 # iter = 39500  time[fs]=39.50000
   C -0.292037672E+01  0.152909026E+00  0.235495139E-02
   C  0.293811575E+01 -0.258854936E-01  0.937314852E-01
   H -0.159998319E+02 -0.110241633E+01 -0.460377790E+00
   H  0.156579936E+02 -0.623985016E+00 -0.127178364E+01
     4
 # iter = 40000  time[fs]=40.00000
   C -0.299952494E+01  0.157358016E+00  0.281306562E-02
   C  0.301680555E+01 -0.260243184E-01  0.967854384E-01
   H -0.163924925E+02 -0.112956232E+01 -0.471283398E+00
   H  0.160334511E+02 -0.638057529E+00 -0.130288782E+01
     4
 # iter = 40500  time[fs]=40.50000
   C -0.307902888E+01  0.161822290E+00  0.326770009E-02
   C  0.309584782E+01 -0.261718090E-01  0.998496685E-01
   H -0.167857909E+02 -0.115675902E+01 -0.482208335E+00
   H  0.164095854E+02 -0.652158758E+00 -0.133405423E+01
     4
 # iter = 41000  time[fs]=41.00000
   C -0.315887038E+01  0.166301085E+00  0.371903609E-02
   C  0.317522450E+01 -0.263274985E-01  0.102923696E+00
   H -0.171796979E+02 -0.118400416E+01 -0.493151726E+00
   H  0.167863659E+02 -0.666287413E+00 -0.136528017E+01
     4
 # iter = 41500  time[fs]=41.50000
   C -0.323903258E+01  0.170793691E+00  0.416724207E-02
   C  0.325491883E+01 -0.264909543E-01  0.106007073E+00
   H -0.175741862E+02 -0.121129561E+01 -0.504112751E+00
   H  0.171637644E+02 -0.680442285E+00 -0.139656311E+01
     4
 # iter = 42000  time[fs]=42.00000
   C -0.331949979E+01  0.175299446E+00  0.461247473E-02
   C  0.333491521E+01 -0.266617755E-01  0.109099380E+00
   H -0.179692301E+02 -0.123863139E+01 -0.515090644E+00
   H  0.175417542E+02 -0.694622242E+00 -0.142790068E+01
     4
 # iter = 42500  time[fs]=42.50000
   C -0.340025739E+01  0.179817735E+00  0.505488001E-02
   C  0.341519909E+01 -0.268395898E-01  0.112200227E+00
   H -0.183648058E+02 -0.126600962E+01 -0.526084687E+00
   H  0.179203103E+02 -0.708826225E+00 -0.145929063E+01
     4
 # iter = 43000  time[fs]=43.00000
   C -0.348129172E+01  0.184347982E+00  0.549459405E-02
   C  0.349575691E+01 -0.270240509E-01  0.115309245E+00
   H -0.187608908E+02 -0.129342856E+01 -0.537094207E+00
   H  0.182994093E+02 -0.723053236E+00 -0.149073087E+01
     4
 # iter = 43500  time[fs]=43.50000
   C -0.356259004E+01  0.188889650E+00  0.593174393E-02
   C  0.357657600E+01 -0.272148361E-01  0.118426090E+00
   H -0.191574641E+02 -0.132088658E+01 -0.548118570E+00
   H  0.186790292E+02 -0.737302341E+00 -0.152221942E+01
     4
 # iter = 44000  time[fs]=44.00000
   C -0.364414042E+01  0.193442235E+00  0.636644851E-02
   C  0.365764451E+01 -0.274116449E-01  0.121550438E+00
   H -0.195545059E+02 -0.134838210E+01 -0.559157181E+00
   H  0.190591492E+02 -0.751572658E+00 -0.155375441E+01
     4
 # iter = 44500  time[fs]=44.50000
   C -0.372593167E+01  0.198005266E+00  0.679881899E-02
   C  0.373895133E+01 -0.276141962E-01  0.124681984E+00
   H -0.199519975E+02 -0.137591369E+01 -0.570209480E+00
   H  0.194397497E+02 -0.765863357E+00 -0.158533409E+01
     4
 # iter = 45000  time[fs]=45.00000
   C -0.380795332E+01  0.202578301E+00  0.722895961E-02
   C  0.382048606E+01 -0.278222275E-01  0.127820442E+00
   H -0.203499213E+02 -0.140347996E+01 -0.581274937E+00
   H  0.198208124E+02 -0.780173655E+00 -0.161695678E+01
     4
 # iter = 45500  time[fs]=45.50000
   C -0.389019552E+01  0.207160924E+00  0.765696813E-02
   C  0.390223892E+01 -0.280354931E-01  0.130965541E+00
   H -0.207482609E+02 -0.143107961E+01 -0.592353055E+00
   H  0.202023199E+02 -0.794502813E+00 -0.164862093E+01
     4
 # iter = 46000  time[fs]=46.00000
   C -0.397264905E+01  0.211752743E+00  0.808293637E-02
   C  0.398420076E+01 -0.282537624E-01  0.134117025E+00
   H -0.211470004E+02 -0.145871142E+01 -0.603443361E+00
   H  0.205842555E+02 -0.808850132E+00 -0.168032503E+01
     4
 # iter = 46500  time[fs]=46.50000
   C -0.405530518E+01  0.216353391E+00  0.850695064E-02
   C  0.406636291E+01 -0.284768194E-01  0.137274654E+00
   H -0.215461252E+02 -0.148637422E+01 -0.614545409E+00
   H  0.209666038E+02 -0.823214950E+00 -0.171206767E+01
     4
 # iter = 47000  time[fs]=47.00000
   C -0.413815572E+01  0.220962521E+00  0.892909217E-02
   C  0.414871726E+01 -0.287044608E-01  0.140438200E+00
   H -0.219456213E+02 -0.151406691E+01 -0.625658779E+00
   H  0.213493500E+02 -0.837596641E+00 -0.174384752E+01
     4
 # iter = 47500  time[fs]=47.50000
   C -0.422119296E+01  0.225579805E+00  0.934943748E-02
   C  0.423125614E+01 -0.289364958E-01  0.143607447E+00
   H -0.223454753E+02 -0.154178844E+01 -0.636783069E+00
   H  0.217324801E+02 -0.851994612E+00 -0.177566331E+01
     4
 # iter = 48000  time[fs]=48.00000
   C -0.430440959E+01  0.230204933E+00  0.976805870E-02
   C  0.431397232E+01 -0.291727446E-01  0.146782190E+00
   H -0.227456747E+02 -0.156953784E+01 -0.647917901E+00
   H  0.221159808E+02 -0.866408300E+00 -0.180751382E+01
     4
 # iter = 48500  time[fs]=48.50000
   C -0.438779873E+01  0.234837614E+00  0.101850239E-01
   C  0.439685896E+01 -0.294130377E-01  0.149962236E+00
   H -0.231462076E+02 -0.159731415E+01 -0.659062914E+00
   H  0.224998395E+02 -0.880837169E+00 -0.183939791E+01
     4
 # iter = 49000  time[fs]=49.00000
   C -0.447135386E+01  0.239477571E+00  0.106003975E-01
   C  0.447990960E+01 -0.296572153E-01  0.153147400E+00
   H -0.235470627E+02 -0.162511648E+01 -0.670217767E+00
   H  0.228840443E+02 -0.895280711E+00 -0.187131449E+01
     4
 # iter = 49500  time[fs]=49.50000
   C -0.455506883E+01  0.244124542E+00  0.110142402E-01
   C  0.456311815E+01 -0.299051266E-01  0.156337509E+00
   H -0.239482292E+02 -0.165294399E+01 -0.681382133E+00
   H  0.232685836E+02 -0.909738442E+00 -0.190326251E+01
     4
 # iter = 50000  time[fs]=50.00000
   C -0.463893779E+01  0.248778278E+00  0.114266096E-01
   C  0.464647880E+01 -0.301566288E-01  0.159532395E+00
   H -0.243496967E+02 -0.168079585E+01 -0.692555704E+00
   H  0.236534467E+02 -0.924209903E+00 -0.193524098E+01
     4
 # iter = 50500  time[fs]=50.50000
   C -0.472295521E+01  0.253438543E+00  0.118375601E-01
   C  0.472998607E+01 -0.304115871E-01  0.162731902E+00
   H -0.247514557E+02 -0.170867131E+01 -0.703738183E+00
   H  0.240386233E+02 -0.938694655E+00 -0.196724896E+01
     4
 # iter = 51000  time[fs]=51.00000
   C -0.480711584E+01  0.258105113E+00  0.122471436E-01
   C  0.481363477E+01 -0.306698738E-01  0.165935878E+00
   H -0.251534968E+02 -0.173656962E+01 -0.714929291E+00
   H  0.244241033E+02 -0.953192278E+00 -0.199928554E+01
     4
 # iter = 51500  time[fs]=51.50000
   C -0.489141468E+01  0.262777777E+00  0.126554089E-01
   C  0.489741994E+01 -0.309313679E-01  0.169144181E+00
   H -0.255558111E+02 -0.176449008E+01 -0.726128759E+00
   H  0.248098775E+02 -0.967702376E+00 -0.203134986E+01
     4
 # iter = 52000  time[fs]=52.00000
   C -0.497584701E+01  0.267456330E+00  0.130624026E-01
   C  0.498133690E+01 -0.311959544E-01  0.172356673E+00
   H -0.259583902E+02 -0.179243202E+01 -0.737336331E+00
   H  0.251959369E+02 -0.982224566E+00 -0.206344110E+01
     4
 # iter = 52500  time[fs]=52.50000
   C -0.506040832E+01  0.272140582E+00  0.134681689E-01
   C  0.506538118E+01 -0.314635246E-01  0.175573225E+00
   H -0.263612260E+02 -0.182039479E+01 -0.748551763E+00
   H  0.255822728E+02 -0.996758485E+00 -0.209555846E+01
     4
 # iter = 53000  time[fs]=53.00000
   C -0.514509431E+01  0.276830347E+00  0.138727498E-01
   C  0.514954853E+01 -0.317339749E-01  0.178793712E+00
   H -0.267643109E+02 -0.184837780E+01 -0.759774820E+00
   H  0.259688771E+02 -0.101130378E+01 -0.212770119E+01
     4
 # iter = 53500  time[fs]=53.50000
   C -0.522990090E+01  0.281525452E+00  0.142761854E-01
   C  0.523383492E+01 -0.320072069E-01  0.182018015E+00
   H -0.271676373E+02 -0.187638045E+01 -0.771005281E+00
   H  0.263557419E+02 -0.102586013E+01 -0.215986856E+01
     4
 # iter = 54000  time[fs]=54.00000
   C -0.531482421E+01  0.286225728E+00  0.146785137E-01
   C  0.531823648E+01 -0.322831271E-01  0.185246020E+00
   H -0.275711984E+02 -0.190440217E+01 -0.782242929E+00
   H  0.267428597E+02 -0.104042721E+01 -0.219205989E+01
     4
 # iter = 54500  time[fs]=54.50000
   C -0.539986051E+01  0.290931018E+00  0.150797710E-01
   C  0.540274954E+01 -0.325616463E-01  0.188477619E+00
   H -0.279749872E+02 -0.193244243E+01 -0.793487562E+00
   H  0.271302232E+02 -0.105500471E+01 -0.222427451E+01
     4
 # iter = 55000  time[fs]=55.00000
   C -0.548500626E+01  0.295641167E+00  0.154799919E-01
   C  0.548737059E+01 -0.328426796E-01  0.191712708E+00
   H -0.283789975E+02 -0.196050072E+01 -0.804738982E+00
   H  0.275178257E+02 -0.106959235E+01 -0.225651178E+01
     4
 # iter = 55500  time[fs]=55.50000
   C -0.557025808E+01  0.300356033E+00  0.158792095E-01
   C  0.557209628E+01 -0.331261461E-01  0.194951187E+00
   H -0.287832229E+02 -0.198857655E+01 -0.815997001E+00
   H  0.279056604E+02 -0.108418983E+01 -0.228877109E+01
     4
 # iter = 56000  time[fs]=56.00000
   C -0.565561274E+01  0.305075473E+00  0.162774551E-01
   C  0.565692342E+01 -0.334119686E-01  0.198192960E+00
   H -0.291876575E+02 -0.201666942E+01 -0.827261440E+00
   H  0.282937211E+02 -0.109879690E+01 -0.232105185E+01
     4
 # iter = 56500  time[fs]=56.50000
   C -0.574106714E+01  0.309799357E+00  0.166747590E-01
   C  0.574184894E+01 -0.337000734E-01  0.201437936E+00
   H -0.295922956E+02 -0.204477890E+01 -0.838532123E+00
   H  0.286820016E+02 -0.111341329E+01 -0.235335350E+01
     4
 # iter = 57000  time[fs]=57.00000
   C -0.582661833E+01  0.314527556E+00  0.170711500E-01
   C  0.582686992E+01 -0.339903901E-01  0.204686027E+00
   H -0.299971317E+02 -0.207290454E+01 -0.849808886E+00
   H  0.290704960E+02 -0.112803876E+01 -0.238567549E+01
     4
 # iter = 57500  time[fs]=57.50000
   C -0.591226347E+01  0.319259947E+00  0.174666554E-01
   C  0.591198355E+01 -0.342828514E-01  0.207937149E+00
   H -0.304021607E+02 -0.210104592E+01 -0.861091568E+00
   H  0.294591988E+02 -0.114267307E+01 -0.241801731E+01
     4
 # iter = 58000  time[fs]=58.00000
   C -0.599799985E+01  0.323996415E+00  0.178613017E-01
   C  0.599718716E+01 -0.345773930E-01  0.211191220E+00
   H -0.308073773E+02 -0.212920264E+01 -0.872380015E+00
   H  0.298481045E+02 -0.115731598E+01 -0.245037845E+01
     4
 # iter = 58500  time[fs]=58.50000
   C -0.608382487E+01  0.328736845E+00  0.182551142E-01
   C  0.608247817E+01 -0.348739532E-01  0.214448164E+00
   H -0.312127768E+02 -0.215737431E+01 -0.883674080E+00
   H  0.302372080E+02 -0.117196728E+01 -0.248275842E+01
     4
 # iter = 59000  time[fs]=59.00000
   C -0.616973604E+01  0.333481131E+00  0.186481168E-01
   C  0.616785412E+01 -0.351724731E-01  0.217707904E+00
   H -0.316183545E+02 -0.218556055E+01 -0.894973621E+00
   H  0.306265042E+02 -0.118662676E+01 -0.251515677E+01
     4
 # iter = 59500  time[fs]=59.50000
   C -0.625573097E+01  0.338229169E+00  0.190403329E-01
   C  0.625331264E+01 -0.354728961E-01  0.220970369E+00
   H -0.320241059E+02 -0.221376100E+01 -0.906278499E+00
   H  0.310159883E+02 -0.120129421E+01 -0.254757304E+01
     4
 # iter = 60000  time[fs]=60.00000
   C -0.634180736E+01  0.342980859E+00  0.194317847E-01
   C  0.633885146E+01 -0.357751682E-01  0.224235489E+00
   H -0.324300266E+02 -0.224197532E+01 -0.917588584E+00
   H  0.314056556E+02 -0.121596944E+01 -0.258000679E+01
     4
 # iter = 60500  time[fs]=60.50000
   C -0.642796301E+01  0.347736106E+00  0.198224933E-01
   C  0.642446840E+01 -0.360792373E-01  0.227503199E+00
   H -0.328361125E+02 -0.227020317E+01 -0.928903748E+00
   H  0.317955017E+02 -0.123065224E+01 -0.261245762E+01
     4
 # iter = 61000  time[fs]=61.00000
   C -0.651419579E+01  0.352494817E+00  0.202124794E-01
   C  0.651016138E+01 -0.363850537E-01  0.230773434E+00
   H -0.332423595E+02 -0.229844422E+01 -0.940223869E+00
   H  0.321855223E+02 -0.124534246E+01 -0.264492512E+01
     4
 # iter = 61500  time[fs]=61.50000
   C -0.660050368E+01  0.357256905E+00  0.206017625E-01
   C  0.659592836E+01 -0.366925695E-01  0.234046131E+00
   H -0.336487638E+02 -0.232669816E+01 -0.951548828E+00
   H  0.325757132E+02 -0.126003989E+01 -0.267740890E+01
     4
 # iter = 62000  time[fs]=62.00000
   C -0.668688471E+01  0.362022283E+00  0.209903616E-01
   C  0.668176743E+01 -0.370017387E-01  0.237321231E+00
   H -0.340553216E+02 -0.235496470E+01 -0.962878512E+00
   H  0.329660704E+02 -0.127474438E+01 -0.270990858E+01
     4
 # iter = 62500  time[fs]=62.50000
   C -0.677333699E+01  0.366790869E+00  0.213782948E-01
   C  0.676767672E+01 -0.373125171E-01  0.240598677E+00
   H -0.344620294E+02 -0.238324354E+01 -0.974212809E+00
   H  0.333565899E+02 -0.128945576E+01 -0.274242381E+01
     4
 # iter = 63000  time[fs]=63.00000
   C -0.685985872E+01  0.371562585E+00  0.217655796E-01
   C  0.685365443E+01 -0.376248623E-01  0.243878413E+00
   H -0.348688836E+02 -0.241153440E+01 -0.985551615E+00
   H  0.337472681E+02 -0.130417388E+01 -0.277495423E+01
     4
 # iter = 63500  time[fs]=63.50000
   C -0.694644814E+01  0.376337355E+00  0.221522328E-01
   C  0.693969884E+01 -0.379387334E-01  0.247160386E+00
   H -0.352758808E+02 -0.243983701E+01 -0.996894825E+00
   H  0.341381014E+02 -0.131889857E+01 -0.280749950E+01
     4
 # iter = 64000  time[fs]=64.00000
   C -0.703310358E+01  0.381115104E+00  0.225382705E-01
   C  0.702580828E+01 -0.382540911E-01  0.250444543E+00
   H -0.356830178E+02 -0.246815111E+01 -0.100824234E+01
   H  0.345290861E+02 -0.133362970E+01 -0.284005929E+01
     4
 # iter = 64500  time[fs]=64.50000
   C -0.711982340E+01  0.385895762E+00  0.229237085E-01
   C  0.711198115E+01 -0.385708975E-01  0.253730834E+00
   H -0.360902915E+02 -0.249647644E+01 -0.101959407E+01
   H  0.349202191E+02 -0.134836711E+01 -0.287263329E+01
     4
 # iter = 65000  time[fs]=65.00000
   C -0.720660605E+01  0.390679260E+00  0.233085615E-01
   C  0.719821590E+01 -0.388891162E-01  0.257019212E+00
   H -0.364976989E+02 -0.252481277E+01 -0.103094991E+01
   H  0.353114969E+02 -0.136311067E+01 -0.290522120E+01
     4
 # iter = 65500  time[fs]=65.50000
   C -0.729345001E+01  0.395465533E+00  0.236928443E-01
   C  0.728451105E+01 -0.392087121E-01  0.260309630E+00
   H -0.369052369E+02 -0.255315984E+01 -0.104230978E+01
   H  0.357029164E+02 -0.137786024E+01 -0.293782270E+01
     4
 # iter = 66000  time[fs]=66.00000
   C -0.738035382E+01  0.400254516E+00  0.240765706E-01
   C  0.737086515E+01 -0.395296512E-01  0.263602042E+00
   H -0.373129027E+02 -0.258151743E+01 -0.105367359E+01
   H  0.360944746E+02 -0.139261570E+01 -0.297043753E+01
     4
 # iter = 66500  time[fs]=66.50000
   C -0.746731609E+01  0.405046147E+00  0.244597540E-01
   C  0.745727682E+01 -0.398519009E-01  0.266896405E+00
   H -0.377206936E+02 -0.260988532E+01 -0.106504126E+01
   H  0.364861685E+02 -0.140737692E+01 -0.300306539E+01
     4
 # iter = 67000  time[fs]=67.00000
   C -0.755433544E+01  0.409840368E+00  0.248424075E-01
   C  0.754374471E+01 -0.401754297E-01  0.270192676E+00
   H -0.381286069E+02 -0.263826329E+01 -0.107641270E+01
   H  0.368779952E+02 -0.142214377E+01 -0.303570601E+01
     4
 # iter = 67500  time[fs]=67.50000
   C -0.764141057E+01  0.414637120E+00  0.252245437E-01
   C  0.763026753E+01 -0.405002071E-01  0.273490814E+00
   H -0.385366401E+02 -0.266665114E+01 -0.108778784E+01
   H  0.372699520E+02 -0.143691614E+01 -0.306835914E+01
     4
 # iter = 68000  time[fs]=68.00000
   C -0.772854021E+01  0.419436348E+00  0.256061745E-01
   C  0.771684402E+01 -0.408262038E-01  0.276790781E+00
   H -0.389447906E+02 -0.269504866E+01 -0.109916659E+01
   H  0.376620360E+02 -0.145169392E+01 -0.310102453E+01
     4
 # iter = 68500  time[fs]=68.50000
   C -0.781572313E+01  0.424237997E+00  0.259873119E-01
   C  0.780347297E+01 -0.411533914E-01  0.280092536E+00
   H -0.393530559E+02 -0.272345565E+01 -0.111054889E+01
   H  0.380542448E+02 -0.146647700E+01 -0.313370191E+01
     4
 # iter = 69000  time[fs]=69.00000
   C -0.790295815E+01  0.429042016E+00  0.263679670E-01
   C  0.789015321E+01 -0.414817425E-01  0.283396044E+00
   H -0.397614339E+02 -0.275187193E+01 -0.112193467E+01
   H  0.384465758E+02 -0.148126526E+01 -0.316639107E+01
     4
 # iter = 69500  time[fs]=69.50000
   C -0.799024411E+01  0.433848354E+00  0.267481508E-01
   C  0.797688361E+01 -0.418112307E-01  0.286701268E+00
   H -0.401699220E+02 -0.278029730E+01 -0.113332384E+01
   H  0.388390265E+02 -0.149605860E+01 -0.319909175E+01
     4
 # iter = 70000  time[fs]=70.00000
   C -0.807757990E+01  0.438656961E+00  0.271278739E-01
   C  0.806366307E+01 -0.421418301E-01  0.290008172E+00
   H -0.405785183E+02 -0.280873159E+01 -0.114471636E+01
   H  0.392315946E+02 -0.151085692E+01 -0.323180375E+01
     4
 # iter = 70500  time[fs]=70.50000
   C -0.816496445E+01  0.443467790E+00  0.275071465E-01
   C  0.815049053E+01 -0.424735162E-01  0.293316724E+00
   H -0.409872204E+02 -0.283717463E+01 -0.115611214E+01
   H  0.396242777E+02 -0.152566013E+01 -0.326452683E+01
     4
 # iter = 71000  time[fs]=71.00000
   C -0.825239672E+01  0.448280796E+00  0.278859787E-01
   C  0.823736495E+01 -0.428062649E-01  0.296626890E+00
   H -0.413960264E+02 -0.286562625E+01 -0.116751112E+01
   H  0.400170735E+02 -0.154046812E+01 -0.329726079E+01
     4
 # iter = 71500  time[fs]=71.50000
   C -0.833987569E+01  0.453095933E+00  0.282643798E-01
   C  0.832428535E+01 -0.431400529E-01  0.299938638E+00
   H -0.418049341E+02 -0.289408627E+01 -0.117891326E+01
   H  0.404099800E+02 -0.155528081E+01 -0.333000542E+01
     4
 # iter = 72000  time[fs]=72.00000
   C -0.842740039E+01  0.457913159E+00  0.286423593E-01
   C  0.841125076E+01 -0.434748579E-01  0.303251937E+00
   H -0.422139417E+02 -0.292255455E+01 -0.119031847E+01
   H  0.408029949E+02 -0.157009811E+01 -0.336276052E+01
     4
 # iter = 72500  time[fs]=72.50000
   C -0.851496987E+01  0.462732431E+00  0.290199261E-01
   C  0.849826024E+01 -0.438106580E-01  0.306566756E+00
   H -0.426230472E+02 -0.295103093E+01 -0.120172671E+01
   H  0.411961162E+02 -0.158491992E+01 -0.339552589E+01
     4
 # iter = 73000  time[fs]=73.00000
   C -0.860258320E+01  0.467553709E+00  0.293970890E-01
   C  0.858531288E+01 -0.441474321E-01  0.309883068E+00
   H -0.430322488E+02 -0.297951525E+01 -0.121313792E+01
   H  0.415893419E+02 -0.159974616E+01 -0.342830135E+01
     4
 # iter = 73500  time[fs]=73.50000
   C -0.869023950E+01  0.472376952E+00  0.297738564E-01
   C  0.867240781E+01 -0.444851598E-01  0.313200843E+00
   H -0.434415447E+02 -0.300800737E+01 -0.122455204E+01
   H  0.419826700E+02 -0.161457676E+01 -0.346108671E+01
     4
 # iter = 74000  time[fs]=74.00000
   C -0.877793790E+01  0.477202123E+00  0.301502365E-01
   C  0.875954416E+01 -0.448238213E-01  0.316520053E+00
   H -0.438509330E+02 -0.303650714E+01 -0.123596902E+01
   H  0.423760987E+02 -0.162941162E+01 -0.349388179E+01
     4
 # iter = 74500  time[fs]=74.50000
   C -0.886567756E+01  0.482029185E+00  0.305262373E-01
   C  0.884672112E+01 -0.451633974E-01  0.319840672E+00
   H -0.442604121E+02 -0.306501444E+01 -0.124738881E+01
   H  0.427696262E+02 -0.164425068E+01 -0.352668641E+01
     4
 # iter = 75000  time[fs]=75.00000
   C -0.895345767E+01  0.486858100E+00  0.309018664E-01
   C  0.893393787E+01 -0.455038694E-01  0.323162674E+00
   H -0.446699804E+02 -0.309352911E+01 -0.125881135E+01
   H  0.431632505E+02 -0.165909385E+01 -0.355950041E+01
     4
 # iter = 75500  time[fs]=75.50000
   C -0.904127742E+01  0.491688835E+00  0.312771315E-01
   C  0.902119363E+01 -0.458452191E-01  0.326486032E+00
   H -0.450796362E+02 -0.312205104E+01 -0.127023660E+01
   H  0.435569700E+02 -0.167394106E+01 -0.359232362E+01
     4
 # iter = 76000  time[fs]=76.00000
   C -0.912913606E+01  0.496521353E+00  0.316520397E-01
   C  0.910848765E+01 -0.461874292E-01  0.329810724E+00
   H -0.454893780E+02 -0.315058008E+01 -0.128166451E+01
   H  0.439507830E+02 -0.168879225E+01 -0.362515588E+01
     4
 # iter = 76500  time[fs]=76.50000
   C -0.921703283E+01  0.501355624E+00  0.320265980E-01
   C  0.919581918E+01 -0.465304824E-01  0.333136723E+00
   H -0.458992042E+02 -0.317911613E+01 -0.129309503E+01
   H  0.443446878E+02 -0.170364733E+01 -0.365799702E+01
     4
 # iter = 77000  time[fs]=77.00000
   C -0.930496701E+01  0.506191613E+00  0.324008135E-01
   C  0.928318752E+01 -0.468743623E-01  0.336464007E+00
   H -0.463091133E+02 -0.320765905E+01 -0.130452811E+01
   H  0.447386828E+02 -0.171850624E+01 -0.369084691E+01
     4
 # iter = 77500  time[fs]=77.50000
   C -0.939293788E+01  0.511029290E+00  0.327746926E-01
   C  0.937059196E+01 -0.472190528E-01  0.339792554E+00
   H -0.467191039E+02 -0.323620873E+01 -0.131596372E+01
   H  0.451327665E+02 -0.173336892E+01 -0.372370538E+01
     4
 # iter = 78000  time[fs]=78.00000
   C -0.948094478E+01  0.515868623E+00  0.331482419E-01
   C  0.945803183E+01 -0.475645383E-01  0.343122340E+00
   H -0.471291746E+02 -0.326476505E+01 -0.132740180E+01
   H  0.455269373E+02 -0.174823530E+01 -0.375657230E+01
     4
 # iter = 78500  time[fs]=78.50000
   C -0.956898701E+01  0.520709583E+00  0.335214677E-01
   C  0.954550646E+01 -0.479108035E-01  0.346453344E+00
   H -0.475393240E+02 -0.329332791E+01 -0.133884232E+01
   H  0.459211936E+02 -0.176310532E+01 -0.378944752E+01
     4
 # iter = 79000  time[fs]=79.00000
   C -0.965706394E+01  0.525552142E+00  0.338943761E-01
   C  0.963301523E+01 -0.482578337E-01  0.349785546E+00
   H -0.479495507E+02 -0.332189718E+01 -0.135028523E+01
   H  0.463155342E+02 -0.177797890E+01 -0.382233090E+01
     4
 # iter = 79500  time[fs]=79.50000
   C -0.974517493E+01  0.530396270E+00  0.342669731E-01
   C  0.972055749E+01 -0.486056145E-01  0.353118924E+00
   H -0.483598535E+02 -0.335047277E+01 -0.136173050E+01
   H  0.467099575E+02 -0.179285601E+01 -0.385522231E+01
     4
 # iter = 80000  time[fs]=80.00000
   C -0.983331937E+01  0.535241940E+00  0.346392643E-01
   C  0.980813266E+01 -0.489541320E-01  0.356453459E+00
   H -0.487702310E+02 -0.337905456E+01 -0.137317808E+01
   H  0.471044622E+02 -0.180773657E+01 -0.388812161E+01
