     4
 # iter = 25000  time[fs]=25.00000
   C -0.936193094E+00  0.114734519E-01  0.124636744E-01
   C  0.103572493E+01  0.397107519E-01  0.751629467E-02
   H -0.530078189E+01  0.420182823E+00 -0.337664199E+00
   H  0.529755049E+01 -0.604381202E+00 -0.374058570E+00
     4
 # iter = 25500  time[fs]=25.50000
   C -0.978242427E+00  0.909066925E-02  0.146082908E-01
   C  0.107976228E+01  0.421559650E-01  0.944683210E-02
   H -0.562878682E+01  0.442731979E+00 -0.357262518E+00
   H  0.561394739E+01 -0.645842112E+00 -0.396566265E+00
     4
 # iter = 26000  time[fs]=26.00000
   C -0.102362979E+01  0.664759819E-02  0.167759962E-01
   C  0.112713236E+01  0.446723723E-01  0.113843803E-01
   H -0.595940012E+01  0.465499708E+00 -0.377027424E+00
   H  0.593301637E+01 -0.687652465E+00 -0.419268570E+00
     4
 # iter = 26500  time[fs]=26.50000
   C -0.107207608E+01  0.414457704E-02  0.189644703E-01
   C  0.117755626E+01  0.472586401E-01  0.133279861E-01
   H -0.629233684E+01  0.488461412E+00 -0.396940388E+00
   H  0.625446997E+01 -0.729775717E+00 -0.442144732E+00
     4
 # iter = 27000  time[fs]=27.00000
   C -0.112331994E+01  0.158270489E-02  0.211716918E-01
   C  0.123077287E+01  0.499128009E-01  0.152769077E-01
   H -0.662735562E+01  0.511596445E+00 -0.416985835E+00
   H  0.657806397E+01 -0.772180803E+00 -0.465177169E+00
     4
 # iter = 27500  time[fs]=27.50000
   C -0.117711956E+01 -0.103635470E-02  0.233958920E-01
   C  0.128654063E+01  0.526324295E-01  0.172305595E-01
   H -0.696425035E+01  0.534887313E+00 -0.437150545E+00
   H  0.690358923E+01 -0.814841088E+00 -0.488350851E+00
     4
 # iter = 28000  time[fs]=28.00000
   C -0.123325314E+01 -0.371054432E-02  0.256355173E-01
   C  0.134463800E+01  0.554147974E-01  0.191884726E-01
   H -0.730284364E+01  0.558319062E+00 -0.457423198E+00
   H  0.723086537E+01 -0.857733566E+00 -0.511652826E+00
     4
 # iter = 28500  time[fs]=28.50000
   C -0.129151861E+01 -0.643755320E-02  0.278891986E-01
   C  0.140486313E+01  0.582569999E-01  0.211502654E-01
   H -0.764298183E+01  0.581878806E+00 -0.477794023E+00
   H  0.755973576E+01 -0.900838220E+00 -0.535071857E+00
     4
 # iter = 29000  time[fs]=29.00000
   C -0.135173265E+01 -0.921492832E-02  0.301557256E-01
   C  0.146703297E+01  0.611560557E-01  0.231156224E-01
   H -0.798453093E+01  0.605555361E+00 -0.498254531E+00
   H  0.789006359E+01 -0.944137532E+00 -0.558598125E+00
     4
 # iter = 29500  time[fs]=29.50000
   C -0.141372958E+01 -0.120401593E-01  0.324340254E-01
   C  0.153098203E+01  0.641089831E-01  0.250842786E-01
   H -0.832737348E+01  0.629338958E+00 -0.518797293E+00
   H  0.822172871E+01 -0.987616076E+00 -0.582223002E+00
     4
 # iter = 30000  time[fs]=30.00000
   C -0.147735987E+01 -0.149107409E-01  0.347231438E-01
   C  0.159656101E+01  0.671128546E-01  0.270560084E-01
   H -0.867140590E+01  0.653221014E+00 -0.539415775E+00
   H  0.855462503E+01 -0.103126020E+01 -0.605938867E+00
     4
 # iter = 30500  time[fs]=30.50000
   C -0.154248878E+01 -0.178242181E-01  0.370222303E-01
   C  0.166363537E+01  0.701648353E-01  0.290306166E-01
   H -0.901653647E+01  0.677193946E+00 -0.560104194E+00
   H  0.888865844E+01 -0.107505776E+01 -0.629738951E+00
     4
 # iter = 31000  time[fs]=31.00000
   C -0.160899493E+01 -0.207782164E-01  0.393305243E-01
   C  0.173208391E+01  0.732622079E-01  0.310079321E-01
   H -0.936268355E+01  0.701251019E+00 -0.580857411E+00
   H  0.922374510E+01 -0.111899792E+01 -0.653617215E+00
     4
 # iter = 31500  time[fs]=31.50000
   C -0.167676894E+01 -0.237704621E-01  0.416473440E-01
   C  0.180179742E+01  0.764023882E-01  0.329878037E-01
   H -0.970977420E+01  0.725386228E+00 -0.601670837E+00
   H  0.955981001E+01 -0.116307093E+01 -0.677568252E+00
     4
 # iter = 32000  time[fs]=32.00000
   C -0.174571222E+01 -0.267987934E-01  0.439720764E-01
   C  0.187267747E+01  0.795829328E-01  0.349700958E-01
   H -0.100577430E+02  0.749594190E+00 -0.622540356E+00
   H  0.989678578E+01 -0.120726804E+01 -0.701587196E+00
     4
 # iter = 32500  time[fs]=32.50000
   C -0.181573580E+01 -0.298611670E-01  0.463041692E-01
   C  0.194463523E+01  0.828015417E-01  0.369546862E-01
   H -0.104065309E+02  0.773870066E+00 -0.643462261E+00
   H  0.102346117E+02 -0.125158133E+01 -0.725669657E+00
     4
 # iter = 33000  time[fs]=33.00000
   C -0.188675931E+01 -0.329556590E-01  0.486431232E-01
   C  0.201759048E+01  0.860560566E-01  0.389414636E-01
   H -0.107560848E+02  0.798209487E+00 -0.664433204E+00
   H  0.105732329E+02 -0.129600361E+01 -0.749811657E+00
     4
 # iter = 33500  time[fs]=33.50000
   C -0.195871003E+01 -0.360804640E-01  0.509884860E-01
   C  0.209147063E+01  0.893444574E-01  0.409303260E-01
   H -0.111063563E+02  0.822608495E+00 -0.685450151E+00
   H  0.109125995E+02 -0.134052836E+01 -0.774009581E+00
     4
 # iter = 34000  time[fs]=34.00000
   C -0.203152210E+01 -0.392338911E-01  0.533398471E-01
   C  0.216620993E+01  0.926648564E-01  0.429211796E-01
   H -0.114573017E+02  0.847063492E+00 -0.706510339E+00
   H  0.112526663E+02 -0.138514961E+01 -0.798260136E+00
     4
 # iter = 34500  time[fs]=34.50000
   C -0.210513573E+01 -0.424143595E-01  0.556968324E-01
   C  0.224174872E+01  0.960154915E-01  0.449139375E-01
   H -0.118088808E+02  0.871571201E+00 -0.727611251E+00
   H  0.115933918E+02 -0.142986190E+01 -0.822560310E+00
     4
 # iter = 35000  time[fs]=35.00000
   C -0.217949660E+01 -0.456203929E-01  0.580591010E-01
   C  0.231803276E+01  0.993947193E-01  0.469085188E-01
   H -0.121610572E+02  0.896128623E+00 -0.748750583E+00
   H  0.119347383E+02 -0.147466025E+01 -0.846907345E+00
     4
 # iter = 35500  time[fs]=35.50000
   C -0.225455522E+01 -0.488506132E-01  0.604263407E-01
   C  0.239501268E+01  0.102801007E+00  0.489048484E-01
   H -0.125137972E+02  0.920733013E+00 -0.769926222E+00
   H  0.122766711E+02 -0.151954004E+01 -0.871298705E+00
     4
 # iter = 36000  time[fs]=36.00000
   C -0.233026648E+01 -0.521037346E-01  0.627982658E-01
   C  0.247264344E+01  0.106232927E+00  0.509028557E-01
   H -0.128670701E+02  0.945381845E+00 -0.791136226E+00
   H  0.126191582E+02 -0.156449704E+01 -0.895732057E+00
     4
 # iter = 36500  time[fs]=36.50000
   C -0.240658915E+01 -0.553785577E-01  0.651746135E-01
   C  0.255088391E+01  0.109689146E+00  0.529024747E-01
   H -0.132208476E+02  0.970072795E+00 -0.812378805E+00
   H  0.129621703E+02 -0.160952733E+01 -0.920205246E+00
     4
 # iter = 37000  time[fs]=37.00000
   C -0.248348549E+01 -0.586739630E-01  0.675551423E-01
   C  0.262969642E+01  0.113168423E+00  0.549036432E-01
   H -0.135751033E+02  0.994803718E+00 -0.833652305E+00
   H  0.133056803E+02 -0.165462730E+01 -0.944716280E+00
     4
 # iter = 37500  time[fs]=37.50000
   C -0.256092090E+01 -0.619889059E-01  0.699396292E-01
   C  0.270904644E+01  0.116669596E+00  0.569063027E-01
   H -0.139298132E+02  0.101957263E+01 -0.854955196E+00
   H  0.136496630E+02 -0.169979357E+01 -0.969263313E+00
     4
 # iter = 38000  time[fs]=38.00000
   C -0.263886359E+01 -0.653224105E-01  0.723278684E-01
   C  0.278890226E+01  0.120191585E+00  0.589103979E-01
   H -0.142849549E+02  0.104437768E+01 -0.876286060E+00
   H  0.139940953E+02 -0.174502302E+01 -0.993844630E+00
     4
 # iter = 38500  time[fs]=38.50000
   C -0.271728434E+01 -0.686735654E-01  0.747196695E-01
   C  0.286923472E+01  0.123733378E+00  0.609158766E-01
   H -0.146405074E+02  0.106921718E+01 -0.897643578E+00
   H  0.143389555E+02 -0.179031276E+01 -0.101845864E+01
     4
 # iter = 39000  time[fs]=39.00000
   C -0.279615620E+01 -0.720415182E-01  0.771148557E-01
   C  0.295001694E+01  0.127294028E+00  0.629226895E-01
   H -0.149964515E+02  0.109408952E+01 -0.919026523E+00
   H  0.146842235E+02 -0.183566006E+01 -0.104310385E+01
     4
 # iter = 39500  time[fs]=39.50000
   C -0.287545431E+01 -0.754254716E-01  0.795132630E-01
   C  0.303122410E+01  0.130872652E+00  0.649307897E-01
   H -0.153527691E+02  0.111899323E+01 -0.940433752E+00
   H  0.150298807E+02 -0.188106240E+01 -0.106777888E+01
     4
 # iter = 40000  time[fs]=40.00000
   C -0.295515567E+01 -0.788246788E-01  0.819147388E-01
   C  0.311283327E+01  0.134468420E+00  0.669401328E-01
   H -0.157094433E+02  0.114392692E+01 -0.961864197E+00
   H  0.153759095E+02 -0.192651741E+01 -0.109248243E+01
     4
 # iter = 40500  time[fs]=40.50000
   C -0.303523901E+01 -0.822384405E-01  0.843191409E-01
   C  0.319482323E+01  0.138080556E+00  0.689506766E-01
   H -0.160664586E+02  0.116888930E+01 -0.983316858E+00
   H  0.157222936E+02 -0.197202287E+01 -0.111721328E+01
     4
 # iter = 41000  time[fs]=41.00000
   C -0.311568458E+01 -0.856661004E-01  0.867263368E-01
   C  0.327717427E+01  0.141708332E+00  0.709623809E-01
   H -0.164238001E+02  0.119387915E+01 -0.100479080E+01
   H  0.160690177E+02 -0.201757671E+01 -0.114197031E+01
     4
 # iter = 41500  time[fs]=41.50000
   C -0.319647407E+01 -0.891070429E-01  0.891362024E-01
   C  0.335986812E+01  0.145351063E+00  0.729752077E-01
   H -0.167814542E+02  0.121889536E+01 -0.102628514E+01
   H  0.164160676E+02 -0.206317696E+01 -0.116675244E+01
     4
 # iter = 42000  time[fs]=42.00000
   C -0.327759043E+01 -0.925606894E-01  0.915486218E-01
   C  0.344288778E+01  0.149008107E+00  0.749891204E-01
   H -0.171394077E+02  0.124393683E+01 -0.104779907E+01
   H  0.167634297E+02 -0.210882180E+01 -0.119155867E+01
     4
 # iter = 42500  time[fs]=42.50000
   C -0.335901778E+01 -0.960264961E-01  0.939634863E-01
   C  0.352621743E+01  0.152678859E+00  0.770040846E-01
   H -0.174976487E+02  0.126900259E+01 -0.106933179E+01
   H  0.171110915E+02 -0.215450948E+01 -0.121638806E+01
     4
 # iter = 43000  time[fs]=43.00000
   C -0.344074134E+01 -0.995039513E-01  0.963806939E-01
   C  0.360984229E+01  0.156362751E+00  0.790200670E-01
   H -0.178561657E+02  0.129409167E+01 -0.109088259E+01
   H  0.174590410E+02 -0.220023839E+01 -0.124123971E+01
     4
 # iter = 43500  time[fs]=43.50000
   C -0.352274728E+01 -0.102992573E+00  0.988001489E-01
   C  0.369374860E+01  0.160059245E+00  0.810370362E-01
   H -0.182149479E+02  0.131920319E+01 -0.111245078E+01
   H  0.178072670E+02 -0.224600697E+01 -0.126611278E+01
     4
 # iter = 44000  time[fs]=44.00000
   C -0.360502268E+01 -0.106491907E+00  0.101221761E+00
   C  0.377792346E+01  0.163767838E+00  0.830549620E-01
   H -0.185739852E+02  0.134433631E+01 -0.113403570E+01
   H  0.181557590E+02 -0.229181378E+01 -0.129100648E+01
     4
 # iter = 44500  time[fs]=44.50000
   C -0.368755547E+01 -0.110001525E+00  0.103645446E+00
   C  0.386235482E+01  0.167488050E+00  0.850738155E-01
   H -0.189332679E+02  0.136949024E+01 -0.115563674E+01
   H  0.185045071E+02 -0.233765744E+01 -0.131592007E+01
     4
 # iter = 45000  time[fs]=45.00000
   C -0.377033430E+01 -0.113521021E+00  0.106071123E+00
   C  0.394703138E+01  0.171219432E+00  0.870935693E-01
   H -0.192927871E+02  0.139466422E+01 -0.117725333E+01
   H  0.188535017E+02 -0.238353664E+01 -0.134085282E+01
     4
 # iter = 45500  time[fs]=45.50000
   C -0.385334854E+01 -0.117050014E+00  0.108498717E+00
   C  0.403194254E+01  0.174961558E+00  0.891141969E-01
   H -0.196525341E+02  0.141985756E+01 -0.119888490E+01
   H  0.192027340E+02 -0.242945016E+01 -0.136580408E+01
     4
 # iter = 46000  time[fs]=46.00000
   C -0.393658822E+01 -0.120588142E+00  0.110928157E+00
   C  0.411707834E+01  0.178714024E+00  0.911356730E-01
   H -0.200125009E+02  0.144506956E+01 -0.122053095E+01
   H  0.195521955E+02 -0.247539681E+01 -0.139077319E+01
     4
 # iter = 46500  time[fs]=46.50000
   C -0.402004395E+01 -0.124135062E+00  0.113359376E+00
   C  0.420242943E+01  0.182476448E+00  0.931579735E-01
   H -0.203726797E+02  0.147029961E+01 -0.124219097E+01
   H  0.199018783E+02 -0.252137548E+01 -0.141575956E+01
     4
 # iter = 47000  time[fs]=47.00000
   C -0.410370688E+01 -0.127690451E+00  0.115792309E+00
   C  0.428798698E+01  0.186248469E+00  0.951810750E-01
   H -0.207330634E+02  0.149554708E+01 -0.126386450E+01
   H  0.202517746E+02 -0.256738513E+01 -0.144076262E+01
     4
 # iter = 47500  time[fs]=47.50000
   C -0.418756869E+01 -0.131254001E+00  0.118226895E+00
   C  0.437374271E+01  0.190029743E+00  0.972049554E-01
   H -0.210936448E+02  0.152081140E+01 -0.128555108E+01
   H  0.206018774E+02 -0.261342473E+01 -0.146578180E+01
     4
 # iter = 48000  time[fs]=48.00000
   C -0.427162153E+01 -0.134825420E+00  0.120663079E+00
   C  0.445968877E+01  0.193819944E+00  0.992295933E-01
   H -0.214544176E+02  0.154609203E+01 -0.130725031E+01
   H  0.209521797E+02 -0.265949334E+01 -0.149081660E+01
     4
 # iter = 48500  time[fs]=48.50000
   C -0.435585799E+01 -0.138404432E+00  0.123100805E+00
   C  0.454581778E+01  0.197618764E+00  0.101254968E+00
   H -0.218153753E+02  0.157138845E+01 -0.132896177E+01
   H  0.213026750E+02 -0.270559004E+01 -0.151586652E+01
     4
 # iter = 49000  time[fs]=49.00000
   C -0.444027105E+01 -0.141990772E+00  0.125540022E+00
   C  0.463212274E+01  0.201425907E+00  0.103281060E+00
   H -0.221765120E+02  0.159670015E+01 -0.135068507E+01
   H  0.216533571E+02 -0.275171396E+01 -0.154093109E+01
     4
 # iter = 49500  time[fs]=49.50000
   C -0.452485410E+01 -0.145584192E+00  0.127980680E+00
   C  0.471859707E+01  0.205241094E+00  0.105307850E+00
   H -0.225378222E+02  0.162202667E+01 -0.137241986E+01
   H  0.220042202E+02 -0.279786427E+01 -0.156600985E+01
     4
 # iter = 50000  time[fs]=50.00000
   C -0.460960085E+01 -0.149184454E+00  0.130422732E+00
   C  0.480523448E+01  0.209064059E+00  0.107335321E+00
   H -0.228993003E+02  0.164736755E+01 -0.139416577E+01
   H  0.223552585E+02 -0.284404018E+01 -0.159110237E+01
     4
 # iter = 50500  time[fs]=50.50000
   C -0.469450536E+01 -0.152791330E+00  0.132866135E+00
   C  0.489202907E+01  0.212894547E+00  0.109363453E+00
   H -0.232609411E+02  0.167272235E+01 -0.141592248E+01
   H  0.227064666E+02 -0.289024093E+01 -0.161620825E+01
     4
 # iter = 51000  time[fs]=51.00000
   C -0.477956200E+01 -0.156404604E+00  0.135310845E+00
   C  0.497897521E+01  0.216732318E+00  0.111392232E+00
   H -0.236227399E+02  0.169809068E+01 -0.143768967E+01
   H  0.230578395E+02 -0.293646579E+01 -0.164132710E+01
     4
 # iter = 51500  time[fs]=51.50000
   C -0.486476541E+01 -0.160024072E+00  0.137756822E+00
   C  0.506606757E+01  0.220577139E+00  0.113421639E+00
   H -0.239846917E+02  0.172347213E+01 -0.145946703E+01
   H  0.234093723E+02 -0.298271408E+01 -0.166645852E+01
     4
 # iter = 52000  time[fs]=52.00000
   C -0.495011051E+01 -0.163649536E+00  0.140204028E+00
   C  0.515330108E+01  0.224428792E+00  0.115451660E+00
   H -0.243467922E+02  0.174886633E+01 -0.148125427E+01
   H  0.237610601E+02 -0.302898513E+01 -0.169160218E+01
     4
 # iter = 52500  time[fs]=52.50000
   C -0.503559248E+01 -0.167280809E+00  0.142652426E+00
   C  0.524067093E+01  0.228287065E+00  0.117482280E+00
   H -0.247090371E+02  0.177427291E+01 -0.150305111E+01
   H  0.241128986E+02 -0.307527829E+01 -0.171675771E+01
     4
 # iter = 53000  time[fs]=53.00000
   C -0.512120671E+01 -0.170917712E+00  0.145101979E+00
   C  0.532817254E+01  0.232151757E+00  0.119513484E+00
   H -0.250714221E+02  0.179969153E+01 -0.152485728E+01
   H  0.244648834E+02 -0.312159298E+01 -0.174192480E+01
     4
 # iter = 53500  time[fs]=53.50000
   C -0.520694883E+01 -0.174560074E+00  0.147552655E+00
   C  0.541580154E+01  0.236022677E+00  0.121545258E+00
   H -0.254339434E+02  0.182512186E+01 -0.154667252E+01
   H  0.248170104E+02 -0.316792859E+01 -0.176710313E+01
     4
 # iter = 54000  time[fs]=54.00000
   C -0.529281468E+01 -0.178207731E+00  0.150004422E+00
   C  0.550355378E+01  0.239899640E+00  0.123577588E+00
   H -0.257965972E+02  0.185056358E+01 -0.156849658E+01
   H  0.251692756E+02 -0.321428457E+01 -0.179229238E+01
     4
 # iter = 54500  time[fs]=54.50000
   C -0.537880028E+01 -0.181860527E+00  0.152457247E+00
   C  0.559142530E+01  0.243782470E+00  0.125610461E+00
   H -0.261593798E+02  0.187601639E+01 -0.159032924E+01
   H  0.255216754E+02 -0.326066037E+01 -0.181749228E+01
     4
 # iter = 55000  time[fs]=55.00000
   C -0.546490184E+01 -0.185518311E+00  0.154911102E+00
   C  0.567941233E+01  0.247670998E+00  0.127643865E+00
   H -0.265222877E+02  0.190147998E+01 -0.161217026E+01
   H  0.258742059E+02 -0.330705549E+01 -0.184270254E+01
     4
 # iter = 55500  time[fs]=55.50000
   C -0.555111574E+01 -0.189180940E+00  0.157365958E+00
   C  0.576751125E+01  0.251565063E+00  0.129677788E+00
   H -0.268853177E+02  0.192695409E+01 -0.163401943E+01
   H  0.262268638E+02 -0.335346942E+01 -0.186792288E+01
     4
 # iter = 56000  time[fs]=56.00000
   C -0.563743853E+01 -0.192848276E+00  0.159821789E+00
   C  0.585571863E+01  0.255464510E+00  0.131712217E+00
   H -0.272484664E+02  0.195243843E+01 -0.165587653E+01
   H  0.265796457E+02 -0.339990168E+01 -0.189315306E+01
     4
 # iter = 56500  time[fs]=56.50000
   C -0.572386690E+01 -0.196520187E+00  0.162278566E+00
   C  0.594403116E+01  0.259369190E+00  0.133747142E+00
   H -0.276117308E+02  0.197793276E+01 -0.167774136E+01
   H  0.269325483E+02 -0.344635182E+01 -0.191839283E+01
     4
 # iter = 57000  time[fs]=57.00000
   C -0.581039769E+01 -0.200196547E+00  0.164736267E+00
   C  0.603244571E+01  0.263278960E+00  0.135782551E+00
   H -0.279751079E+02  0.200343681E+01 -0.169961374E+01
   H  0.272855686E+02 -0.349281938E+01 -0.194364193E+01
     4
 # iter = 57500  time[fs]=57.50000
   C -0.589702789E+01 -0.203877233E+00  0.167194866E+00
   C  0.612095926E+01  0.267193683E+00  0.137818433E+00
   H -0.283385949E+02  0.202895035E+01 -0.172149346E+01
   H  0.276387036E+02 -0.353930395E+01 -0.196890015E+01
     4
 # iter = 58000  time[fs]=58.00000
   C -0.598375459E+01 -0.207562129E+00  0.169654340E+00
   C  0.620956892E+01  0.271113227E+00  0.139854778E+00
   H -0.287021890E+02  0.205447314E+01 -0.174338035E+01
   H  0.279919504E+02 -0.358580510E+01 -0.199416726E+01
     4
 # iter = 58500  time[fs]=58.50000
   C -0.607057502E+01 -0.211251123E+00  0.172114667E+00
   C  0.629827194E+01  0.275037466E+00  0.141891577E+00
   H -0.290658876E+02  0.208000496E+01 -0.176527425E+01
   H  0.283453062E+02 -0.363232245E+01 -0.201944305E+01
     4
 # iter = 59000  time[fs]=59.00000
   C -0.615748653E+01 -0.214944106E+00  0.174575826E+00
   C  0.638706565E+01  0.278966277E+00  0.143928819E+00
   H -0.294296880E+02  0.210554560E+01 -0.178717497E+01
   H  0.286987684E+02 -0.367885562E+01 -0.204472730E+01
     4
 # iter = 59500  time[fs]=59.50000
   C -0.624448656E+01 -0.218640976E+00  0.177037796E+00
   C  0.647594753E+01  0.282899544E+00  0.145966496E+00
   H -0.297935879E+02  0.213109484E+01 -0.180908236E+01
   H  0.290523344E+02 -0.372540422E+01 -0.207001983E+01
     4
 # iter = 60000  time[fs]=60.00000
   C -0.633157267E+01 -0.222341631E+00  0.179500556E+00
   C  0.656491513E+01  0.286837153E+00  0.148004597E+00
   H -0.301575849E+02  0.215665249E+01 -0.183099627E+01
   H  0.294060017E+02 -0.377196790E+01 -0.209532044E+01
     4
 # iter = 60500  time[fs]=60.50000
   C -0.641874251E+01 -0.226045975E+00  0.181964088E+00
   C  0.665396611E+01  0.290778996E+00  0.150043115E+00
   H -0.305216766E+02  0.218221835E+01 -0.185291653E+01
   H  0.297597680E+02 -0.381854633E+01 -0.212062893E+01
     4
 # iter = 61000  time[fs]=61.00000
   C -0.650599382E+01 -0.229753917E+00  0.184428373E+00
   C  0.674309822E+01  0.294724967E+00  0.152082041E+00
   H -0.308858610E+02  0.220779223E+01 -0.187484302E+01
   H  0.301136309E+02 -0.386513916E+01 -0.214594514E+01
     4
 # iter = 61500  time[fs]=61.50000
   C -0.659332443E+01 -0.233465367E+00  0.186893393E+00
   C  0.683230930E+01  0.298674967E+00  0.154121366E+00
   H -0.312501357E+02  0.223337396E+01 -0.189677558E+01
   H  0.304675882E+02 -0.391174608E+01 -0.217126889E+01
     4
 # iter = 62000  time[fs]=62.00000
   C -0.668073226E+01 -0.237180238E+00  0.189359131E+00
   C  0.692159728E+01  0.302628897E+00  0.156161082E+00
   H -0.316144988E+02  0.225896335E+01 -0.191871408E+01
   H  0.308216377E+02 -0.395836677E+01 -0.219660001E+01
     4
 # iter = 62500  time[fs]=62.50000
   C -0.676821530E+01 -0.240898448E+00  0.191825570E+00
   C  0.701096016E+01  0.306586664E+00  0.158201182E+00
   H -0.319789483E+02  0.228456025E+01 -0.194065839E+01
   H  0.311757775E+02 -0.400500093E+01 -0.222193834E+01
     4
 # iter = 63000  time[fs]=63.00000
   C -0.685577162E+01 -0.244619916E+00  0.194292695E+00
   C  0.710039600E+01  0.310548176E+00  0.160241658E+00
   H -0.323434823E+02  0.231016448E+01 -0.196260839E+01
   H  0.315300053E+02 -0.405164827E+01 -0.224728372E+01
     4
 # iter = 63500  time[fs]=63.50000
   C -0.694339937E+01 -0.248344566E+00  0.196760490E+00
   C  0.718990297E+01  0.314513347E+00  0.162282502E+00
   H -0.327080988E+02  0.233577588E+01 -0.198456394E+01
   H  0.318843194E+02 -0.409830852E+01 -0.227263600E+01
     4
 # iter = 64000  time[fs]=64.00000
   C -0.703109675E+01 -0.252072323E+00  0.199228939E+00
   C  0.727947928E+01  0.318482092E+00  0.164323708E+00
   H -0.330727962E+02  0.236139431E+01 -0.200652494E+01
   H  0.322387179E+02 -0.414498139E+01 -0.229799504E+01
     4
 # iter = 64500  time[fs]=64.50000
   C -0.711886203E+01 -0.255803115E+00  0.201698029E+00
   C  0.736912320E+01  0.322454329E+00  0.166365269E+00
   H -0.334375725E+02  0.238701962E+01 -0.202849126E+01
   H  0.325931989E+02 -0.419166663E+01 -0.232336068E+01
     4
 # iter = 65000  time[fs]=65.00000
   C -0.720669356E+01 -0.259536872E+00  0.204167745E+00
   C  0.745883308E+01  0.326429979E+00  0.168407177E+00
   H -0.338024263E+02  0.241265166E+01 -0.205046280E+01
   H  0.329477606E+02 -0.423836397E+01 -0.234873281E+01
     4
 # iter = 65500  time[fs]=65.50000
   C -0.729458973E+01 -0.263273526E+00  0.206638074E+00
   C  0.754860733E+01  0.330408965E+00  0.170449427E+00
   H -0.341673557E+02  0.243829029E+01 -0.207243945E+01
   H  0.333024013E+02 -0.428507318E+01 -0.237411127E+01
     4
 # iter = 66000  time[fs]=66.00000
   C -0.738254899E+01 -0.267013013E+00  0.209109002E+00
   C  0.763844439E+01  0.334391214E+00  0.172492012E+00
   H -0.345323593E+02  0.246393537E+01 -0.209442110E+01
   H  0.336571195E+02 -0.433179400E+01 -0.239949594E+01
     4
 # iter = 66500  time[fs]=66.50000
   C -0.747056984E+01 -0.270755271E+00  0.211580517E+00
   C  0.772834279E+01  0.338376655E+00  0.174534925E+00
   H -0.348974355E+02  0.248958679E+01 -0.211640765E+01
   H  0.340119135E+02 -0.437852620E+01 -0.242488670E+01
     4
 # iter = 67000  time[fs]=67.00000
   C -0.755865086E+01 -0.274500237E+00  0.214052607E+00
   C  0.781830108E+01  0.342365218E+00  0.176578161E+00
   H -0.352625829E+02  0.251524440E+01 -0.213839900E+01
   H  0.343667817E+02 -0.442526957E+01 -0.245028342E+01
     4
 # iter = 67500  time[fs]=67.50000
   C -0.764679063E+01 -0.278247853E+00  0.216525259E+00
   C  0.790831787E+01  0.346356836E+00  0.178621714E+00
   H -0.356277999E+02  0.254090810E+01 -0.216039506E+01
   H  0.347217226E+02 -0.447202387E+01 -0.247568599E+01
     4
 # iter = 68000  time[fs]=68.00000
   C -0.773498782E+01 -0.281998062E+00  0.218998462E+00
   C  0.799839184E+01  0.350351444E+00  0.180665578E+00
   H -0.359930852E+02  0.256657774E+01 -0.218239574E+01
   H  0.350767348E+02 -0.451878890E+01 -0.250109428E+01
     4
 # iter = 68500  time[fs]=68.50000
   C -0.782324112E+01 -0.285750809E+00  0.221472205E+00
   C  0.808852166E+01  0.354348980E+00  0.182709747E+00
   H -0.363584374E+02  0.259225323E+01 -0.220440094E+01
   H  0.354318169E+02 -0.456556444E+01 -0.252650820E+01
     4
 # iter = 69000  time[fs]=69.00000
   C -0.791154927E+01 -0.289506039E+00  0.223946477E+00
   C  0.817870611E+01  0.358349382E+00  0.184754217E+00
   H -0.367238552E+02  0.261793445E+01 -0.222641058E+01
   H  0.357869675E+02 -0.461235030E+01 -0.255192762E+01
     4
 # iter = 69500  time[fs]=69.50000
   C -0.799991106E+01 -0.293263702E+00  0.226421267E+00
   C  0.826894395E+01  0.362352591E+00  0.186798981E+00
   H -0.370893373E+02  0.264362129E+01 -0.224842456E+01
   H  0.361421852E+02 -0.465914629E+01 -0.257735246E+01
     4
 # iter = 70000  time[fs]=70.00000
   C -0.808832531E+01 -0.297023747E+00  0.228896565E+00
   C  0.835923402E+01  0.366358551E+00  0.188844035E+00
   H -0.374548825E+02  0.266931364E+01 -0.227044282E+01
   H  0.364974687E+02 -0.470595220E+01 -0.260278259E+01
     4
 # iter = 70500  time[fs]=70.50000
   C -0.817679087E+01 -0.300786125E+00  0.231372361E+00
   C  0.844957518E+01  0.370367205E+00  0.190889374E+00
   H -0.378204896E+02  0.269501140E+01 -0.229246527E+01
   H  0.368528169E+02 -0.475276787E+01 -0.262821793E+01
     4
 # iter = 71000  time[fs]=71.00000
   C -0.826530665E+01 -0.304550789E+00  0.233848646E+00
   C  0.853996633E+01  0.374378499E+00  0.192934993E+00
   H -0.381861573E+02  0.272071447E+01 -0.231449183E+01
   H  0.372082284E+02 -0.479959310E+01 -0.265365838E+01
     4
 # iter = 71500  time[fs]=71.50000
   C -0.835387157E+01 -0.308317692E+00  0.236325410E+00
   C  0.863040641E+01  0.378392382E+00  0.194980886E+00
   H -0.385518847E+02  0.274642275E+01 -0.233652243E+01
   H  0.375637021E+02 -0.484642772E+01 -0.267910384E+01
     4
 # iter = 72000  time[fs]=72.00000
   C -0.844248459E+01 -0.312086791E+00  0.238802644E+00
   C  0.872089437E+01  0.382408803E+00  0.197027051E+00
   H -0.389176705E+02  0.277213615E+01 -0.235855699E+01
   H  0.379192368E+02 -0.489327156E+01 -0.270455423E+01
     4
 # iter = 72500  time[fs]=72.50000
   C -0.853114472E+01 -0.315858042E+00  0.241280339E+00
   C  0.881142923E+01  0.386427711E+00  0.199073481E+00
   H -0.392835136E+02  0.279785457E+01 -0.238059544E+01
   H  0.382748314E+02 -0.494012446E+01 -0.273000945E+01
     4
 # iter = 73000  time[fs]=73.00000
   C -0.861985097E+01 -0.319631403E+00  0.243758487E+00
   C  0.890201001E+01  0.390449060E+00  0.201120172E+00
   H -0.396494131E+02  0.282357792E+01 -0.240263771E+01
   H  0.386304848E+02 -0.498698626E+01 -0.275546942E+01
     4
 # iter = 73500  time[fs]=73.50000
   C -0.870860241E+01 -0.323406833E+00  0.246237079E+00
   C  0.899263577E+01  0.394472802E+00  0.203167121E+00
   H -0.400153679E+02  0.284930612E+01 -0.242468374E+01
   H  0.389861959E+02 -0.503385680E+01 -0.278093405E+01
     4
 # iter = 74000  time[fs]=74.00000
   C -0.879739810E+01 -0.327184292E+00  0.248716107E+00
   C  0.908330559E+01  0.398498892E+00  0.205214323E+00
   H -0.403813771E+02  0.287503909E+01 -0.244673345E+01
   H  0.393419638E+02 -0.508073592E+01 -0.280640326E+01
     4
 # iter = 74500  time[fs]=74.50000
   C -0.888623718E+01 -0.330963742E+00  0.251195563E+00
   C  0.917401860E+01  0.402527287E+00  0.207261774E+00
   H -0.407474395E+02  0.290077673E+01 -0.246878678E+01
   H  0.396977873E+02 -0.512762348E+01 -0.283187698E+01
     4
 # iter = 75000  time[fs]=75.00000
   C -0.897511877E+01 -0.334745146E+00  0.253675439E+00
   C  0.926477392E+01  0.406557943E+00  0.209309469E+00
   H -0.411135544E+02  0.292651896E+01 -0.249084368E+01
   H  0.400536656E+02 -0.517451934E+01 -0.285735511E+01
     4
 # iter = 75500  time[fs]=75.50000
   C -0.906404203E+01 -0.338528467E+00  0.256155729E+00
   C  0.935557073E+01  0.410590819E+00  0.211357406E+00
   H -0.414797208E+02  0.295226572E+01 -0.251290407E+01
   H  0.404095976E+02 -0.522142334E+01 -0.288283760E+01
     4
 # iter = 76000  time[fs]=76.00000
   C -0.915300615E+01 -0.342313669E+00  0.258636424E+00
   C  0.944640822E+01  0.414625874E+00  0.213405580E+00
   H -0.418459377E+02  0.297801692E+01 -0.253496790E+01
   H  0.407655824E+02 -0.526833536E+01 -0.290832436E+01
     4
 # iter = 76500  time[fs]=76.50000
   C -0.924201034E+01 -0.346100718E+00  0.261117517E+00
   C  0.953728560E+01  0.418663069E+00  0.215453987E+00
   H -0.422122045E+02  0.300377249E+01 -0.255703512E+01
   H  0.411216191E+02 -0.531525527E+01 -0.293381533E+01
     4
 # iter = 77000  time[fs]=77.00000
   C -0.933105383E+01 -0.349889581E+00  0.263599003E+00
   C  0.962820209E+01  0.422702365E+00  0.217502625E+00
   H -0.425785200E+02  0.302953235E+01 -0.257910566E+01
   H  0.414777069E+02 -0.536218292E+01 -0.295931042E+01
     4
 # iter = 77500  time[fs]=77.50000
   C -0.942013588E+01 -0.353680225E+00  0.266080873E+00
   C  0.971915696E+01  0.426743726E+00  0.219551488E+00
   H -0.429448837E+02  0.305529643E+01 -0.260117947E+01
   H  0.418338448E+02 -0.540911819E+01 -0.298480959E+01
     4
 # iter = 78000  time[fs]=78.00000
   C -0.950925575E+01 -0.357472618E+00  0.268563121E+00
   C  0.981014949E+01  0.430787115E+00  0.221600575E+00
   H -0.433112946E+02  0.308106467E+01 -0.262325649E+01
   H  0.421900320E+02 -0.545606096E+01 -0.301031274E+01
     4
 # iter = 78500  time[fs]=78.50000
   C -0.959841274E+01 -0.361266729E+00  0.271045741E+00
   C  0.990117897E+01  0.434832495E+00  0.223649881E+00
   H -0.436777520E+02  0.310683699E+01 -0.264533668E+01
   H  0.425462678E+02 -0.550301111E+01 -0.303581984E+01
     4
 # iter = 79000  time[fs]=79.00000
   C -0.968760617E+01 -0.365062528E+00  0.273528727E+00
   C  0.999224472E+01  0.438879834E+00  0.225699403E+00
   H -0.440442550E+02  0.313261333E+01 -0.266741998E+01
   H  0.429025513E+02 -0.554996852E+01 -0.306133080E+01
     4
 # iter = 79500  time[fs]=79.50000
   C -0.977683537E+01 -0.368859986E+00  0.276012072E+00
   C  0.100833461E+02  0.442929096E+00  0.227749137E+00
   H -0.444108031E+02  0.315839363E+01 -0.268950635E+01
   H  0.432588817E+02 -0.559693307E+01 -0.308684556E+01
     4
 # iter = 80000  time[fs]=80.00000
   C -0.986609968E+01 -0.372659073E+00  0.278495771E+00
   C  0.101744824E+02  0.446980251E+00  0.229799082E+00
   H -0.447773953E+02  0.318417782E+01 -0.271159573E+01
   H  0.436152582E+02 -0.564390464E+01 -0.311236408E+01
