     4
 # iter = 25000  time[fs]=25.00000
   C -0.949290940E+00 -0.486390158E-01 -0.593574812E-01
   C  0.103097366E+01  0.245559031E-02 -0.215764545E-02
   H -0.523444284E+01  0.445575770E+00  0.516116436E+00
   H  0.535825899E+01  0.239657417E+00  0.151988566E-01
     4
 # iter = 25500  time[fs]=25.50000
   C -0.992860686E+00 -0.523087052E-01 -0.633609607E-01
   C  0.107575055E+01  0.173894567E-02 -0.187368113E-02
   H -0.556195664E+01  0.472692679E+00  0.548360681E+00
   H  0.567894833E+01  0.253719471E+00  0.152361825E-01
     4
 # iter = 26000  time[fs]=26.00000
   C -0.104068894E+01 -0.561096070E-01 -0.675114671E-01
   C  0.112478195E+01  0.112326374E-02 -0.146706416E-02
   H -0.589211026E+01  0.500052708E+00  0.580895157E+00
   H  0.600232559E+01  0.267901402E+00  0.152757660E-01
     4
 # iter = 26500  time[fs]=26.50000
   C -0.109240599E+01 -0.600309887E-01 -0.717987175E-01
   C  0.117769793E+01  0.601159738E-03 -0.945314626E-03
   H -0.622461289E+01  0.527628564E+00  0.613687397E+00
   H  0.632810236E+01  0.282190328E+00  0.153169256E-01
     4
 # iter = 27000  time[fs]=27.00000
   C -0.114766317E+01 -0.640627533E-01 -0.762126903E-01
   C  0.123414975E+01  0.165347510E-03 -0.316143756E-03
   H -0.655921879E+01  0.555397412E+00  0.646710208E+00
   H  0.665603384E+01  0.296575355E+00  0.153591248E-01
     4
 # iter = 27500  time[fs]=27.50000
   C -0.120613698E+01 -0.681955121E-01 -0.807437866E-01
   C  0.129381392E+01 -0.191177239E-03  0.412802792E-03
   H -0.689571848E+01  0.583339939E+00  0.679940579E+00
   H  0.698591053E+01  0.311047186E+00  0.154019385E-01
     4
 # iter = 28000  time[fs]=28.00000
   C -0.126753088E+01 -0.724206173E-01 -0.853829416E-01
   C  0.135639395E+01 -0.475021643E-03  0.123412668E-02
   H -0.723393197E+01  0.611439655E+00  0.713358851E+00
   H  0.731755177E+01  0.325597819E+00  0.154450279E-01
     4
 # iter = 28500  time[fs]=28.50000
   C -0.133157537E+01 -0.767301607E-01 -0.901216893E-01
   C  0.142162043E+01 -0.692332370E-03  0.214079585E-02
   H -0.757370355E+01  0.639682363E+00  0.746948087E+00
   H  0.765080077E+01  0.340220316E+00  0.154881217E-01
     4
 # iter = 29000  time[fs]=29.00000
   C -0.139802708E+01 -0.811169509E-01 -0.949521905E-01
   C  0.148925011E+01 -0.848770028E-03  0.312621435E-02
   H -0.791489761E+01  0.668055743E+00  0.780693587E+00
   H  0.798552056E+01  0.354908623E+00  0.155310021E-01
     4
 # iter = 29500  time[fs]=29.50000
   C -0.146666720E+01 -0.855744730E-01 -0.998672333E-01
   C  0.155906429E+01 -0.949509520E-03  0.418425538E-02
   H -0.825739534E+01  0.696549036E+00  0.814582505E+00
   H  0.832159081E+01  0.369657425E+00  0.155734943E-01
     4
 # iter = 30000  time[fs]=30.00000
   C -0.153729952E+01 -0.900968415E-01 -0.104860214E+00
   C  0.163086692E+01 -0.999257228E-03  0.530926854E-02
   H -0.860109212E+01  0.725152781E+00  0.848603545E+00
   H  0.865890530E+01  0.384462028E+00  0.156154577E-01
     4
 # iter = 30500  time[fs]=30.50000
   C -0.160974839E+01 -0.946787472E-01 -0.109925108E+00
   C  0.170448246E+01 -0.100227827E-02  0.649606954E-02
   H -0.894589532E+01  0.753858617E+00  0.882746718E+00
   H  0.899736974E+01  0.399318267E+00  0.156567798E-01
     4
 # iter = 31000  time[fs]=31.00000
   C -0.168385666E+01 -0.993154051E-01 -0.115056427E+00
   C  0.177975391E+01 -0.962429099E-03  0.773991882E-02
   H -0.929172257E+01  0.782659114E+00  0.917003150E+00
   H  0.933690012E+01  0.414222429E+00  0.156973704E-01
     4
 # iter = 31500  time[fs]=31.50000
   C -0.175948374E+01 -0.104002503E+00 -0.120249182E+00
   C  0.185654081E+01 -0.883192117E-03  0.903649378E-02
   H -0.963850030E+01  0.811547638E+00  0.951364912E+00
   H  0.967742124E+01  0.429171190E+00  0.157371583E-01
     4
 # iter = 32000  time[fs]=32.00000
   C -0.183650373E+01 -0.108736153E+00 -0.125498839E+00
   C  0.193471741E+01 -0.767710294E-03  0.103818579E-01
   H -0.998616252E+01  0.840518242E+00  0.985824895E+00
   H  0.100188655E+02  0.444161560E+00  0.157760872E-01
     4
 # iter = 32500  time[fs]=32.50000
   C -0.191480386E+01 -0.113512848E+00 -0.130801281E+00
   C  0.201417105E+01 -0.618820393E-03  0.117724289E-01
   H -0.103346499E+02  0.869565569E+00  0.102037670E+01
   H  0.103611721E+02  0.459190842E+00  0.158141136E-01
     4
 # iter = 33000  time[fs]=33.00000
   C -0.199428290E+01 -0.118329418E+00 -0.136152761E+00
   C  0.209480063E+01 -0.439084080E-03  0.132049476E-01
   H -0.106839087E+02  0.898684780E+00  0.105501453E+01
   H  0.107042857E+02  0.474256593E+00  0.158512042E-01
     4
 # iter = 33500  time[fs]=33.50000
   C -0.207484988E+01 -0.123182998E+00 -0.141549874E+00
   C  0.217651529E+01 -0.230816564E-03  0.146764476E-01
   H -0.110338904E+02  0.927871485E+00  0.108973315E+01
   H  0.110481565E+02  0.489356596E+00  0.158873344E-01
     4
 # iter = 34000  time[fs]=34.00000
   C -0.215642290E+01 -0.128070993E+00 -0.146989521E+00
   C  0.225923326E+01  0.388737326E-05  0.161842278E-01
   H -0.113845507E+02  0.957121691E+00  0.112452778E+01
   H  0.113927388E+02  0.504488829E+00  0.159224868E-01
     4
 # iter = 34500  time[fs]=34.50000
   C -0.223892809E+01 -0.132991045E+00 -0.152468874E+00
   C  0.234288077E+01  0.263129920E-03  0.177258265E-01
   H -0.117358495E+02  0.986431754E+00  0.115939406E+01
   H  0.117379910E+02  0.519651445E+00  0.159566497E-01
     4
 # iter = 35000  time[fs]=35.00000
   C -0.232229871E+01 -0.137941016E+00 -0.157985355E+00
   C  0.242739118E+01  0.545189227E-03  0.192989975E-01
   H -0.120877498E+02  0.101579834E+01  0.119432801E+01
   H  0.120838752E+02  0.534842751E+00  0.159898165E-01
     4
 # iter = 35500  time[fs]=35.50000
   C -0.240647431E+01 -0.142918955E+00 -0.163536607E+00
   C  0.251270414E+01  0.848500674E-03  0.209016892E-01
   H -0.124402180E+02  0.104521838E+01  0.122932595E+01
   H  0.124303564E+02  0.550061193E+00  0.160219847E-01
     4
 # iter = 36000  time[fs]=36.00000
   C -0.249140005E+01 -0.147923085E+00 -0.169120473E+00
   C  0.259876491E+01  0.117164021E-02  0.225320250E-01
   H -0.127932231E+02  0.107468907E+01  0.126438452E+01
   H  0.127774024E+02  0.565305340E+00  0.160531551E-01
     4
 # iter = 36500  time[fs]=36.50000
   C -0.257702609E+01 -0.152951781E+00 -0.174734975E+00
   C  0.268552373E+01  0.151330955E-02  0.241882860E-01
   H -0.131467364E+02  0.110420781E+01  0.129950063E+01
   H  0.131249837E+02  0.580573871E+00  0.160833313E-01
     4
 # iter = 37000  time[fs]=37.00000
   C -0.266330703E+01 -0.158003555E+00 -0.180378298E+00
   C  0.277293529E+01  0.187232311E-02  0.258688957E-01
   H -0.135007317E+02  0.113377220E+01  0.133467139E+01
   H  0.134730729E+02  0.595865566E+00  0.161125193E-01
     4
 # iter = 37500  time[fs]=37.50000
   C -0.275020142E+01 -0.163077044E+00 -0.186048773E+00
   C  0.286095822E+01  0.224759634E-02  0.275724059E-01
   H -0.138551846E+02  0.116338001E+01  0.136989414E+01
   H  0.138216446E+02  0.611179292E+00  0.161407270E-01
     4
 # iter = 38000  time[fs]=38.00000
   C -0.283767139E+01 -0.168170994E+00 -0.191744862E+00
   C  0.294955473E+01  0.263813548E-02  0.292974843E-01
   H -0.142100726E+02  0.119302920E+01  0.140516643E+01
   H  0.141706755E+02  0.626514000E+00  0.161679638E-01
     4
 # iter = 38500  time[fs]=38.50000
   C -0.292568221E+01 -0.173284253E+00 -0.197465149E+00
   C  0.303869016E+01  0.304302837E-02  0.310429033E-01
   H -0.145653747E+02  0.122271782E+01  0.144048595E+01
   H  0.145201436E+02  0.641868712E+00  0.161942404E-01
     4
 # iter = 39000  time[fs]=39.00000
   C -0.301420204E+01 -0.178415756E+00 -0.203208323E+00
   C  0.312833273E+01  0.346143643E-02  0.328075304E-01
   H -0.149210714E+02  0.125244412E+01  0.147585057E+01
   H  0.148700287E+02  0.657242518E+00  0.162195685E-01
     4
 # iter = 39500  time[fs]=39.50000
   C -0.310320159E+01 -0.183564522E+00 -0.208973172E+00
   C  0.321845322E+01  0.389258740E-02  0.345903189E-01
   H -0.152771447E+02  0.128220640E+01  0.151125830E+01
   H  0.152203119E+02  0.672634569E+00  0.162439608E-01
     4
 # iter = 40000  time[fs]=40.00000
   C -0.319265388E+01 -0.188729643E+00 -0.214758574E+00
   C  0.330902472E+01  0.433576901E-02  0.363903001E-01
   H -0.156335774E+02  0.131200313E+01  0.154670727E+01
   H  0.155709755E+02  0.688044071E+00  0.162674303E-01
     4
 # iter = 40500  time[fs]=40.50000
   C -0.328253401E+01 -0.193910278E+00 -0.220563487E+00
   C  0.340002240E+01  0.479032325E-02  0.382065765E-01
   H -0.159903540E+02  0.134183284E+01  0.158219573E+01
   H  0.159220028E+02  0.703470280E+00  0.162899909E-01
     4
 # iter = 41000  time[fs]=41.00000
   C -0.337281899E+01 -0.199105645E+00 -0.226386943E+00
   C  0.349142330E+01  0.525564131E-02  0.400383150E-01
   H -0.163474595E+02  0.137169417E+01  0.161772206E+01
   H  0.162733786E+02  0.718912500E+00  0.163116566E-01
     4
 # iter = 41500  time[fs]=41.50000
   C -0.346348753E+01 -0.204315020E+00 -0.232228041E+00
   C  0.358320619E+01  0.573115908E-02  0.418847413E-01
   H -0.167048801E+02  0.140158583E+01  0.165328472E+01
   H  0.166250882E+02  0.734370078E+00  0.163324417E-01
     4
 # iter = 42000  time[fs]=42.00000
   C -0.355451988E+01 -0.209537727E+00 -0.238085941E+00
   C  0.367535139E+01  0.621635308E-02  0.437451349E-01
   H -0.170626028E+02  0.143150662E+01  0.168888227E+01
   H  0.169771180E+02  0.749842398E+00  0.163523607E-01
     4
 # iter = 42500  time[fs]=42.50000
   C -0.364589772E+01 -0.214773137E+00 -0.243959860E+00
   C  0.376784062E+01  0.671073684E-02  0.456188244E-01
   H -0.174206153E+02  0.146145541E+01  0.172451334E+01
   H  0.173294552E+02  0.765328882E+00  0.163714282E-01
     4
 # iter = 43000  time[fs]=43.00000
   C -0.373760401E+01 -0.220020663E+00 -0.249849066E+00
   C  0.386065688E+01  0.721385770E-02  0.475051834E-01
   H -0.177789062E+02  0.149143112E+01  0.176017667E+01
   H  0.176820877E+02  0.780828986E+00  0.163896589E-01
     4
 # iter = 43500  time[fs]=43.50000
   C -0.382962287E+01 -0.225279757E+00 -0.255752875E+00
   C  0.395378435E+01  0.772529383E-02  0.494036265E-01
   H -0.181374646E+02  0.152143275E+01  0.179587103E+01
   H  0.180350042E+02  0.796342194E+00  0.164070674E-01
     4
 # iter = 44000  time[fs]=44.00000
   C -0.392193952E+01 -0.230549904E+00 -0.261670645E+00
   C  0.404720827E+01  0.824465167E-02  0.513136063E-01
   H -0.184962803E+02  0.155145935E+01  0.183159530E+01
   H  0.183881940E+02  0.811868022E+00  0.164236682E-01
     4
 # iter = 44500  time[fs]=44.50000
   C -0.401454013E+01 -0.235830624E+00 -0.267601775E+00
   C  0.414091486E+01  0.877156355E-02  0.532346102E-01
   H -0.188553436E+02  0.158151001E+01  0.186734840E+01
   H  0.187416468E+02  0.827406009E+00  0.164394757E-01
     4
 # iter = 45000  time[fs]=45.00000
   C -0.410741179E+01 -0.241121465E+00 -0.273545700E+00
   C  0.423489126E+01  0.930568553E-02  0.551661575E-01
   H -0.192146455E+02  0.161158389E+01  0.190312929E+01
   H  0.190953531E+02  0.842955723E+00  0.164545043E-01
     4
 # iter = 45500  time[fs]=45.50000
   C -0.420054241E+01 -0.246422005E+00 -0.279501890E+00
   C  0.432912541E+01  0.984669555E-02  0.571077969E-01
   H -0.195741773E+02  0.164168017E+01  0.193893703E+01
   H  0.194493038E+02  0.858516751E+00  0.164687681E-01
     4
 # iter = 46000  time[fs]=46.00000
   C -0.429392065E+01 -0.251731844E+00 -0.285469846E+00
   C  0.442360601E+01  0.103942916E-01  0.590591045E-01
   H -0.199339308E+02  0.167179809E+01  0.197477069E+01
   H  0.198034904E+02  0.874088702E+00  0.164822810E-01
     4
 # iter = 46500  time[fs]=46.50000
   C -0.438753588E+01 -0.257050608E+00 -0.291449098E+00
   C  0.451832246E+01  0.109481903E-01  0.610196814E-01
   H -0.202938984E+02  0.170193692E+01  0.201062939E+01
   H  0.201579046E+02  0.889671207E+00  0.164950569E-01
     4
 # iter = 47000  time[fs]=47.00000
   C -0.448137812E+01 -0.262377944E+00 -0.297439201E+00
   C  0.461326481E+01  0.115081253E-01  0.629891522E-01
   H -0.206540726E+02  0.173209598E+01  0.204651232E+01
   H  0.205125388E+02  0.905263913E+00  0.165071092E-01
     4
 # iter = 47500  time[fs]=47.50000
   C -0.457543797E+01 -0.267713518E+00 -0.303439739E+00
   C  0.470842369E+01  0.120738460E-01  0.649671627E-01
   H -0.210144465E+02  0.176227460E+01  0.208241869E+01
   H  0.208673856E+02  0.920866487E+00  0.165184513E-01
     4
 # iter = 48000  time[fs]=48.00000
   C -0.466970658E+01 -0.273057016E+00 -0.309450314E+00
   C  0.480379030E+01  0.126451164E-01  0.669533789E-01
   H -0.213750135E+02  0.179247216E+01  0.211834774E+01
   H  0.212224380E+02  0.936478608E+00  0.165290963E-01
     4
 # iter = 48500  time[fs]=48.50000
   C -0.476417563E+01 -0.278408140E+00 -0.315470554E+00
   C  0.489935633E+01  0.132217143E-01  0.689474854E-01
   H -0.217357672E+02  0.182268807E+01  0.215429877E+01
   H  0.215776893E+02  0.952099975E+00  0.165390570E-01
     4
 # iter = 49000  time[fs]=49.00000
   C -0.485883725E+01 -0.283766609E+00 -0.321500104E+00
   C  0.499511393E+01  0.138034297E-01  0.709491839E-01
   H -0.220967017E+02  0.185292175E+01  0.219027109E+01
   H  0.219331333E+02  0.967730297E+00  0.165483460E-01
     4
 # iter = 49500  time[fs]=49.50000
   C -0.495368402E+01 -0.289132158E+00 -0.327538630E+00
   C  0.509105573E+01  0.143900645E-01  0.729581922E-01
   H -0.224578112E+02  0.188317266E+01  0.222626405E+01
   H  0.222887638E+02  0.983369300E+00  0.165569756E-01
     4
 # iter = 50000  time[fs]=50.00000
   C -0.504870892E+01 -0.294504533E+00 -0.333585813E+00
   C  0.518717472E+01  0.149814314E-01  0.749742431E-01
   H -0.228190903E+02  0.191344029E+01  0.226227704E+01
   H  0.226445751E+02  0.999016720E+00  0.165649580E-01
     4
 # iter = 50500  time[fs]=50.50000
   C -0.514390531E+01 -0.299883495E+00 -0.339641352E+00
   C  0.528346429E+01  0.155773531E-01  0.769970832E-01
   H -0.231805337E+02  0.194372414E+01  0.229830947E+01
   H  0.230005617E+02  0.101467231E+01  0.165723050E-01
     4
 # iter = 51000  time[fs]=51.00000
   C -0.523926690E+01 -0.305268817E+00 -0.345704960E+00
   C  0.537991818E+01  0.161776618E-01  0.790264723E-01
   H -0.235421366E+02  0.197402375E+01  0.233436076E+01
   H  0.233567183E+02  0.103033582E+01  0.165790282E-01
     4
 # iter = 51500  time[fs]=51.50000
   C -0.533478774E+01 -0.310660283E+00 -0.351776365E+00
   C  0.547653045E+01  0.167821984E-01  0.810621823E-01
   H -0.239038942E+02  0.200433865E+01  0.237043038E+01
   H  0.237130400E+02  0.104600702E+01  0.165851390E-01
     4
 # iter = 52000  time[fs]=52.00000
   C -0.543046218E+01 -0.316057687E+00 -0.357855308E+00
   C  0.557329548E+01  0.173908121E-01  0.831039963E-01
   H -0.242658018E+02  0.203466841E+01  0.240651781E+01
   H  0.240695219E+02  0.106168570E+01  0.165906485E-01
     4
 # iter = 52500  time[fs]=52.50000
   C -0.552628486E+01 -0.321460836E+00 -0.363941543E+00
   C  0.567020792E+01  0.180033596E-01  0.851517084E-01
   H -0.246278553E+02  0.206501263E+01  0.244262255E+01
   H  0.244261595E+02  0.107737165E+01  0.165955675E-01
     4
 # iter = 53000  time[fs]=53.00000
   C -0.562225067E+01 -0.326869541E+00 -0.370034834E+00
   C  0.576726270E+01  0.186197048E-01  0.872051223E-01
   H -0.249900503E+02  0.209537089E+01  0.247874413E+01
   H  0.247829482E+02  0.109306466E+01  0.165999067E-01
     4
 # iter = 53500  time[fs]=53.50000
   C -0.571835478E+01 -0.332283626E+00 -0.376134957E+00
   C  0.586445499E+01  0.192397183E-01  0.892640513E-01
   H -0.253523830E+02  0.212574283E+01  0.251488208E+01
   H  0.251398840E+02  0.110876454E+01  0.166036764E-01
     4
 # iter = 54000  time[fs]=54.00000
   C -0.581459256E+01 -0.337702923E+00 -0.382241700E+00
   C  0.596178021E+01  0.198632771E-01  0.913283175E-01
   H -0.257148496E+02  0.215612808E+01  0.255103597E+01
   H  0.254969627E+02  0.112447110E+01  0.166068868E-01
     4
 # iter = 54500  time[fs]=54.50000
   C -0.591095964E+01 -0.343127269E+00 -0.388354857E+00
   C  0.605923397E+01  0.204902639E-01  0.933977510E-01
   H -0.260774462E+02  0.218652627E+01  0.258720539E+01
   H  0.258541805E+02  0.114018417E+01  0.166095478E-01
     4
 # iter = 55000  time[fs]=55.00000
   C -0.600745182E+01 -0.348556510E+00 -0.394474235E+00
   C  0.615681211E+01  0.211205670E-01  0.954721900E-01
   H -0.264401696E+02  0.221693709E+01  0.262338991E+01
   H  0.262115336E+02  0.115590357E+01  0.166116692E-01
     4
 # iter = 55500  time[fs]=55.50000
   C -0.610406513E+01 -0.353990500E+00 -0.400599646E+00
   C  0.625451067E+01  0.217540799E-01  0.975514799E-01
   H -0.268030162E+02  0.224736019E+01  0.265958917E+01
   H  0.265690186E+02  0.117162914E+01  0.166132603E-01
     4
 # iter = 56000  time[fs]=56.00000
   C -0.620079575E+01 -0.359429097E+00 -0.406730913E+00
   C  0.635232584E+01  0.223907011E-01  0.996354727E-01
   H -0.271659828E+02  0.227779528E+01  0.269580278E+01
   H  0.269266318E+02  0.118736072E+01  0.166143306E-01
     4
 # iter = 56500  time[fs]=56.50000
   C -0.629764005E+01 -0.364872166E+00 -0.412867865E+00
   C  0.645025402E+01  0.230303335E-01  0.101724027E+00
   H -0.275290663E+02  0.230824204E+01  0.273203038E+01
   H  0.272843701E+02  0.120309815E+01  0.166148889E-01
     4
 # iter = 57000  time[fs]=57.00000
   C -0.639459455E+01 -0.370319580E+00 -0.419010340E+00
   C  0.654829175E+01  0.236728844E-01  0.103817009E+00
   H -0.278922638E+02  0.233870019E+01  0.276827162E+01
   H  0.276422302E+02  0.121884130E+01  0.166149442E-01
     4
 # iter = 57500  time[fs]=57.50000
   C -0.649165595E+01 -0.375771213E+00 -0.425158179E+00
   C  0.664643572E+01  0.243182654E-01  0.105914287E+00
   H -0.282555723E+02  0.236916946E+01  0.280452618E+01
   H  0.280002091E+02  0.123459002E+01  0.166145051E-01
     4
 # iter = 58000  time[fs]=58.00000
   C -0.658882105E+01 -0.381226948E+00 -0.431311234E+00
   C  0.674468277E+01  0.249663915E-01  0.108015739E+00
   H -0.286189890E+02  0.239964956E+01  0.284079373E+01
   H  0.283583038E+02  0.125034418E+01  0.166135801E-01
     4
 # iter = 58500  time[fs]=58.50000
   C -0.668608683E+01 -0.386686671E+00 -0.437469361E+00
   C  0.684302987E+01  0.256171818E-01  0.110121246E+00
   H -0.289825113E+02  0.243014025E+01  0.287707396E+01
   H  0.287165115E+02  0.126610364E+01  0.166121773E-01
     4
 # iter = 59000  time[fs]=59.00000
   C -0.678345037E+01 -0.392150273E+00 -0.443632421E+00
   C  0.694147414E+01  0.262705586E-01  0.112230693E+00
   H -0.293461366E+02  0.246064128E+01  0.291336658E+01
   H  0.290748295E+02  0.128186827E+01  0.166103049E-01
     4
 # iter = 59500  time[fs]=59.50000
   C -0.688090889E+01 -0.397617650E+00 -0.449800282E+00
   C  0.704001278E+01  0.269264474E-01  0.114343972E+00
   H -0.297098625E+02  0.249115240E+01  0.294967129E+01
   H  0.294332550E+02  0.129763796E+01  0.166079707E-01
     4
 # iter = 60000  time[fs]=60.00000
   C -0.697845970E+01 -0.403088701E+00 -0.455972816E+00
   C  0.713864315E+01  0.275847770E-01  0.116460977E+00
   H -0.300736865E+02  0.252167337E+01  0.298598781E+01
   H  0.297917857E+02  0.131341259E+01  0.166051825E-01
     4
 # iter = 60500  time[fs]=60.50000
   C -0.707610024E+01 -0.408563328E+00 -0.462149902E+00
   C  0.723736268E+01  0.282454789E-01  0.118581609E+00
   H -0.304376063E+02  0.255220399E+01  0.302231588E+01
   H  0.301504189E+02  0.132919204E+01  0.166019477E-01
     4
 # iter = 61000  time[fs]=61.00000
   C -0.717382805E+01 -0.414041441E+00 -0.468331420E+00
   C  0.733616893E+01  0.289084874E-01  0.120705770E+00
   H -0.308016197E+02  0.258274402E+01  0.305865523E+01
   H  0.305091524E+02  0.134497621E+01  0.165982737E-01
     4
 # iter = 61500  time[fs]=61.50000
   C -0.727164077E+01 -0.419522948E+00 -0.474517259E+00
   C  0.743505954E+01  0.295737396E-01  0.122833367E+00
   H -0.311657245E+02  0.261329327E+01  0.309500562E+01
   H  0.308679838E+02  0.136076498E+01  0.165941677E-01
     4
 # iter = 62000  time[fs]=62.00000
   C -0.736953612E+01 -0.425007764E+00 -0.480707308E+00
   C  0.753403225E+01  0.302411748E-01  0.124964311E+00
   H -0.315299187E+02  0.264385152E+01  0.313136680E+01
   H  0.312269110E+02  0.137655826E+01  0.165896367E-01
     4
 # iter = 62500  time[fs]=62.50000
   C -0.746751192E+01 -0.430495807E+00 -0.486901463E+00
   C  0.763308489E+01  0.309107349E-01  0.127098516E+00
   H -0.318942002E+02  0.267441858E+01  0.316773854E+01
   H  0.315859317E+02  0.139235594E+01  0.165846877E-01
     4
 # iter = 63000  time[fs]=63.00000
   C -0.756556607E+01 -0.435986996E+00 -0.493099623E+00
   C  0.773221537E+01  0.315823638E-01  0.129235899E+00
   H -0.322585671E+02  0.270499426E+01  0.320412061E+01
   H  0.319450440E+02  0.140815793E+01  0.165793272E-01
     4
 # iter = 63500  time[fs]=63.50000
   C -0.766369655E+01 -0.441481255E+00 -0.499301689E+00
   C  0.783142168E+01  0.322560078E-01  0.131376380E+00
   H -0.326230176E+02  0.273557838E+01  0.324051279E+01
   H  0.323042458E+02  0.142396415E+01  0.165735618E-01
     4
 # iter = 64000  time[fs]=64.00000
   C -0.776190141E+01 -0.446978509E+00 -0.505507568E+00
   C  0.793070188E+01  0.329316150E-01  0.133519882E+00
   H -0.329875497E+02  0.276617075E+01  0.327691487E+01
   H  0.326635352E+02  0.143977449E+01  0.165673981E-01
     4
 # iter = 64500  time[fs]=64.50000
   C -0.786017877E+01 -0.452478687E+00 -0.511717169E+00
   C  0.803005411E+01  0.336091355E-01  0.135666331E+00
   H -0.333521618E+02  0.279677122E+01  0.331332663E+01
   H  0.330229103E+02  0.145558887E+01  0.165608422E-01
     4
 # iter = 65000  time[fs]=65.00000
   C -0.795852684E+01 -0.457981719E+00 -0.517930405E+00
   C  0.812947656E+01  0.342885212E-01  0.137815656E+00
   H -0.337168522E+02  0.282737960E+01  0.334974789E+01
   H  0.333823692E+02  0.147140720E+01  0.165539003E-01
     4
 # iter = 65500  time[fs]=65.50000
   C -0.805694388E+01 -0.463487540E+00 -0.524147191E+00
   C  0.822896753E+01  0.349697259E-01  0.139967788E+00
   H -0.340816191E+02  0.285799574E+01  0.338617844E+01
   H  0.337419103E+02  0.148722941E+01  0.165465784E-01
     4
 # iter = 66000  time[fs]=66.00000
   C -0.815542820E+01 -0.468996086E+00 -0.530367444E+00
   C  0.832852532E+01  0.356527048E-01  0.142122661E+00
   H -0.344464610E+02  0.288861948E+01  0.342261810E+01
   H  0.341015319E+02  0.150305542E+01  0.165388823E-01
     4
 # iter = 66500  time[fs]=66.50000
   C -0.825397818E+01 -0.474507292E+00 -0.536591087E+00
   C  0.842814834E+01  0.363374149E-01  0.144280209E+00
   H -0.348113764E+02  0.291925068E+01  0.345906669E+01
   H  0.344612322E+02  0.151888514E+01  0.165308179E-01
     4
 # iter = 67000  time[fs]=67.00000
   C -0.835259228E+01 -0.480021101E+00 -0.542818043E+00
   C  0.852783502E+01  0.370238147E-01  0.146440372E+00
   H -0.351763637E+02  0.294988917E+01  0.349552402E+01
   H  0.348210097E+02  0.153471851E+01  0.165223907E-01
     4
 # iter = 67500  time[fs]=67.50000
   C -0.845126897E+01 -0.485537453E+00 -0.549048238E+00
   C  0.862758388E+01  0.377118640E-01  0.148603088E+00
   H -0.355414215E+02  0.298053482E+01  0.353198993E+01
   H  0.351808628E+02  0.155055545E+01  0.165136062E-01
     4
 # iter = 68000  time[fs]=68.00000
   C -0.855000680E+01 -0.491056293E+00 -0.555281601E+00
   C  0.872739346E+01  0.384015242E-01  0.150768301E+00
   H -0.359065483E+02  0.301118749E+01  0.356846426E+01
   H  0.355407901E+02  0.156639589E+01  0.165044698E-01
     4
 # iter = 68500  time[fs]=68.50000
   C -0.864880438E+01 -0.496577566E+00 -0.561518062E+00
   C  0.882726236E+01  0.390927576E-01  0.152935954E+00
   H -0.362717429E+02  0.304184704E+01  0.360494683E+01
   H  0.359007900E+02  0.158223976E+01  0.164949868E-01
     4
 # iter = 69000  time[fs]=69.00000
   C -0.874766032E+01 -0.502101219E+00 -0.567757555E+00
   C  0.892718924E+01  0.397855284E-01  0.155105993E+00
   H -0.366370038E+02  0.307251334E+01  0.364143749E+01
   H  0.362608611E+02  0.159808700E+01  0.164851623E-01
     4
 # iter = 69500  time[fs]=69.50000
   C -0.884657333E+01 -0.507627202E+00 -0.574000015E+00
   C  0.902717277E+01  0.404798013E-01  0.157278365E+00
   H -0.370023298E+02  0.310318627E+01  0.367793609E+01
   H  0.366210021E+02  0.161393755E+01  0.164750014E-01
     4
 # iter = 70000  time[fs]=70.00000
   C -0.894554212E+01 -0.513155465E+00 -0.580245380E+00
   C  0.912721171E+01  0.411755428E-01  0.159453020E+00
   H -0.373677197E+02  0.313386570E+01  0.371444249E+01
   H  0.369812115E+02  0.162979133E+01  0.164645089E-01
     4
 # iter = 70500  time[fs]=70.50000
   C -0.904456548E+01 -0.518685961E+00 -0.586493588E+00
   C  0.922730482E+01  0.418727200E-01  0.161629909E+00
   H -0.377331721E+02  0.316455151E+01  0.375095652E+01
   H  0.373414883E+02  0.164564830E+01  0.164536898E-01
     4
 # iter = 71000  time[fs]=71.00000
   C -0.914364220E+01 -0.524218643E+00 -0.592744581E+00
   C  0.932745092E+01  0.425713014E-01  0.163808984E+00
   H -0.380986860E+02  0.319524359E+01  0.378747807E+01
   H  0.377018309E+02  0.166150839E+01  0.164425488E-01
     4
 # iter = 71500  time[fs]=71.50000
   C -0.924277114E+01 -0.529753466E+00 -0.598998302E+00
   C  0.942764886E+01  0.432712563E-01  0.165990199E+00
   H -0.384642601E+02  0.322594181E+01  0.382400698E+01
   H  0.380622383E+02  0.167737153E+01  0.164310905E-01
     4
 # iter = 72000  time[fs]=72.00000
   C -0.934195118E+01 -0.535290387E+00 -0.605254694E+00
   C  0.952789754E+01  0.439725551E-01  0.168173510E+00
   H -0.388298934E+02  0.325664607E+01  0.386054313E+01
   H  0.384227092E+02  0.169323769E+01  0.164193194E-01
     4
 # iter = 72500  time[fs]=72.50000
   C -0.944118124E+01 -0.540829363E+00 -0.611513706E+00
   C  0.962819588E+01  0.446751690E-01  0.170358872E+00
   H -0.391955848E+02  0.328735626E+01  0.389708638E+01
   H  0.387832425E+02  0.170910680E+01  0.164072400E-01
     4
 # iter = 73000  time[fs]=73.00000
   C -0.954046027E+01 -0.546370353E+00 -0.617775284E+00
   C  0.972854284E+01  0.453790702E-01  0.172546245E+00
   H -0.395613331E+02  0.331807228E+01  0.393363662E+01
   H  0.391438370E+02  0.172497881E+01  0.163948567E-01
     4
 # iter = 73500  time[fs]=73.50000
   C -0.963978725E+01 -0.551913319E+00 -0.624039377E+00
   C  0.982893741E+01  0.460842317E-01  0.174735586E+00
   H -0.399271375E+02  0.334879402E+01  0.397019372E+01
   H  0.395044916E+02  0.174085367E+01  0.163821736E-01
     4
 # iter = 74000  time[fs]=74.00000
   C -0.973916119E+01 -0.557458220E+00 -0.630305938E+00
   C  0.992937860E+01  0.467906274E-01  0.176926858E+00
   H -0.402929968E+02  0.337952138E+01  0.400675755E+01
   H  0.398652053E+02  0.175673133E+01  0.163691951E-01
     4
 # iter = 74500  time[fs]=74.50000
   C -0.983858115E+01 -0.563005020E+00 -0.636574917E+00
   C  0.100298655E+02  0.474982319E-01  0.179120021E+00
   H -0.406589101E+02  0.341025427E+01  0.404332801E+01
   H  0.402259770E+02  0.177261174E+01  0.163559251E-01
     4
 # iter = 75000  time[fs]=75.00000
   C -0.993804620E+01 -0.568553682E+00 -0.642846269E+00
   C  0.101303971E+02  0.482070206E-01  0.181315038E+00
   H -0.410248764E+02  0.344099259E+01  0.407990497E+01
   H  0.405868057E+02  0.178849485E+01  0.163423678E-01
     4
 # iter = 75500  time[fs]=75.50000
   C -0.100375554E+02 -0.574104170E+00 -0.649119949E+00
   C  0.102309726E+02  0.489169696E-01  0.183511872E+00
   H -0.413908949E+02  0.347173625E+01  0.411648834E+01
   H  0.409476904E+02  0.180438062E+01  0.163285270E-01
     4
 # iter = 76000  time[fs]=76.00000
   C -0.101371080E+02 -0.579656451E+00 -0.655395912E+00
   C  0.103315910E+02  0.496280558E-01  0.185710490E+00
   H -0.417569646E+02  0.350248516E+01  0.415307800E+01
   H  0.413086302E+02  0.182026900E+01  0.163144066E-01
     4
 # iter = 76500  time[fs]=76.50000
   C -0.102367030E+02 -0.585210491E+00 -0.661674117E+00
   C  0.104322517E+02  0.503402567E-01  0.187910856E+00
   H -0.421230846E+02  0.353323923E+01  0.418967384E+01
   H  0.416696240E+02  0.183615995E+01  0.163000104E-01
     4
 # iter = 77000  time[fs]=77.00000
   C -0.103363396E+02 -0.590766257E+00 -0.667954521E+00
   C  0.105329536E+02  0.510535503E-01  0.190112938E+00
   H -0.424892541E+02  0.356399838E+01  0.422627577E+01
   H  0.420306711E+02  0.185205342E+01  0.162853421E-01
     4
 # iter = 77500  time[fs]=77.50000
   C -0.104360171E+02 -0.596323717E+00 -0.674237085E+00
   C  0.106336961E+02  0.517679156E-01  0.192316703E+00
   H -0.428554723E+02  0.359476252E+01  0.426288368E+01
   H  0.423917705E+02  0.186794938E+01  0.162704053E-01
     4
 # iter = 78000  time[fs]=78.00000
   C -0.105357346E+02 -0.601882841E+00 -0.680521770E+00
   C  0.107344784E+02  0.524833317E-01  0.194522120E+00
   H -0.432217383E+02  0.362553158E+01  0.429949748E+01
   H  0.427529212E+02  0.188384777E+01  0.162552036E-01
     4
 # iter = 78500  time[fs]=78.50000
   C -0.106354914E+02 -0.607443600E+00 -0.686808536E+00
   C  0.108352996E+02  0.531997788E-01  0.196729158E+00
   H -0.435880513E+02  0.365630547E+01  0.433611708E+01
   H  0.431141226E+02  0.189974857E+01  0.162397404E-01
     4
 # iter = 79000  time[fs]=79.00000
   C -0.107352868E+02 -0.613005962E+00 -0.693097348E+00
   C  0.109361591E+02  0.539172373E-01  0.198937787E+00
   H -0.439544107E+02  0.368708411E+01  0.437274237E+01
   H  0.434753737E+02  0.191565173E+01  0.162240193E-01
     4
 # iter = 79500  time[fs]=79.50000
   C -0.108351201E+02 -0.618569901E+00 -0.699388168E+00
   C  0.110370562E+02  0.546356883E-01  0.201147979E+00
   H -0.443208155E+02  0.371786744E+01  0.440937327E+01
   H  0.438366738E+02  0.193155722E+01  0.162080436E-01
     4
 # iter = 80000  time[fs]=80.00000
   C -0.109349905E+02 -0.624135389E+00 -0.705680962E+00
   C  0.111379902E+02  0.553551133E-01  0.203359706E+00
   H -0.446872651E+02  0.374865537E+01  0.444600969E+01
   H  0.441980220E+02  0.194746499E+01  0.161918165E-01
