     4
 # iter = 25000  time[fs]=25.00000
   C -0.931378087E+00 -0.535908765E-01  0.943082923E-02
   C  0.103950504E+01  0.241416212E-01  0.455288115E-02
   H -0.532233092E+01  0.318761042E+00 -0.231098282E+00
   H  0.530907422E+01 -0.529310028E+00  0.376401763E+00
     4
 # iter = 25500  time[fs]=25.50000
   C -0.971927793E+00 -0.558507035E-01  0.104895984E-01
   C  0.108243555E+01  0.263662481E-01  0.408104952E-02
   H -0.564936462E+01  0.341411380E+00 -0.246479718E+00
   H  0.562753536E+01 -0.564152146E+00  0.401107920E+00
     4
 # iter = 26000  time[fs]=26.00000
   C -0.101475635E+01 -0.582103303E-01  0.115589330E-01
   C  0.112763800E+01  0.286992570E-01  0.359248009E-02
   H -0.597899684E+01  0.364252051E+00 -0.261991050E+00
   H  0.594867793E+01 -0.599287583E+00  0.426018043E+00
     4
 # iter = 26500  time[fs]=26.50000
   C -0.105968304E+01 -0.606626340E-01  0.126391293E-01
   C  0.117493226E+01  0.311326368E-01  0.308751830E-02
   H -0.631094429E+01  0.387262761E+00 -0.277618433E+00
   H  0.627221165E+01 -0.634685386E+00  0.451110584E+00
     4
 # iter = 27000  time[fs]=27.00000
   C -0.110654017E+01 -0.632009518E-01  0.137303113E-01
   C  0.122415116E+01  0.336589657E-01  0.256658828E-02
   H -0.664496667E+01  0.410426292E+00 -0.293350103E+00
   H  0.659788989E+01 -0.670319232E+00  0.476367203E+00
     4
 # iter = 27500  time[fs]=27.50000
   C -0.115517317E+01 -0.658190824E-01  0.148324626E-01
   C  0.127514061E+01  0.362713894E-01  0.203017757E-02
   H -0.698085853E+01  0.433727913E+00 -0.309175985E+00
   H  0.692550145E+01 -0.706166551E+00  0.501772170E+00
     4
 # iter = 28000  time[fs]=28.00000
   C -0.120544032E+01 -0.685112789E-01  0.159454573E-01
   C  0.132775933E+01  0.389635949E-01  0.147882053E-02
   H -0.731844290E+01  0.457154919E+00 -0.325087386E+00
   H  0.725486425E+01 -0.742207845E+00  0.527311891E+00
     4
 # iter = 28500  time[fs]=28.50000
   C -0.125721219E+01 -0.712722336E-01  0.170690857E-01
   C  0.138187824E+01  0.417297808E-01  0.913082572E-03
   H -0.765756639E+01  0.480696280E+00 -0.341076753E+00
   H  0.758582025E+01 -0.778426163E+00  0.552974545E+00
     4
 # iter = 29000  time[fs]=29.00000
   C -0.131037082E+01 -0.740970568E-01  0.182030770E-01
   C  0.143737976E+01  0.445646247E-01  0.333546435E-03
   H -0.799809518E+01  0.504342361E+00 -0.357137486E+00
   H  0.791823150E+01 -0.814806670E+00  0.578749789E+00
     4
 # iter = 29500  time[fs]=29.50000
   C -0.136480892E+01 -0.769812533E-01  0.193471174E-01
   C  0.149415690E+01  0.474632491E-01 -0.259199227E-03
   H -0.833991189E+01  0.528084688E+00 -0.373263784E+00
   H  0.825197687E+01 -0.851336315E+00  0.604628522E+00
     4
 # iter = 30000  time[fs]=30.00000
   C -0.142042900E+01 -0.799206949E-01  0.205008650E-01
   C  0.155211245E+01  0.504211879E-01 -0.864568920E-03
   H -0.868291305E+01  0.551915780E+00 -0.389450520E+00
   H  0.858694950E+01 -0.888003554E+00  0.630602696E+00
     4
 # iter = 30500  time[fs]=30.50000
   C -0.147714251E+01 -0.829115946E-01  0.216639610E-01
   C  0.161115811E+01  0.534343528E-01 -0.148198727E-02
   H -0.902700697E+01  0.575828991E+00 -0.405693144E+00
   H  0.892305468E+01 -0.924798128E+00  0.656665160E+00
     4
 # iter = 31000  time[fs]=31.00000
   C -0.153486899E+01 -0.859504790E-01  0.228360389E-01
   C  0.167121366E+01  0.564990014E-01 -0.211089417E-02
   H -0.937211206E+01  0.599818395E+00 -0.421987597E+00
   H  0.926020804E+01 -0.961710882E+00  0.682809534E+00
     4
 # iter = 31500  time[fs]=31.50000
   C -0.159353533E+01 -0.890341629E-01  0.240167311E-01
   C  0.173220619E+01  0.596117066E-01 -0.275074840E-02
   H -0.971815541E+01  0.623878683E+00 -0.438330245E+00
   H  0.959833419E+01 -0.998733608E+00  0.709030099E+00
     4
 # iter = 32000  time[fs]=32.00000
   C -0.165307503E+01 -0.921597242E-01  0.252056742E-01
   C  0.179406940E+01  0.627693291E-01 -0.340103008E-02
   H -0.100650716E+02  0.648005082E+00 -0.454717823E+00
   H  0.993736545E+01 -0.103585892E+01  0.735321712E+00
     4
 # iter = 32500  time[fs]=32.50000
   C -0.171342756E+01 -0.953244813E-01  0.264025123E-01
   C  0.185674292E+01  0.659689904E-01 -0.406124209E-02
   H -0.104128018E+02  0.672193287E+00 -0.471147382E+00
   H  0.102772409E+02 -0.107308016E+01  0.761679731E+00
     4
 # iter = 33000  time[fs]=33.00000
   C -0.177453775E+01 -0.985259713E-01  0.276068998E-01
   C  0.192017175E+01  0.692080493E-01 -0.473091084E-02
   H -0.107612928E+02  0.696439397E+00 -0.487616256E+00
   H  0.106179054E+02 -0.111039128E+01  0.788099953E+00
     4
 # iter = 33500  time[fs]=33.50000
   C -0.183635529E+01 -0.101761931E+00  0.288185032E-01
   C  0.198430570E+01  0.724840802E-01 -0.540958642E-02
   H -0.111104963E+02  0.720739869E+00 -0.504122023E+00
   H  0.109593090E+02 -0.114778679E+01  0.814578557E+00
     4
 # iter = 34000  time[fs]=34.00000
   C -0.189883417E+01 -0.105030276E+00  0.300370023E-01
   C  0.204909892E+01  0.757948523E-01 -0.609684233E-02
   H -0.114603686E+02  0.745091476E+00 -0.520662477E+00
   H  0.113014064E+02 -0.118526169E+01  0.841112065E+00
     4
 # iter = 34500  time[fs]=34.50000
   C -0.196193234E+01 -0.108329091E+00  0.312620905E-01
   C  0.211450945E+01  0.791383123E-01 -0.679227498E-02
   H -0.118108697E+02  0.769491271E+00 -0.537235602E+00
   H  0.116441562E+02 -0.122281141E+01  0.867697296E+00
     4
 # iter = 35000  time[fs]=35.00000
   C -0.202561124E+01 -0.111656605E+00  0.324934753E-01
   C  0.218049888E+01  0.825125678E-01 -0.749550292E-02
   H -0.121619631E+02  0.793936551E+00 -0.553839556E+00
   H  0.119875204E+02 -0.126043177E+01  0.894331339E+00
     4
 # iter = 35500  time[fs]=35.50000
   C -0.208983551E+01 -0.115011187E+00  0.337308783E-01
   C  0.224703192E+01  0.859158723E-01 -0.820616595E-02
   H -0.125136154E+02  0.818424837E+00 -0.570472643E+00
   H  0.123314645E+02 -0.129811891E+01  0.921011520E+00
     4
 # iter = 36000  time[fs]=36.00000
   C -0.215457265E+01 -0.118391327E+00  0.349740347E-01
   C  0.231407618E+01  0.893466123E-01 -0.892392414E-02
   H -0.128657957E+02  0.842953845E+00 -0.587133307E+00
   H  0.126759565E+02 -0.133586929E+01  0.947735378E+00
     4
 # iter = 36500  time[fs]=36.50000
   C -0.221979275E+01 -0.121795631E+00  0.362226934E-01
   C  0.238160183E+01  0.928032949E-01 -0.964845681E-02
   H -0.132184759E+02  0.867521470E+00 -0.603820110E+00
   H  0.130209672E+02 -0.137367964E+01  0.974500641E+00
     4
 # iter = 37000  time[fs]=37.00000
   C -0.228546825E+01 -0.125222805E+00  0.374766162E-01
   C  0.244958139E+01  0.962845372E-01 -0.103794615E-01
   H -0.135716298E+02  0.892125764E+00 -0.620531726E+00
   H  0.133664694E+02 -0.141154695E+01  0.100130521E+01
     4
 # iter = 37500  time[fs]=37.50000
   C -0.235157370E+01 -0.128671648E+00  0.387355773E-01
   C  0.251798950E+01  0.997890566E-01 -0.111166530E-01
   H -0.139252333E+02  0.916764925E+00 -0.637266924E+00
   H  0.137124382E+02 -0.144946840E+01  0.102814715E+01
     4
 # iter = 38000  time[fs]=38.00000
   C -0.241808559E+01 -0.132141047E+00  0.399993629E-01
   C  0.258680270E+01  0.103315662E+00 -0.118597623E-01
   H -0.142792640E+02  0.941437277E+00 -0.654024564E+00
   H  0.140588503E+02 -0.148744140E+01  0.105502464E+01
     4
 # iter = 38500  time[fs]=38.50000
   C -0.248498216E+01 -0.135629966E+00  0.412677706E-01
   C  0.265599930E+01  0.106863245E+00 -0.126085354E-01
   H -0.146337013E+02  0.966141266E+00 -0.670803586E+00
   H  0.144056843E+02 -0.152546354E+01  0.108193602E+01
     4
 # iter = 39000  time[fs]=39.00000
   C -0.255224321E+01 -0.139137441E+00  0.425406087E-01
   C  0.272555918E+01  0.110430774E+00 -0.133627330E-01
   H -0.149885258E+02  0.990875442E+00 -0.687603003E+00
   H  0.147529201E+02 -0.156353256E+01  0.110887973E+01
     4
 # iter = 39500  time[fs]=39.50000
   C -0.261985003E+01 -0.142662571E+00  0.438176957E-01
   C  0.279546365E+01  0.114017289E+00 -0.141221286E-01
   H -0.153437196E+02  0.101563845E+01 -0.704421896E+00
   H  0.151005391E+02 -0.160164636E+01  0.113585429E+01
     4
 # iter = 40000  time[fs]=40.00000
   C -0.268778519E+01 -0.146204519E+00  0.450988598E-01
   C  0.286569537E+01  0.117621891E+00 -0.148865089E-01
   H -0.156992660E+02  0.104042903E+01 -0.721259404E+00
   H  0.154485239E+02 -0.163980298E+01  0.116285837E+01
     4
 # iter = 40500  time[fs]=40.50000
   C -0.275603251E+01 -0.149762499E+00  0.463839380E-01
   C  0.293623818E+01  0.121243743E+00 -0.156556720E-01
   H -0.160551493E+02  0.106524600E+01 -0.738114724E+00
   H  0.157968584E+02 -0.167800058E+01  0.118989068E+01
     4
 # iter = 41000  time[fs]=41.00000
   C -0.282457686E+01 -0.153335779E+00  0.476727763E-01
   C  0.300707702E+01  0.124882059E+00 -0.164294270E-01
   H -0.164113549E+02  0.109008826E+01 -0.754987103E+00
   H  0.161455273E+02 -0.171623745E+01  0.121695003E+01
     4
 # iter = 41500  time[fs]=41.50000
   C -0.289340417E+01 -0.156923672E+00  0.489652285E-01
   C  0.307819784E+01  0.128536105E+00 -0.172075934E-01
   H -0.167678691E+02  0.111495475E+01 -0.771875833E+00
   H  0.164945165E+02 -0.175451196E+01  0.124403531E+01
     4
 # iter = 42000  time[fs]=42.00000
   C -0.296250127E+01 -0.160525533E+00  0.502611559E-01
   C  0.314958752E+01  0.132205191E+00 -0.179900004E-01
   H -0.171246790E+02  0.113984451E+01 -0.788780252E+00
   H  0.168438125E+02 -0.179282260E+01  0.127114545E+01
     4
 # iter = 42500  time[fs]=42.50000
   C -0.303185583E+01 -0.164140759E+00  0.515604272E-01
   C  0.322123378E+01  0.135888672E+00 -0.187764862E-01
   H -0.174817726E+02  0.116475661E+01 -0.805699736E+00
   H  0.171934028E+02 -0.183116794E+01  0.129827948E+01
     4
 # iter = 43000  time[fs]=43.00000
   C -0.310145634E+01 -0.167768782E+00  0.528629176E-01
   C  0.329312513E+01  0.139585938E+00 -0.195668975E-01
   H -0.178391385E+02  0.118969020E+01 -0.822633695E+00
   H  0.175432757E+02 -0.186954663E+01  0.132543647E+01
     4
 # iter = 43500  time[fs]=43.50000
   C -0.317129197E+01 -0.171409068E+00  0.541685087E-01
   C  0.336525078E+01  0.143296420E+00 -0.203610889E-01
   H -0.181967660E+02  0.121464445E+01 -0.839581578E+00
   H  0.178934200E+02 -0.190795741E+01  0.135261552E+01
     4
 # iter = 44000  time[fs]=44.00000
   C -0.324135257E+01 -0.175061113E+00  0.554770880E-01
   C  0.343760062E+01  0.147019577E+00 -0.211589224E-01
   H -0.185546451E+02  0.123961859E+01 -0.856542860E+00
   H  0.182438254E+02 -0.194639908E+01  0.137981583E+01
     4
 # iter = 44500  time[fs]=44.50000
   C -0.331162861E+01 -0.178724445E+00  0.567885487E-01
   C  0.351016514E+01  0.150754904E+00 -0.219602671E-01
   H -0.189127662E+02  0.126461190E+01 -0.873517047E+00
   H  0.185944818E+02 -0.198487050E+01  0.140703660E+01
     4
 # iter = 45000  time[fs]=45.00000
   C -0.338211113E+01 -0.182398617E+00  0.581027890E-01
   C  0.358293540E+01  0.154501921E+00 -0.227649987E-01
   H -0.192711203E+02  0.128962368E+01 -0.890503673E+00
   H  0.189453801E+02 -0.202337061E+01  0.143427709E+01
     4
 # iter = 45500  time[fs]=45.50000
   C -0.345279166E+01 -0.186083206E+00  0.594197124E-01
   C  0.365590299E+01  0.158260177E+00 -0.235729987E-01
   H -0.196296990E+02  0.131465329E+01 -0.907502294E+00
   H  0.192965113E+02 -0.206189839E+01  0.146153660E+01
     4
 # iter = 46000  time[fs]=46.00000
   C -0.352366226E+01 -0.189777815E+00  0.607392267E-01
   C  0.372905996E+01  0.162029243E+00 -0.243841549E-01
   H -0.199884941E+02  0.133970010E+01 -0.924512492E+00
   H  0.196478671E+02 -0.210045288E+01  0.148881447E+01
     4
 # iter = 46500  time[fs]=46.50000
   C -0.359471542E+01 -0.193482065E+00  0.620612443E-01
   C  0.380239883E+01  0.165808716E+00 -0.251983600E-01
   H -0.203474982E+02  0.136476353E+01 -0.941533869E+00
   H  0.199994397E+02 -0.213903316E+01  0.151611007E+01
     4
 # iter = 47000  time[fs]=47.00000
   C -0.366594403E+01 -0.197195601E+00  0.633856817E-01
   C  0.387591254E+01  0.169598214E+00 -0.260155122E-01
   H -0.207067039E+02  0.138984302E+01 -0.958566047E+00
   H  0.203512214E+02 -0.217763838E+01  0.154342280E+01
     4
 # iter = 47500  time[fs]=47.50000
   C -0.373734141E+01 -0.200918083E+00  0.647124592E-01
   C  0.394959440E+01  0.173397373E+00 -0.268355143E-01
   H -0.210661044E+02  0.141493803E+01 -0.975608667E+00
   H  0.207032052E+02 -0.221626770E+01  0.157075209E+01
     4
 # iter = 48000  time[fs]=48.00000
   C -0.380890121E+01 -0.204649191E+00  0.660415008E-01
   C  0.402343809E+01  0.177205849E+00 -0.276582738E-01
   H -0.214256931E+02  0.144004808E+01 -0.992661388E+00
   H  0.210553843E+02 -0.225492034E+01  0.159809740E+01
     4
 # iter = 48500  time[fs]=48.50000
   C -0.388061742E+01 -0.208388621E+00  0.673727341E-01
   C  0.409743763E+01  0.181023316E+00 -0.284837021E-01
   H -0.217854640E+02  0.146517266E+01 -0.100972388E+01
   H  0.214077523E+02 -0.229359555E+01  0.162545821E+01
     4
 # iter = 49000  time[fs]=49.00000
   C -0.395248435E+01 -0.212136084E+00  0.687060896E-01
   C  0.417158735E+01  0.184849465E+00 -0.293117150E-01
   H -0.221454109E+02  0.149031134E+01 -0.102679585E+01
   H  0.217603030E+02 -0.233229263E+01  0.165283403E+01
     4
 # iter = 49500  time[fs]=49.50000
   C -0.402449662E+01 -0.215891305E+00  0.700415013E-01
   C  0.424588187E+01  0.188683999E+00 -0.301422319E-01
   H -0.225055284E+02  0.151546367E+01 -0.104387698E+01
   H  0.221130306E+02 -0.237101090E+01  0.168022440E+01
     4
 # iter = 50000  time[fs]=50.00000
   C -0.409664910E+01 -0.219654023E+00  0.713789059E-01
   C  0.432031609E+01  0.192526638E+00 -0.309751757E-01
   H -0.228658111E+02  0.154062923E+01 -0.106096701E+01
   H  0.224659295E+02 -0.240974971E+01  0.170762887E+01
     4
 # iter = 50500  time[fs]=50.50000
   C -0.416893692E+01 -0.223423988E+00  0.727182428E-01
   C  0.439488515E+01  0.196377116E+00 -0.318104729E-01
   H -0.232262539E+02  0.156580763E+01 -0.107806566E+01
   H  0.228189945E+02 -0.244850843E+01  0.173504701E+01
     4
 # iter = 51000  time[fs]=51.00000
   C -0.424135546E+01 -0.227200965E+00  0.740594542E-01
   C  0.446958445E+01  0.200235178E+00 -0.326480529E-01
   H -0.235868519E+02  0.159099849E+01 -0.109517267E+01
   H  0.231722204E+02 -0.248728649E+01  0.176247842E+01
     4
 # iter = 51500  time[fs]=51.50000
   C -0.431390032E+01 -0.230984727E+00  0.754024846E-01
   C  0.454440960E+01  0.204100581E+00 -0.334878484E-01
   H -0.239476004E+02  0.161620144E+01 -0.111228780E+01
   H  0.235256025E+02 -0.252608332E+01  0.178992270E+01
     4
 # iter = 52000  time[fs]=52.00000
   C -0.438656731E+01 -0.234775059E+00  0.767472808E-01
   C  0.461935643E+01  0.207973094E+00 -0.343297948E-01
   H -0.243084949E+02  0.164141614E+01 -0.112941081E+01
   H  0.238791361E+02 -0.256489837E+01  0.181737949E+01
     4
 # iter = 52500  time[fs]=52.50000
   C -0.445935244E+01 -0.238571755E+00  0.780937920E-01
   C  0.469442097E+01  0.211852495E+00 -0.351738300E-01
   H -0.246695313E+02  0.166664225E+01 -0.114654148E+01
   H  0.242328167E+02 -0.260373113E+01  0.184484843E+01
     4
 # iter = 53000  time[fs]=53.00000
   C -0.453225190E+01 -0.242374619E+00  0.794419692E-01
   C  0.476959941E+01  0.215738574E+00 -0.360198949E-01
   H -0.250307054E+02  0.169187946E+01 -0.116367960E+01
   H  0.245866403E+02 -0.264258111E+01  0.187232917E+01
     4
 # iter = 53500  time[fs]=53.50000
   C -0.460526208E+01 -0.246183463E+00  0.807917656E-01
   C  0.484488815E+01  0.219631130E+00 -0.368679324E-01
   H -0.253920134E+02  0.171712746E+01 -0.118082495E+01
   H  0.249406026E+02 -0.268144782E+01  0.189982139E+01
     4
 # iter = 54000  time[fs]=54.00000
   C -0.467837949E+01 -0.249998108E+00  0.821431364E-01
   C  0.492028372E+01  0.223529968E+00 -0.377178879E-01
   H -0.257534515E+02  0.174238595E+01 -0.119797735E+01
   H  0.252946998E+02 -0.272033081E+01  0.192732477E+01
     4
 # iter = 54500  time[fs]=54.50000
   C -0.475160084E+01 -0.253818382E+00  0.834960382E-01
   C  0.499578284E+01  0.227434905E+00 -0.385697089E-01
   H -0.261150160E+02  0.176765466E+01 -0.121513659E+01
   H  0.256489282E+02 -0.275922965E+01  0.195483902E+01
     4
 # iter = 55000  time[fs]=55.00000
   C -0.482492296E+01 -0.257644121E+00  0.848504296E-01
   C  0.507138236E+01  0.231345763E+00 -0.394233451E-01
   H -0.264767036E+02  0.179293331E+01 -0.123230250E+01
   H  0.260032842E+02 -0.279814391E+01  0.198236384E+01
     4
 # iter = 55500  time[fs]=55.50000
   C -0.489834282E+01 -0.261475167E+00  0.862062707E-01
   C  0.514707924E+01  0.235262373E+00 -0.402787480E-01
   H -0.268385110E+02  0.181822165E+01 -0.124947490E+01
   H  0.263577644E+02 -0.283707320E+01  0.200989895E+01
     4
 # iter = 56000  time[fs]=56.00000
   C -0.497185754E+01 -0.265311369E+00  0.875635231E-01
   C  0.522287062E+01  0.239184572E+00 -0.411358711E-01
   H -0.272004349E+02  0.184351942E+01 -0.126665363E+01
   H  0.267123655E+02 -0.287601711E+01  0.203744410E+01
     4
 # iter = 56500  time[fs]=56.50000
   C -0.504546433E+01 -0.269152584E+00  0.889221501E-01
   C  0.529875373E+01  0.243112206E+00 -0.419946695E-01
   H -0.275624724E+02  0.186882638E+01 -0.128383852E+01
   H  0.270670843E+02 -0.291497529E+01  0.206499901E+01
     4
 # iter = 57000  time[fs]=57.00000
   C -0.511916055E+01 -0.272998671E+00  0.902821159E-01
   C  0.537472593E+01  0.247045124E+00 -0.428551000E-01
   H -0.279246205E+02  0.189414231E+01 -0.130102941E+01
   H  0.274219178E+02 -0.295394737E+01  0.209256345E+01
     4
 # iter = 57500  time[fs]=57.50000
   C -0.519294365E+01 -0.276849497E+00  0.916433866E-01
   C  0.545078467E+01  0.250983182E+00 -0.437171213E-01
   H -0.282868763E+02  0.191946697E+01 -0.131822616E+01
   H  0.277768630E+02 -0.299293300E+01  0.212013718E+01
     4
 # iter = 58000  time[fs]=58.00000
   C -0.526681118E+01 -0.280704935E+00  0.930059290E-01
   C  0.552692752E+01  0.254926244E+00 -0.445806932E-01
   H -0.286492372E+02  0.194480017E+01 -0.133542862E+01
   H  0.281319171E+02 -0.303193185E+01  0.214771997E+01
     4
 # iter = 58500  time[fs]=58.50000
   C -0.534076081E+01 -0.284564862E+00  0.943697116E-01
   C  0.560315216E+01  0.258874175E+00 -0.454457773E-01
   H -0.290117006E+02  0.197014168E+01 -0.135263665E+01
   H  0.284870775E+02 -0.307094360E+01  0.217531159E+01
     4
 # iter = 59000  time[fs]=59.00000
   C -0.541479029E+01 -0.288429159E+00  0.957347037E-01
   C  0.567945634E+01  0.262826850E+00 -0.463123364E-01
   H -0.293742639E+02  0.199549131E+01 -0.136985012E+01
   H  0.288423415E+02 -0.310996795E+01  0.220291184E+01
     4
 # iter = 59500  time[fs]=59.50000
   C -0.548889745E+01 -0.292297713E+00  0.971008757E-01
   C  0.575583791E+01  0.266784145E+00 -0.471803347E-01
   H -0.297369247E+02  0.202084887E+01 -0.138706889E+01
   H  0.291977065E+02 -0.314900458E+01  0.223052050E+01
     4
 # iter = 60000  time[fs]=60.00000
   C -0.556308023E+01 -0.296170413E+00  0.984681993E-01
   C  0.583229479E+01  0.270745942E+00 -0.480497376E-01
   H -0.300996806E+02  0.204621417E+01 -0.140429285E+01
   H  0.295531702E+02 -0.318805322E+01  0.225813738E+01
     4
 # iter = 60500  time[fs]=60.50000
   C -0.563733662E+01 -0.300047156E+00  0.998366469E-01
   C  0.590882501E+01  0.274712128E+00 -0.489205117E-01
   H -0.304625294E+02  0.207158704E+01 -0.142152188E+01
   H  0.299087302E+02 -0.322711359E+01  0.228576230E+01
     4
 # iter = 61000  time[fs]=61.00000
   C -0.571166471E+01 -0.303927838E+00  0.101206192E+00
   C  0.598542665E+01  0.278682593E+00 -0.497926249E-01
   H -0.308254690E+02  0.209696729E+01 -0.143875585E+01
   H  0.302643843E+02 -0.326618542E+01  0.231339506E+01
     4
 # iter = 61500  time[fs]=61.50000
   C -0.578606264E+01 -0.307812363E+00  0.102576809E+00
   C  0.606209787E+01  0.282657231E+00 -0.506660460E-01
   H -0.311884972E+02  0.212235477E+01 -0.145599465E+01
   H  0.306201302E+02 -0.330526844E+01  0.234103548E+01
     4
 # iter = 62000  time[fs]=62.00000
   C -0.586052865E+01 -0.311700636E+00  0.103948473E+00
   C  0.613883689E+01  0.286635942E+00 -0.515407449E-01
   H -0.315516120E+02  0.214774932E+01 -0.147323818E+01
   H  0.309759659E+02 -0.334436241E+01  0.236868340E+01
     4
 # iter = 62500  time[fs]=62.50000
   C -0.593506101E+01 -0.315592567E+00  0.105321161E+00
   C  0.621564201E+01  0.290618626E+00 -0.524166927E-01
   H -0.319148114E+02  0.217315077E+01 -0.149048633E+01
   H  0.313318893E+02 -0.338346709E+01  0.239633865E+01
     4
 # iter = 63000  time[fs]=63.00000
   C -0.600965808E+01 -0.319488067E+00  0.106694848E+00
   C  0.629251159E+01  0.294605190E+00 -0.532938612E-01
   H -0.322780935E+02  0.219855897E+01 -0.150773900E+01
   H  0.316878985E+02 -0.342258224E+01  0.242400106E+01
     4
 # iter = 63500  time[fs]=63.50000
   C -0.608431827E+01 -0.323387052E+00  0.108069514E+00
   C  0.636944403E+01  0.298595541E+00 -0.541722231E-01
   H -0.326414565E+02  0.222397378E+01 -0.152499609E+01
   H  0.320439915E+02 -0.346170763E+01  0.245167048E+01
     4
 # iter = 64000  time[fs]=64.00000
   C -0.615904003E+01 -0.327289440E+00  0.109445135E+00
   C  0.644643782E+01  0.302589593E+00 -0.550517524E-01
   H -0.330048987E+02  0.224939507E+01 -0.154225751E+01
   H  0.324001666E+02 -0.350084305E+01  0.247934677E+01
     4
 # iter = 64500  time[fs]=64.50000
   C -0.623382190E+01 -0.331195152E+00  0.110821691E+00
   C  0.652349147E+01  0.306587258E+00 -0.559324234E-01
   H -0.333684182E+02  0.227482268E+01 -0.155952316E+01
   H  0.327564218E+02 -0.353998828E+01  0.250702977E+01
     4
 # iter = 65000  time[fs]=65.00000
   C -0.630866244E+01 -0.335104113E+00  0.112199163E+00
   C  0.660060356E+01  0.310588456E+00 -0.568142116E-01
   H -0.337320135E+02  0.230025649E+01 -0.157679295E+01
   H  0.331127556E+02 -0.357914312E+01  0.253471934E+01
     4
 # iter = 65500  time[fs]=65.50000
   C -0.638356027E+01 -0.339016247E+00  0.113577529E+00
   C  0.667777272E+01  0.314593106E+00 -0.576970930E-01
   H -0.340956830E+02  0.232569637E+01 -0.159406681E+01
   H  0.334691662E+02 -0.361830736E+01  0.256241534E+01
     4
 # iter = 66000  time[fs]=66.00000
   C -0.645851405E+01 -0.342931485E+00  0.114956772E+00
   C  0.675499761E+01  0.318601131E+00 -0.585810446E-01
   H -0.344594250E+02  0.235114219E+01 -0.161134463E+01
   H  0.338256520E+02 -0.365748082E+01  0.259011765E+01
     4
 # iter = 66500  time[fs]=66.50000
   C -0.653352251E+01 -0.346849757E+00  0.116336872E+00
   C  0.683227696E+01  0.322612457E+00 -0.594660439E-01
   H -0.348232381E+02  0.237659384E+01 -0.162862636E+01
   H  0.341822115E+02 -0.369666331E+01  0.261782613E+01
     4
 # iter = 67000  time[fs]=67.00000
   C -0.660858440E+01 -0.350770996E+00  0.117717812E+00
   C  0.690960953E+01  0.326627012E+00 -0.603520693E-01
   H -0.351871208E+02  0.240205120E+01 -0.164591189E+01
   H  0.345388431E+02 -0.373585463E+01  0.264554066E+01
     4
 # iter = 67500  time[fs]=67.50000
   C -0.668369850E+01 -0.354695138E+00  0.119099575E+00
   C  0.698699411E+01  0.330644726E+00 -0.612390996E-01
   H -0.355510716E+02  0.242751415E+01 -0.166320116E+01
   H  0.348955454E+02 -0.377505463E+01  0.267326112E+01
     4
 # iter = 68000  time[fs]=68.00000
   C -0.675886367E+01 -0.358622121E+00  0.120482143E+00
   C  0.706442955E+01  0.334665532E+00 -0.621271144E-01
   H -0.359150893E+02  0.245298259E+01 -0.168049410E+01
   H  0.352523169E+02 -0.381426312E+01  0.270098739E+01
     4
 # iter = 68500  time[fs]=68.50000
   C -0.683407877E+01 -0.362551883E+00  0.121865501E+00
   C  0.714191473E+01  0.338689363E+00 -0.630160940E-01
   H -0.362791725E+02  0.247845640E+01 -0.169779063E+01
   H  0.356091563E+02 -0.385347995E+01  0.272871935E+01
     4
 # iter = 69000  time[fs]=69.00000
   C -0.690934271E+01 -0.366484366E+00  0.123249632E+00
   C  0.721944855E+01  0.342716157E+00 -0.639060190E-01
   H -0.366433199E+02  0.250393549E+01 -0.171509069E+01
   H  0.359660622E+02 -0.389270494E+01  0.275645690E+01
     4
 # iter = 69500  time[fs]=69.50000
   C -0.698465444E+01 -0.370419513E+00  0.124634521E+00
   C  0.729702997E+01  0.346745852E+00 -0.647968707E-01
   H -0.370075301E+02  0.252941974E+01 -0.173239419E+01
   H  0.363230333E+02 -0.393193794E+01  0.278419993E+01
     4
 # iter = 70000  time[fs]=70.00000
   C -0.706001293E+01 -0.374357270E+00  0.126020154E+00
   C  0.737465796E+01  0.350778388E+00 -0.656886311E-01
   H -0.373718021E+02  0.255490907E+01 -0.174970109E+01
   H  0.366800683E+02 -0.397117881E+01  0.281194834E+01
     4
 # iter = 70500  time[fs]=70.50000
   C -0.713541719E+01 -0.378297582E+00  0.127406515E+00
   C  0.745233155E+01  0.354813707E+00 -0.665812825E-01
   H -0.377361346E+02  0.258040338E+01 -0.176701131E+01
   H  0.370371660E+02 -0.401042739E+01  0.283970201E+01
     4
 # iter = 71000  time[fs]=71.00000
   C -0.721086626E+01 -0.382240398E+00  0.128793591E+00
   C  0.753004977E+01  0.358851754E+00 -0.674748078E-01
   H -0.381005264E+02  0.260590258E+01 -0.178432480E+01
   H  0.373943253E+02 -0.404968353E+01  0.286746086E+01
     4
 # iter = 71500  time[fs]=71.50000
   C -0.728635922E+01 -0.386185667E+00  0.130181368E+00
   C  0.760781169E+01  0.362892474E+00 -0.683691904E-01
   H -0.384649765E+02  0.263140656E+01 -0.180164149E+01
   H  0.377515449E+02 -0.408894711E+01  0.289522478E+01
     4
 # iter = 72000  time[fs]=72.00000
   C -0.736189516E+01 -0.390133341E+00  0.131569833E+00
   C  0.768561642E+01  0.366935814E+00 -0.692644140E-01
   H -0.388294838E+02  0.265691526E+01 -0.181896132E+01
   H  0.381088237E+02 -0.412821798E+01  0.292299369E+01
     4
 # iter = 72500  time[fs]=72.50000
   C -0.743747320E+01 -0.394083372E+00  0.132958973E+00
   C  0.776346309E+01  0.370981722E+00 -0.701604630E-01
   H -0.391940471E+02  0.268242858E+01 -0.183628423E+01
   H  0.384661606E+02 -0.416749600E+01  0.295076750E+01
     4
 # iter = 73000  time[fs]=73.00000
   C -0.751309249E+01 -0.398035715E+00  0.134348774E+00
   C  0.784135085E+01  0.375030149E+00 -0.710573221E-01
   H -0.395586656E+02  0.270794644E+01 -0.185361018E+01
   H  0.388235546E+02 -0.420678106E+01  0.297854611E+01
     4
 # iter = 73500  time[fs]=73.50000
   C -0.758875222E+01 -0.401990324E+00  0.135739226E+00
   C  0.791927887E+01  0.379081047E+00 -0.719549763E-01
   H -0.399233380E+02  0.273346876E+01 -0.187093911E+01
   H  0.391810046E+02 -0.424607303E+01  0.300632944E+01
     4
 # iter = 74000  time[fs]=74.00000
   C -0.766445157E+01 -0.405947155E+00  0.137130315E+00
   C  0.799724637E+01  0.383134368E+00 -0.728534112E-01
   H -0.402880636E+02  0.275899546E+01 -0.188827095E+01
   H  0.395385096E+02 -0.428537178E+01  0.303411740E+01
     4
 # iter = 74500  time[fs]=74.50000
   C -0.774018978E+01 -0.409906168E+00  0.138522032E+00
   C  0.807525255E+01  0.387190067E+00 -0.737526127E-01
   H -0.406528413E+02  0.278452646E+01 -0.190560568E+01
   H  0.398960686E+02 -0.432467720E+01  0.306190992E+01
     4
 # iter = 75000  time[fs]=75.00000
   C -0.781596608E+01 -0.413867320E+00  0.139914363E+00
   C  0.815329668E+01  0.391248098E+00 -0.746525671E-01
   H -0.410176703E+02  0.281006170E+01 -0.192294322E+01
   H  0.402536807E+02 -0.436398916E+01  0.308970691E+01
     4
 # iter = 75500  time[fs]=75.50000
   C -0.789177974E+01 -0.417830572E+00  0.141307298E+00
   C  0.823137803E+01  0.395308420E+00 -0.755532611E-01
   H -0.413825495E+02  0.283560109E+01 -0.194028354E+01
   H  0.406113450E+02 -0.440330757E+01  0.311750830E+01
     4
 # iter = 76000  time[fs]=76.00000
   C -0.796763006E+01 -0.421795885E+00  0.142700827E+00
   C  0.830949587E+01  0.399370989E+00 -0.764546815E-01
   H -0.417474782E+02  0.286114456E+01 -0.195762658E+01
   H  0.409690604E+02 -0.444263230E+01  0.314531402E+01
     4
 # iter = 76500  time[fs]=76.50000
   C -0.804351633E+01 -0.425763221E+00  0.144094939E+00
   C  0.838764953E+01  0.403435765E+00 -0.773568158E-01
   H -0.421124555E+02  0.288669205E+01 -0.197497230E+01
   H  0.413268262E+02 -0.448196325E+01  0.317312398E+01
     4
 # iter = 77000  time[fs]=77.00000
   C -0.811943788E+01 -0.429732543E+00  0.145489624E+00
   C  0.846583832E+01  0.407502707E+00 -0.782596517E-01
   H -0.424774806E+02  0.291224349E+01 -0.199232066E+01
   H  0.416846415E+02 -0.452130031E+01  0.320093812E+01
     4
 # iter = 77500  time[fs]=77.50000
   C -0.819539406E+01 -0.433703816E+00  0.146884873E+00
   C  0.854406160E+01  0.411571778E+00 -0.791631769E-01
   H -0.428425526E+02  0.293779882E+01 -0.200967161E+01
   H  0.420425054E+02 -0.456064339E+01  0.322875636E+01
     4
 # iter = 78000  time[fs]=78.00000
   C -0.827138422E+01 -0.437677005E+00  0.148280674E+00
   C  0.862231873E+01  0.415642940E+00 -0.800673799E-01
   H -0.432076708E+02  0.296335796E+01 -0.202702511E+01
   H  0.424004171E+02 -0.459999239E+01  0.325657865E+01
     4
 # iter = 78500  time[fs]=78.50000
   C -0.834740776E+01 -0.441652076E+00  0.149677020E+00
   C  0.870060909E+01  0.419716154E+00 -0.809722492E-01
   H -0.435728343E+02  0.298892087E+01 -0.204438111E+01
   H  0.427583758E+02 -0.463934720E+01  0.328440491E+01
     4
 # iter = 79000  time[fs]=79.00000
   C -0.842346406E+01 -0.445628995E+00  0.151073900E+00
   C  0.877893209E+01  0.423791387E+00 -0.818777736E-01
   H -0.439380425E+02  0.301448746E+01 -0.206173958E+01
   H  0.431163808E+02 -0.467870774E+01  0.331223508E+01
     4
 # iter = 79500  time[fs]=79.50000
   C -0.849955253E+01 -0.449607731E+00  0.152471307E+00
   C  0.885728713E+01  0.427868602E+00 -0.827839423E-01
   H -0.443032946E+02  0.304005770E+01 -0.207910048E+01
   H  0.434744312E+02 -0.471807391E+01  0.334006909E+01
     4
 # iter = 80000  time[fs]=80.00000
   C -0.857567261E+01 -0.453588252E+00  0.153869230E+00
   C  0.893567364E+01  0.431947766E+00 -0.836907447E-01
   H -0.446685899E+02  0.306563152E+01 -0.209646376E+01
   H  0.438325264E+02 -0.475744562E+01  0.336790689E+01
