     4
 # iter = 25000  time[fs]=25.00000
   C -0.941680963E+00  0.168384868E-01 -0.474572609E-01
   C  0.104684320E+01  0.284014503E-01  0.192760354E-01
   H -0.517135905E+01 -0.432138645E+00  0.491381962E+00
   H  0.535544824E+01  0.497693043E+00 -0.615327501E+00
     4
 # iter = 25500  time[fs]=25.50000
   C -0.984730726E+00  0.183845919E-01 -0.498041551E-01
   C  0.109361372E+01  0.277132399E-01  0.220377367E-01
   H -0.550173960E+01 -0.461221801E+00  0.526050149E+00
   H  0.567414162E+01  0.528744072E+00 -0.654577514E+00
     4
 # iter = 26000  time[fs]=26.00000
   C -0.103076333E+01  0.199388853E-01 -0.522870615E-01
   C  0.114340385E+01  0.270201051E-01  0.249373457E-01
   H -0.583780434E+01 -0.490853063E+00  0.561356312E+00
   H  0.599807790E+01  0.560304041E+00 -0.694488247E+00
     4
 # iter = 26500  time[fs]=26.50000
   C -0.107952911E+01  0.215033398E-01 -0.548959337E-01
   C  0.119595684E+01  0.263192992E-01  0.279650598E-01
   H -0.617890419E+01 -0.520969877E+00  0.597228305E+00
   H  0.632669310E+01  0.592319680E+00 -0.734990483E+00
     4
 # iter = 27000  time[fs]=27.00000
   C -0.113079527E+01  0.230794741E-01 -0.576214292E-01
   C  0.125103433E+01  0.256087109E-01  0.311116725E-01
   H -0.652448948E+01 -0.551519428E+00  0.633605189E+00
   H  0.665950439E+01  0.624745288E+00 -0.776024913E+00
     4
 # iter = 27500  time[fs]=27.50000
   C -0.118434713E+01  0.246683954E-01 -0.604548861E-01
   C  0.130841722E+01  0.248867759E-01  0.343685837E-01
   H -0.687409156E+01 -0.582456786E+00  0.670435079E+00
   H  0.699609601E+01  0.657541420E+00 -0.817540395E+00
     4
 # iter = 28000  time[fs]=28.00000
   C -0.123998823E+01  0.262708562E-01 -0.633882995E-01
   C  0.136790553E+01  0.241523869E-01  0.377277994E-01
   H -0.722730829E+01 -0.613743455E+00  0.707673486E+00
   H  0.733610797E+01  0.690673838E+00 -0.859492569E+00
     4
 # iter = 28500  time[fs]=28.50000
   C -0.129753981E+01  0.278873143E-01 -0.664142935E-01
   C  0.142931771E+01  0.234048086E-01  0.411819196E-01
   H -0.758379249E+01 -0.645346232E+00  0.745282001E+00
   H  0.767922696E+01  0.724112667E+00 -0.901842738E+00
     4
 # iter = 29000  time[fs]=29.00000
   C -0.135683990E+01  0.295179900E-01 -0.695260884E-01
   C  0.149248947E+01  0.226436032E-01  0.447241178E-01
   H -0.794324270E+01 -0.677236304E+00  0.783227261E+00
   H  0.802517889E+01  0.757831704E+00 -0.944556977E+00
     4
 # iter = 29500  time[fs]=29.50000
   C -0.141774208E+01  0.311629161E-01 -0.727174652E-01
   C  0.155727256E+01  0.218685664E-01  0.483481128E-01
   H -0.830539579E+01 -0.709388522E+00  0.821480116E+00
   H  0.837372288E+01  0.791807859E+00 -0.987605390E+00
     4
 # iter = 30000  time[fs]=30.00000
   C -0.148011422E+01  0.328219812E-01 -0.759827268E-01
   C  0.162353334E+01  0.210796740E-01  0.520481360E-01
   H -0.867002089E+01 -0.741780823E+00  0.860014967E+00
   H  0.872464629E+01  0.826020698E+00 -0.103096152E+01
     4
 # iter = 30500  time[fs]=30.50000
   C -0.154383718E+01  0.344949651E-01 -0.793166590E-01
   C  0.169115139E+01  0.202770385E-01  0.558188966E-01
   H -0.903691450E+01 -0.774393750E+00  0.898809215E+00
   H  0.907776062E+01  0.860452054E+00 -0.107460185E+01
     4
 # iter = 31000  time[fs]=31.00000
   C -0.160880353E+01  0.361815677E-01 -0.827144924E-01
   C  0.176001827E+01  0.194608744E-01  0.596555460E-01
   H -0.940589644E+01 -0.807210069E+00  0.937842821E+00
   H  0.943289806E+01  0.895085719E+00 -0.111850539E+01
     4
 # iter = 31500  time[fs]=31.50000
   C -0.167491638E+01  0.378814327E-01 -0.861718643E-01
   C  0.183003623E+01  0.186314701E-01  0.635536415E-01
   H -0.977680650E+01 -0.840214444E+00  0.977097940E+00
   H  0.978990875E+01  0.929907175E+00 -0.116265333E+01
     4
 # iter = 32000  time[fs]=32.00000
   C -0.174208827E+01  0.395941653E-01 -0.896847831E-01
   C  0.190111708E+01  0.177891663E-01  0.675091131E-01
   H -0.101495017E+02 -0.873393178E+00  0.101655861E+01
   H  0.101486583E+02  0.964903373E+00 -0.120702878E+01
     4
 # iter = 32500  time[fs]=32.50000
   C -0.181024018E+01  0.413193469E-01 -0.932495957E-01
   C  0.197318121E+01  0.169343387E-01  0.715182302E-01
   H -0.105238539E+02 -0.906733988E+00  0.105621052E+01
   H  0.105090258E+02  0.100006254E+01 -0.125161647E+01
     4
 # iter = 33000  time[fs]=33.00000
   C -0.187930062E+01  0.430565455E-01 -0.968629555E-01
   C  0.204615661E+01  0.160673852E-01  0.755775718E-01
   H -0.108997479E+02 -0.940225819E+00  0.109604075E+01
   H  0.108709021E+02  0.103537404E+01 -0.129640263E+01
     4
 # iter = 33500  time[fs]=33.50000
   C -0.194920481E+01  0.448053250E-01 -0.100521795E+00
   C  0.211997808E+01  0.151887153E-01  0.796839981E-01
   H -0.112770798E+02 -0.973858693E+00  0.113603766E+01
   H  0.112341886E+02  0.107082821E+01 -0.134137472E+01
     4
 # iter = 34000  time[fs]=34.00000
   C -0.201989397E+01  0.465652503E-01 -0.104223298E+00
   C  0.219458648E+01  0.142987430E-01  0.838346249E-01
   H -0.116557557E+02 -0.100762357E+01  0.117619067E+01
   H  0.115987955E+02  0.110641626E+01 -0.138652135E+01
     4
 # iter = 34500  time[fs]=34.50000
   C -0.209131470E+01  0.483358931E-01 -0.107964879E+00
   C  0.226992809E+01  0.133978806E-01  0.880268000E-01
   H -0.120356903E+02 -0.104151224E+01  0.121649017E+01
   H  0.119646413E+02  0.114213017E+01 -0.143183212E+01
     4
 # iter = 35000  time[fs]=35.00000
   C -0.216341836E+01  0.501168343E-01 -0.111744159E+00
   C  0.234595402E+01  0.124865345E-01  0.922580816E-01
   H -0.124168058E+02 -0.107551721E+01  0.125692740E+01
   H  0.123316515E+02  0.117796262E+01 -0.147729751E+01
     4
 # iter = 35500  time[fs]=35.50000
   C -0.223616061E+01  0.519076670E-01 -0.115558947E+00
   C  0.242261969E+01  0.115651027E-01  0.965262192E-01
   H -0.127990315E+02 -0.110963166E+01  0.129749435E+01
   H  0.126997580E+02  0.121390687E+01 -0.152290880E+01
     4
 # iter = 36000  time[fs]=36.00000
   C -0.230950094E+01  0.537079979E-01 -0.119407222E+00
   C  0.249988441E+01  0.106339716E-01  0.100829136E+00
   H -0.131823026E+02 -0.114384933E+01  0.133818368E+01
   H  0.130688984E+02  0.124995675E+01 -0.156865797E+01
     4
 # iter = 36500  time[fs]=36.50000
   C -0.238340227E+01  0.555174481E-01 -0.123287119E+00
   C  0.257771093E+01  0.969351549E-02  0.105164912E+00
   H -0.135665598E+02 -0.117816447E+01  0.137898865E+01
   H  0.134390151E+02  0.128610657E+01 -0.161453763E+01
     4
 # iter = 37000  time[fs]=37.00000
   C -0.245783063E+01  0.573356539E-01 -0.127196914E+00
   C  0.265606514E+01  0.874409515E-02  0.109531773E+00
   H -0.139517483E+02 -0.121257180E+01  0.141990305E+01
   H  0.138100554E+02  0.132235108E+01 -0.166054096E+01
     4
 # iter = 37500  time[fs]=37.50000
   C -0.253275482E+01  0.591622670E-01 -0.131135009E+00
   C  0.273491570E+01  0.778605734E-02  0.113928073E+00
   H -0.143378180E+02 -0.124706645E+01  0.146092115E+01
   H  0.141819705E+02  0.135868543E+01 -0.170666165E+01
     4
 # iter = 38000  time[fs]=38.00000
   C -0.260814613E+01  0.609969544E-01 -0.135099925E+00
   C  0.281423381E+01  0.681973468E-02  0.118352287E+00
   H -0.147247225E+02 -0.128164391E+01  0.150203765E+01
   H  0.145547153E+02  0.139510513E+01 -0.175289387E+01
     4
 # iter = 38500  time[fs]=38.50000
   C -0.268397813E+01  0.628393980E-01 -0.139090287E+00
   C  0.289399294E+01  0.584544563E-02  0.122802996E+00
   H -0.151124189E+02 -0.131630003E+01  0.154324766E+01
   H  0.149282480E+02  0.143160600E+01 -0.179923218E+01
     4
 # iter = 39000  time[fs]=39.00000
   C -0.276022643E+01  0.646892947E-01 -0.143104818E+00
   C  0.297416862E+01  0.486349465E-02  0.127278882E+00
   H -0.155008675E+02 -0.135103092E+01  0.158454662E+01
   H  0.153025298E+02  0.146818416E+01 -0.184567155E+01
     4
 # iter = 39500  time[fs]=39.50000
   C -0.283686847E+01  0.665463553E-01 -0.147142330E+00
   C  0.305473824E+01  0.387417255E-02  0.131778719E+00
   H -0.158900314E+02 -0.138583302E+01  0.162593031E+01
   H  0.156775247E+02  0.150483600E+01 -0.189220727E+01
     4
 # iter = 40000  time[fs]=40.00000
   C -0.291388340E+01  0.684103048E-01 -0.151201714E+00
   C  0.313568085E+01  0.287775687E-02  0.136301360E+00
   H -0.162798763E+02 -0.142070297E+01  0.166739478E+01
   H  0.160531992E+02  0.154155816E+01 -0.193883496E+01
     4
 # iter = 40500  time[fs]=40.50000
   C -0.299125185E+01  0.702808809E-01 -0.155281938E+00
   C  0.321697707E+01  0.187451233E-02  0.140845739E+00
   H -0.166703703E+02 -0.145563767E+01  0.170893635E+01
   H  0.164295220E+02  0.157834748E+01 -0.198555054E+01
     4
 # iter = 41000  time[fs]=41.00000
   C -0.306895588E+01  0.721578343E-01 -0.159382036E+00
   C  0.329860889E+01  0.864691313E-03  0.145410855E+00
   H -0.170614837E+02 -0.149063420E+01  0.175055161E+01
   H  0.168064638E+02  0.161520104E+01 -0.203235016E+01
     4
 # iter = 41500  time[fs]=41.50000
   C -0.314697879E+01  0.740409276E-01 -0.163501105E+00
   C  0.338055957E+01 -0.151465571E-03  0.149995775E+00
   H -0.174531887E+02 -0.152568985E+01  0.179223733E+01
   H  0.171839973E+02  0.165211606E+01 -0.207923023E+01
     4
 # iter = 42000  time[fs]=42.00000
   C -0.322530502E+01  0.759299348E-01 -0.167638299E+00
   C  0.346281354E+01 -0.117372901E-02  0.154599624E+00
   H -0.178454593E+02 -0.156080208E+01  0.183399052E+01
   H  0.175620971E+02  0.168908997E+01 -0.212618741E+01
     4
 # iter = 42500  time[fs]=42.50000
   C -0.330392009E+01  0.778246408E-01 -0.171792827E+00
   C  0.354535626E+01 -0.220188043E-02  0.159221579E+00
   H -0.182382712E+02 -0.159596849E+01  0.187580834E+01
   H  0.179407390E+02  0.172612034E+01 -0.217321851E+01
     4
 # iter = 43000  time[fs]=43.00000
   C -0.338281048E+01  0.797248409E-01 -0.175963943E+00
   C  0.362817420E+01 -0.323571151E-02  0.163860870E+00
   H -0.186316014E+02 -0.163118686E+01  0.191768817E+01
   H  0.183199005E+02  0.176320489E+01 -0.222032057E+01
     4
 # iter = 43500  time[fs]=43.50000
   C -0.346196354E+01  0.816303400E-01 -0.180150949E+00
   C  0.371125468E+01 -0.427502363E-02  0.168516772E+00
   H -0.190254287E+02 -0.166645507E+01  0.195962749E+01
   H  0.186995605E+02  0.180034147E+01 -0.226749078E+01
     4
 # iter = 44000  time[fs]=44.00000
   C -0.354136743E+01  0.835409525E-01 -0.184353188E+00
   C  0.379458586E+01 -0.531962741E-02  0.173188603E+00
   H -0.194197328E+02 -0.170177115E+01  0.200162397E+01
   H  0.190796991E+02  0.183752805E+01 -0.231472651E+01
     4
 # iter = 44500  time[fs]=44.50000
   C -0.362101108E+01  0.854565014E-01 -0.188570040E+00
   C  0.387815663E+01 -0.636934224E-02  0.177875721E+00
   H -0.198144948E+02 -0.173713323E+01  0.204367540E+01
   H  0.194602975E+02  0.187476273E+01 -0.236202527E+01
     4
 # iter = 45000  time[fs]=45.00000
   C -0.370088408E+01  0.873768180E-01 -0.192800924E+00
   C  0.396195658E+01 -0.742399579E-02  0.182577521E+00
   H -0.202096967E+02 -0.177253955E+01  0.208577969E+01
   H  0.198413380E+02  0.191204370E+01 -0.240938470E+01
     4
 # iter = 45500  time[fs]=45.50000
   C -0.378097668E+01  0.893017416E-01 -0.197045287E+00
   C  0.404597594E+01 -0.848342363E-02  0.187293431E+00
   H -0.206053218E+02 -0.180798844E+01  0.212793487E+01
   H  0.202228038E+02  0.194936926E+01 -0.245680258E+01
     4
 # iter = 46000  time[fs]=46.00000
   C -0.386127969E+01  0.912311187E-01 -0.201302612E+00
   C  0.413020552E+01 -0.954746875E-02  0.192022911E+00
   H -0.210013541E+02 -0.184347835E+01  0.217013908E+01
   H  0.206046792E+02  0.198673779E+01 -0.250427679E+01
     4
 # iter = 46500  time[fs]=46.50000
   C -0.394178448E+01  0.931648029E-01 -0.205572405E+00
   C  0.421463667E+01 -0.106159812E-01  0.196765451E+00
   H -0.213977785E+02 -0.187900777E+01  0.221239056E+01
   H  0.209869492E+02  0.202414776E+01 -0.255180535E+01
     4
 # iter = 47000  time[fs]=47.00000
   C -0.402248291E+01  0.951026545E-01 -0.209854205E+00
   C  0.429926124E+01 -0.116888178E-01  0.201520567E+00
   H -0.217945809E+02 -0.191457530E+01  0.225468762E+01
   H  0.213695996E+02  0.206159772E+01 -0.259938637E+01
     4
 # iter = 47500  time[fs]=47.50000
   C -0.410336731E+01  0.970445400E-01 -0.214147569E+00
   C  0.438407157E+01 -0.127658415E-01  0.206287802E+00
   H -0.221917476E+02 -0.195017962E+01  0.229702870E+01
   H  0.217526170E+02  0.209908630E+01 -0.264701804E+01
     4
 # iter = 48000  time[fs]=48.00000
   C -0.418443043E+01  0.989903319E-01 -0.218452081E+00
   C  0.446906040E+01 -0.138469216E-01  0.211066723E+00
   H -0.225892659E+02 -0.198581944E+01  0.233941228E+01
   H  0.221359888E+02  0.213661219E+01 -0.269469865E+01
     4
 # iter = 48500  time[fs]=48.50000
   C -0.426566543E+01  0.100939908E+00 -0.222767347E+00
   C  0.455422088E+01 -0.149319326E-01  0.215856918E+00
   H -0.229871237E+02 -0.202149357E+01  0.238183694E+01
   H  0.225197027E+02  0.217417415E+01 -0.274242660E+01
     4
 # iter = 49000  time[fs]=49.00000
   C -0.434706583E+01  0.102893152E+00 -0.227092990E+00
   C  0.463954654E+01 -0.160207548E-01  0.220657995E+00
   H -0.233853094E+02 -0.205720087E+01  0.242430131E+01
   H  0.229037473E+02  0.221177099E+01 -0.279020032E+01
     4
 # iter = 49500  time[fs]=49.50000
   C -0.442862553E+01  0.104849953E+00 -0.231428655E+00
   C  0.472503124E+01 -0.171132735E-01  0.225469585E+00
   H -0.237838122E+02 -0.209294025E+01  0.246680411E+01
   H  0.232881117E+02  0.224940160E+01 -0.283801836E+01
     4
 # iter = 50000  time[fs]=50.00000
   C -0.451033870E+01  0.106810203E+00 -0.235774002E+00
   C  0.481066920E+01 -0.182093787E-01  0.230291333E+00
   H -0.241826214E+02 -0.212871066E+01  0.250934409E+01
   H  0.236727854E+02  0.228706489E+01 -0.288587930E+01
     4
 # iter = 50500  time[fs]=50.50000
   C -0.459219985E+01  0.108773800E+00 -0.240128709E+00
   C  0.489645490E+01 -0.193089651E-01  0.235122904E+00
   H -0.245817273E+02 -0.216451114E+01  0.255192010E+01
   H  0.240577586E+02  0.232475985E+01 -0.293378182E+01
     4
 # iter = 51000  time[fs]=51.00000
   C -0.467420376E+01  0.110740646E+00 -0.244492468E+00
   C  0.498238312E+01 -0.204119317E-01  0.239963977E+00
   H -0.249811203E+02 -0.220034073E+01  0.259453101E+01
   H  0.244430218E+02  0.236248550E+01 -0.298172463E+01
     4
 # iter = 51500  time[fs]=51.50000
   C -0.475634546E+01  0.112710647E+00 -0.248864988E+00
   C  0.506844890E+01 -0.215181817E-01  0.244814247E+00
   H -0.253807915E+02 -0.223619854E+01  0.263717575E+01
   H  0.248285660E+02  0.240024090E+01 -0.302970652E+01
     4
 # iter = 52000  time[fs]=52.00000
   C -0.483862026E+01  0.114683713E+00 -0.253245989E+00
   C  0.515464753E+01 -0.226276222E-01  0.249673424E+00
   H -0.257807322E+02 -0.227208372E+01  0.267985330E+01
   H  0.252143825E+02  0.243802518E+01 -0.307772633E+01
     4
 # iter = 52500  time[fs]=52.50000
   C -0.492102365E+01  0.116659758E+00 -0.257635205E+00
   C  0.524097453E+01 -0.237401639E-01  0.254541230E+00
   H -0.261809343E+02 -0.230799543E+01  0.272256269E+01
   H  0.256004632E+02  0.247583747E+01 -0.312578293E+01
     4
 # iter = 53000  time[fs]=53.00000
   C -0.500355139E+01  0.118638698E+00 -0.262032382E+00
   C  0.532742563E+01 -0.248557212E-01  0.259417400E+00
   H -0.265813898E+02 -0.234393291E+01  0.276530298E+01
   H  0.259868002E+02  0.251367696E+01 -0.317387527E+01
     4
 # iter = 53500  time[fs]=53.50000
   C -0.508619939E+01  0.120620454E+00 -0.266437277E+00
   C  0.541399677E+01 -0.259742118E-01  0.264301680E+00
   H -0.269820913E+02 -0.237989540E+01  0.280807328E+01
   H  0.263733860E+02  0.255154287E+01 -0.322200232E+01
     4
 # iter = 54000  time[fs]=54.00000
   C -0.516896380E+01  0.122604949E+00 -0.270849659E+00
   C  0.550068408E+01 -0.270955566E-01  0.269193827E+00
   H -0.273830316E+02 -0.241588218E+01  0.285087274E+01
   H  0.267602134E+02  0.258943445E+01 -0.327016311E+01
     4
 # iter = 54500  time[fs]=54.50000
   C -0.525184091E+01  0.124592110E+00 -0.275269305E+00
   C  0.558748386E+01 -0.282196796E-01  0.274093611E+00
   H -0.277842038E+02 -0.245189257E+01  0.289370053E+01
   H  0.271472754E+02  0.262735100E+01 -0.331835669E+01
     4
 # iter = 55000  time[fs]=55.00000
   C -0.533482721E+01  0.126581866E+00 -0.279696003E+00
   C  0.567439260E+01 -0.293465074E-01  0.279000809E+00
   H -0.281856014E+02 -0.248792591E+01  0.293655588E+01
   H  0.275345655E+02  0.266529181E+01 -0.336658217E+01
     4
 # iter = 55500  time[fs]=55.50000
   C -0.541791931E+01  0.128574148E+00 -0.284129550E+00
   C  0.576140691E+01 -0.304759698E-01  0.283915208E+00
   H -0.285872179E+02 -0.252398156E+01  0.297943802E+01
   H  0.279220774E+02  0.270325624E+01 -0.341483869E+01
     4
 # iter = 56000  time[fs]=56.00000
   C -0.550111400E+01  0.130568892E+00 -0.288569750E+00
   C  0.584852359E+01 -0.316079990E-01  0.288836605E+00
   H -0.289890475E+02 -0.256005893E+01  0.302234624E+01
   H  0.283098049E+02  0.274124365E+01 -0.346312542E+01
     4
 # iter = 56500  time[fs]=56.50000
   C -0.558440820E+01  0.132566033E+00 -0.293016417E+00
   C  0.593573957E+01 -0.327425295E-01  0.293764805E+00
   H -0.293910842E+02 -0.259615743E+01  0.306527984E+01
   H  0.286977423E+02  0.277925342E+01 -0.351144155E+01
     4
 # iter = 57000  time[fs]=57.00000
   C -0.566779898E+01  0.134565512E+00 -0.297469371E+00
   C  0.602305189E+01 -0.338794986E-01  0.298699620E+00
   H -0.297933225E+02 -0.263227650E+01  0.310823815E+01
   H  0.290858839E+02  0.281728499E+01 -0.355978633E+01
     4
 # iter = 57500  time[fs]=57.50000
   C -0.575128350E+01  0.136567270E+00 -0.301928440E+00
   C  0.611045774E+01 -0.350188455E-01  0.303640869E+00
   H -0.301957570E+02 -0.266841561E+01  0.315122054E+01
   H  0.294742244E+02  0.285533777E+01 -0.360815902E+01
     4
 # iter = 58000  time[fs]=58.00000
   C -0.583485907E+01  0.138571250E+00 -0.306393459E+00
   C  0.619795442E+01 -0.361605118E-01  0.308588380E+00
   H -0.305983826E+02 -0.270457423E+01  0.319422638E+01
   H  0.298627586E+02  0.289341124E+01 -0.365655891E+01
     4
 # iter = 58500  time[fs]=58.50000
   C -0.591852310E+01  0.140577397E+00 -0.310864270E+00
   C  0.628553934E+01 -0.373044411E-01  0.313541988E+00
   H -0.310011944E+02 -0.274075188E+01  0.323725509E+01
   H  0.302514814E+02  0.293150488E+01 -0.370498532E+01
     4
 # iter = 59000  time[fs]=59.00000
   C -0.600227310E+01  0.142585660E+00 -0.315340719E+00
   C  0.637321003E+01 -0.384505790E-01  0.318501531E+00
   H -0.314041875E+02 -0.277694807E+01  0.328030609E+01
   H  0.306403882E+02  0.296961817E+01 -0.375343759E+01
     4
 # iter = 59500  time[fs]=59.50000
   C -0.608610669E+01  0.144595988E+00 -0.319822660E+00
   C  0.646096410E+01 -0.395988729E-01  0.323466858E+00
   H -0.318073574E+02 -0.281316234E+01  0.332337882E+01
   H  0.310294743E+02  0.300775065E+01 -0.380191508E+01
     4
 # iter = 60000  time[fs]=60.00000
   C -0.617002159E+01  0.146608331E+00 -0.324309952E+00
   C  0.654879927E+01 -0.407492720E-01  0.328437819E+00
   H -0.322106997E+02 -0.284939424E+01  0.336647277E+01
   H  0.314187352E+02  0.304590183E+01 -0.385041720E+01
     4
 # iter = 60500  time[fs]=60.50000
   C -0.625401560E+01  0.148622643E+00 -0.328802459E+00
   C  0.663671335E+01 -0.419017274E-01  0.333414272E+00
   H -0.326142102E+02 -0.288564336E+01  0.340958741E+01
   H  0.318081667E+02  0.308407129E+01 -0.389894334E+01
     4
 # iter = 61000  time[fs]=61.00000
   C -0.633808661E+01  0.150638878E+00 -0.333300050E+00
   C  0.672470422E+01 -0.430561916E-01  0.338396081E+00
   H -0.330178846E+02 -0.292190928E+01  0.345272226E+01
   H  0.321977647E+02  0.312225857E+01 -0.394749295E+01
     4
 # iter = 61500  time[fs]=61.50000
   C -0.642223259E+01  0.152656991E+00 -0.337802598E+00
   C  0.681276987E+01 -0.442126190E-01  0.343383113E+00
   H -0.334217192E+02 -0.295819160E+01  0.349587684E+01
   H  0.325875251E+02  0.316046327E+01 -0.399606547E+01
     4
 # iter = 62000  time[fs]=62.00000
   C -0.650645158E+01  0.154676940E+00 -0.342309983E+00
   C  0.690090833E+01 -0.453709652E-01  0.348375241E+00
   H -0.338257100E+02 -0.299448993E+01  0.353905069E+01
   H  0.329774442E+02  0.319868497E+01 -0.404466038E+01
     4
 # iter = 62500  time[fs]=62.50000
   C -0.659074172E+01  0.156698684E+00 -0.346822087E+00
   C  0.698911774E+01 -0.465311873E-01  0.353372343E+00
   H -0.342298535E+02 -0.303080391E+01  0.358224336E+01
   H  0.333675182E+02  0.323692330E+01 -0.409327716E+01
     4
 # iter = 63000  time[fs]=63.00000
   C -0.667510118E+01  0.158722183E+00 -0.351338798E+00
   C  0.707739629E+01 -0.476932440E-01  0.358374299E+00
   H -0.346341459E+02 -0.306713318E+01  0.362545443E+01
   H  0.337577435E+02  0.327517787E+01 -0.414191531E+01
     4
 # iter = 63500  time[fs]=63.50000
   C -0.675952823E+01  0.160747398E+00 -0.355860005E+00
   C  0.716574224E+01 -0.488570950E-01  0.363380995E+00
   H -0.350385840E+02 -0.310347739E+01  0.366868349E+01
   H  0.341481168E+02  0.331344832E+01 -0.419057438E+01
     4
 # iter = 64000  time[fs]=64.00000
   C -0.684402119E+01  0.162774292E+00 -0.360385604E+00
   C  0.725415391E+01 -0.500227017E-01  0.368392321E+00
   H -0.354431645E+02 -0.313983621E+01  0.371193013E+01
   H  0.345386345E+02  0.335173430E+01 -0.423925388E+01
     4
 # iter = 64500  time[fs]=64.50000
   C -0.692857844E+01  0.164802829E+00 -0.364915493E+00
   C  0.734262969E+01 -0.511900262E-01  0.373408170E+00
   H -0.358478840E+02 -0.317620931E+01  0.375519396E+01
   H  0.349292936E+02  0.339003546E+01 -0.428795337E+01
     4
 # iter = 65000  time[fs]=65.00000
   C -0.701319842E+01  0.166832973E+00 -0.369449574E+00
   C  0.743116802E+01 -0.523590323E-01  0.378428439E+00
   H -0.362527395E+02 -0.321259638E+01  0.379847462E+01
   H  0.353200908E+02  0.342835149E+01 -0.433667243E+01
     4
 # iter = 65500  time[fs]=65.50000
   C -0.709787963E+01  0.168864691E+00 -0.373987751E+00
   C  0.751976739E+01 -0.535296845E-01  0.383453028E+00
   H -0.366577280E+02 -0.324899712E+01  0.384177173E+01
   H  0.357110232E+02  0.346668205E+01 -0.438541062E+01
     4
 # iter = 66000  time[fs]=66.00000
   C -0.718262061E+01  0.170897949E+00 -0.378529934E+00
   C  0.760842637E+01 -0.547019487E-01  0.388481842E+00
   H -0.370628467E+02 -0.328541123E+01  0.388508495E+01
   H  0.361020878E+02  0.350502684E+01 -0.443416756E+01
     4
 # iter = 66500  time[fs]=66.50000
   C -0.726741996E+01  0.172932717E+00 -0.383076032E+00
   C  0.769714354E+01 -0.558757915E-01  0.393514786E+00
   H -0.374680927E+02 -0.332183843E+01  0.392841394E+01
   H  0.364932819E+02  0.354338556E+01 -0.448294284E+01
     4
 # iter = 67000  time[fs]=67.00000
   C -0.735227633E+01  0.174968962E+00 -0.387625961E+00
   C  0.778591755E+01 -0.570511808E-01  0.398551771E+00
   H -0.378734632E+02 -0.335827845E+01  0.397175837E+01
   H  0.368846026E+02  0.358175792E+01 -0.453173608E+01
     4
 # iter = 67500  time[fs]=67.50000
   C -0.743718840E+01  0.177006654E+00 -0.392179636E+00
   C  0.787474710E+01 -0.582280853E-01  0.403592709E+00
   H -0.382789558E+02 -0.339473102E+01  0.401511791E+01
   H  0.372760473E+02  0.362014364E+01 -0.458054692E+01
     4
 # iter = 68000  time[fs]=68.00000
   C -0.752215491E+01  0.179045766E+00 -0.396736978E+00
   C  0.796363092E+01 -0.594064748E-01  0.408637516E+00
   H -0.386845677E+02 -0.343119588E+01  0.405849227E+01
   H  0.376676134E+02  0.365854244E+01 -0.462937499E+01
     4
 # iter = 68500  time[fs]=68.50000
   C -0.760717464E+01  0.181086268E+00 -0.401297908E+00
   C  0.805256780E+01 -0.605863196E-01  0.413686110E+00
   H -0.390902966E+02 -0.346767279E+01  0.410188113E+01
   H  0.380592984E+02  0.369695407E+01 -0.467821996E+01
     4
 # iter = 69000  time[fs]=69.00000
   C -0.769224640E+01  0.183128132E+00 -0.405862351E+00
   C  0.814155654E+01 -0.617675913E-01  0.418738411E+00
   H -0.394961401E+02 -0.350416149E+01  0.414528421E+01
   H  0.384510999E+02  0.373537826E+01 -0.472708147E+01
     4
 # iter = 69500  time[fs]=69.50000
   C -0.777736905E+01  0.185171333E+00 -0.410430234E+00
   C  0.823059601E+01 -0.629502621E-01  0.423794343E+00
   H -0.399020958E+02 -0.354066175E+01  0.418870123E+01
   H  0.388430156E+02  0.377381477E+01 -0.477595922E+01
     4
 # iter = 70000  time[fs]=70.00000
   C -0.786254148E+01  0.187215844E+00 -0.415001485E+00
   C  0.831968511E+01 -0.641343049E-01  0.428853830E+00
   H -0.403081615E+02 -0.357717335E+01  0.423213190E+01
   H  0.392350431E+02  0.381226336E+01 -0.482485287E+01
     4
 # iter = 70500  time[fs]=70.50000
   C -0.794776261E+01  0.189261641E+00 -0.419576036E+00
   C  0.840882275E+01 -0.653196935E-01  0.433916801E+00
   H -0.407143349E+02 -0.361369606E+01  0.427557597E+01
   H  0.396271804E+02  0.385072379E+01 -0.487376212E+01
     4
 # iter = 71000  time[fs]=71.00000
   C -0.803303140E+01  0.191308697E+00 -0.424153820E+00
   C  0.849800790E+01 -0.665064025E-01  0.438983186E+00
   H -0.411206141E+02 -0.365022966E+01  0.431903318E+01
   H  0.400194251E+02  0.388919583E+01 -0.492268668E+01
     4
 # iter = 71500  time[fs]=71.50000
   C -0.811834686E+01  0.193356991E+00 -0.428734772E+00
   C  0.858723956E+01 -0.676944071E-01  0.444052916E+00
   H -0.415269968E+02 -0.368677395E+01  0.436250327E+01
   H  0.404117752E+02  0.392767926E+01 -0.497162624E+01
     4
 # iter = 72000  time[fs]=72.00000
   C -0.820370799E+01  0.195406498E+00 -0.433318829E+00
   C  0.867651676E+01 -0.688836831E-01  0.449125925E+00
   H -0.419334812E+02 -0.372332873E+01  0.440598600E+01
   H  0.408042288E+02  0.396617387E+01 -0.502058054E+01
     4
 # iter = 72500  time[fs]=72.50000
   C -0.828911386E+01  0.197457197E+00 -0.437905931E+00
   C  0.876583854E+01 -0.700742071E-01  0.454202149E+00
   H -0.423400652E+02 -0.375989379E+01  0.444948114E+01
   H  0.411967837E+02  0.400467945E+01 -0.506954928E+01
     4
 # iter = 73000  time[fs]=73.00000
   C -0.837456355E+01  0.199509065E+00 -0.442496017E+00
   C  0.885520399E+01 -0.712659563E-01  0.459281526E+00
   H -0.427467470E+02 -0.379646894E+01  0.449298845E+01
   H  0.415894382E+02  0.404319578E+01 -0.511853221E+01
     4
 # iter = 73500  time[fs]=73.50000
   C -0.846005616E+01  0.201562081E+00 -0.447089031E+00
   C  0.894461222E+01 -0.724589084E-01  0.464363995E+00
   H -0.431535247E+02 -0.383305400E+01  0.453650770E+01
   H  0.419821904E+02  0.408172269E+01 -0.516752907E+01
     4
 # iter = 74000  time[fs]=74.00000
   C -0.854559084E+01  0.203616224E+00 -0.451684916E+00
   C  0.903406238E+01 -0.736530419E-01  0.469449497E+00
   H -0.435603966E+02 -0.386964879E+01  0.458003869E+01
   H  0.423750384E+02  0.412025997E+01 -0.521653960E+01
     4
 # iter = 74500  time[fs]=74.50000
   C -0.863116674E+01  0.205671474E+00 -0.456283617E+00
   C  0.912355362E+01 -0.748483356E-01  0.474537975E+00
   H -0.439673609E+02 -0.390625312E+01  0.462358119E+01
   H  0.427679805E+02  0.415880743E+01 -0.526556356E+01
     4
 # iter = 75000  time[fs]=75.00000
   C -0.871678305E+01  0.207727812E+00 -0.460885083E+00
   C  0.921308513E+01 -0.760447692E-01  0.479629373E+00
   H -0.443744159E+02 -0.394286683E+01  0.466713500E+01
   H  0.431610149E+02  0.419736490E+01 -0.531460071E+01
     4
 # iter = 75500  time[fs]=75.50000
   C -0.880243897E+01  0.209785218E+00 -0.465489261E+00
   C  0.930265613E+01 -0.772423226E-01  0.484723638E+00
   H -0.447815600E+02 -0.397948975E+01  0.471069993E+01
   H  0.435541401E+02  0.423593220E+01 -0.536365081E+01
     4
 # iter = 76000  time[fs]=76.00000
   C -0.888813375E+01  0.211843674E+00 -0.470096102E+00
   C  0.939226584E+01 -0.784409763E-01  0.489820716E+00
   H -0.451887916E+02 -0.401612171E+01  0.475427577E+01
   H  0.439473543E+02  0.427450915E+01 -0.541271363E+01
     4
 # iter = 76500  time[fs]=76.50000
   C -0.897386663E+01  0.213903161E+00 -0.474705557E+00
   C  0.948191353E+01 -0.796407115E-01  0.494920557E+00
   H -0.455961091E+02 -0.405276256E+01  0.479786233E+01
   H  0.443406561E+02  0.431309558E+01 -0.546178896E+01
     4
 # iter = 77000  time[fs]=77.00000
   C -0.905963690E+01  0.215963662E+00 -0.479317578E+00
   C  0.957159846E+01 -0.808415096E-01  0.500023110E+00
   H -0.460035111E+02 -0.408941215E+01  0.484145942E+01
   H  0.447340438E+02  0.435169134E+01 -0.551087659E+01
     4
 # iter = 77500  time[fs]=77.50000
   C -0.914544383E+01  0.218025159E+00 -0.483932120E+00
   C  0.966131994E+01 -0.820433526E-01  0.505128327E+00
   H -0.464109959E+02 -0.412607031E+01  0.488506688E+01
   H  0.451275161E+02  0.439029626E+01 -0.555997629E+01
     4
 # iter = 78000  time[fs]=78.00000
   C -0.923128675E+01  0.220087637E+00 -0.488549137E+00
   C  0.975107728E+01 -0.832462230E-01  0.510236161E+00
   H -0.468185623E+02 -0.416273691E+01  0.492868451E+01
   H  0.455210713E+02  0.442891018E+01 -0.560908787E+01
     4
 # iter = 78500  time[fs]=78.50000
   C -0.931716500E+01  0.222151077E+00 -0.493168586E+00
   C  0.984086981E+01 -0.844501035E-01  0.515346566E+00
   H -0.472262087E+02 -0.419941179E+01  0.497231216E+01
   H  0.459147081E+02  0.446753296E+01 -0.565821112E+01
     4
 # iter = 79000  time[fs]=79.00000
   C -0.940307791E+01  0.224215465E+00 -0.497790425E+00
   C  0.993069690E+01 -0.856549776E-01  0.520459498E+00
   H -0.476339339E+02 -0.423609483E+01  0.501594964E+01
   H  0.463084251E+02  0.450616445E+01 -0.570734585E+01
     4
 # iter = 79500  time[fs]=79.50000
   C -0.948902487E+01  0.226280784E+00 -0.502414611E+00
   C  0.100205579E+02 -0.868608288E-01  0.525574911E+00
   H -0.480417364E+02 -0.427278589E+01  0.505959680E+01
   H  0.467022210E+02  0.454480449E+01 -0.575649188E+01
     4
 # iter = 80000  time[fs]=80.00000
   C -0.957500525E+01  0.228347020E+00 -0.507041105E+00
   C  0.101104522E+02 -0.880676413E-01  0.530692764E+00
   H -0.484496151E+02 -0.430948483E+01  0.510325347E+01
   H  0.470960944E+02  0.458345296E+01 -0.580564901E+01
