     4
 # iter = 25000  time[fs]=25.00000
   C -0.917137305E+00  0.320719517E-01  0.376260776E-01
   C  0.103341959E+01  0.135637564E-01 -0.229470484E-01
   H -0.521722721E+01  0.244313188E+00 -0.355247915E+00
   H  0.529513075E+01  0.301645246E+00 -0.271321352E+00
     4
 # iter = 25500  time[fs]=25.50000
   C -0.956629846E+00  0.316314022E-01  0.402983078E-01
   C  0.107619381E+01  0.128433426E-01 -0.223329752E-01
   H -0.554408250E+01  0.257072496E+00 -0.378289254E+00
   H  0.561513471E+01  0.320066152E+00 -0.287556237E+00
     4
 # iter = 26000  time[fs]=26.00000
   C -0.998491947E+00  0.312038176E-01  0.430613667E-01
   C  0.112133299E+01  0.120885442E-01 -0.217823868E-01
   H -0.587363077E+01  0.269939203E+00 -0.401523569E+00
   H  0.593788688E+01  0.338636695E+00 -0.303926272E+00
     4
 # iter = 26500  time[fs]=26.50000
   C -0.104253648E+01  0.307879404E-01  0.459069656E-01
   C  0.116865004E+01  0.113029745E-01 -0.212899834E-01
   H -0.620557320E+01  0.282900962E+00 -0.424929502E+00
   H  0.626308799E+01  0.357340952E+00 -0.320416950E+00
     4
 # iter = 27000  time[fs]=27.00000
   C -0.108858921E+01  0.303826041E-01  0.488276675E-01
   C  0.121797083E+01  0.104897891E-01 -0.208508547E-01
   H -0.653965709E+01  0.295947425E+00 -0.448489056E+00
   H  0.659048404E+01  0.376165404E+00 -0.337015947E+00
     4
 # iter = 27500  time[fs]=27.50000
   C -0.113648921E+01  0.299867436E-01  0.518168057E-01
   C  0.126913458E+01  0.965174798E-02 -0.204604890E-01
   H -0.687566700E+01  0.309069830E+00 -0.472186927E+00
   H  0.691985778E+01  0.395098472E+00 -0.353712704E+00
     4
 # iter = 28000  time[fs]=28.00000
   C -0.118608866E+01  0.295993960E-01  0.548684074E-01
   C  0.132199365E+01  0.879126938E-02 -0.201147663E-01
   H -0.721341781E+01  0.322260702E+00 -0.496009991E+00
   H  0.725102202E+01  0.414130169E+00 -0.370498118E+00
     4
 # iter = 28500  time[fs]=28.50000
   C -0.123725240E+01  0.292196971E-01  0.579771223E-01
   C  0.137641305E+01  0.791047654E-02 -0.198099399E-01
   H -0.755274941E+01  0.335513608E+00 -0.519946908E+00
   H  0.758381447E+01  0.433251817E+00 -0.387364279E+00
     4
 # iter = 29000  time[fs]=29.00000
   C -0.128985715E+01  0.288468752E-01  0.611381558E-01
   C  0.143226971E+01  0.701123776E-02 -0.195426132E-01
   H -0.789352244E+01  0.348822977E+00 -0.543987812E+00
   H  0.791809353E+01  0.452455830E+00 -0.404304280E+00
     4
 # iter = 29500  time[fs]=29.50000
   C -0.134379076E+01  0.284802428E-01  0.643472088E-01
   C  0.148945164E+01  0.609520095E-02 -0.193097124E-01
   H -0.823561489E+01  0.362183952E+00 -0.568124066E+00
   H  0.825373498E+01  0.471735541E+00 -0.421312054E+00
     4
 # iter = 30000  time[fs]=30.00000
   C -0.139895129E+01  0.281191888E-01  0.676004227E-01
   C  0.154785709E+01  0.516382330E-02 -0.191084591E-01
   H -0.857891937E+01  0.375592271E+00 -0.592348068E+00
   H  0.859062929E+01  0.491085055E+00 -0.438382242E+00
     4
 # iter = 30500  time[fs]=30.50000
   C -0.145524612E+01  0.277631705E-01  0.708943299E-01
   C  0.160739361E+01  0.421839673E-02 -0.189363425E-01
   H -0.892334090E+01  0.389044179E+00 -0.616653089E+00
   H  0.892867942E+01  0.510499138E+00 -0.455510090E+00
     4
 # iter = 31000  time[fs]=31.00000
   C -0.151259115E+01  0.274117060E-01  0.742258100E-01
   C  0.166797726E+01  0.326006974E-02 -0.187910937E-01
   H -0.926879507E+01  0.402536348E+00 -0.641033144E+00
   H  0.926779899E+01  0.529973122E+00 -0.472691364E+00
     4
 # iter = 31500  time[fs]=31.50000
   C -0.157090997E+01  0.270643668E-01  0.775920502E-01
   C  0.172953179E+01  0.228986606E-02 -0.186706614E-01
   H -0.961520658E+01  0.416065814E+00 -0.665482889E+00
   H  0.960791083E+01  0.549502825E+00 -0.489922272E+00
     4
 # iter = 32000  time[fs]=32.00000
   C -0.163013309E+01  0.267207722E-01  0.809905111E-01
   C  0.179198786E+01  0.130870072E-02 -0.185731892E-01
   H -0.996250794E+01  0.429629928E+00 -0.689997532E+00
   H  0.994894570E+01  0.569084485E+00 -0.507199409E+00
     4
 # iter = 32500  time[fs]=32.50000
   C -0.169019731E+01  0.263805828E-01  0.844188961E-01
   C  0.185528239E+01  0.317393822E-03 -0.184969959E-01
   H -0.103106385E+02  0.443226312E+00 -0.714572756E+00
   H  0.102908413E+02  0.588714709E+00 -0.524519708E+00
     4
 # iter = 33000  time[fs]=33.00000
   C -0.175104504E+01  0.260434965E-01  0.878751238E-01
   C  0.191935795E+01 -0.683317674E-03 -0.184405563E-01
   H -0.106595435E+02  0.456852825E+00 -0.739204663E+00
   H  0.106335412E+02  0.608390424E+00 -0.541880391E+00
     4
 # iter = 33500  time[fs]=33.50000
   C -0.181262379E+01  0.257092432E-01  0.913573051E-01
   C  0.198416215E+01 -0.169276976E-02 -0.184024858E-01
   H -0.110091733E+02  0.470507530E+00 -0.763889719E+00
   H  0.109769946E+02  0.628108838E+00 -0.559278940E+00
     4
 # iter = 34000  time[fs]=34.00000
   C -0.187488561E+01  0.253775813E-01  0.948637215E-01
   C  0.204964715E+01 -0.271036262E-02 -0.183815247E-01
   H -0.113594830E+02  0.484188670E+00 -0.788624708E+00
   H  0.113211549E+02  0.647867409E+00 -0.576713063E+00
     4
 # iter = 34500  time[fs]=34.50000
   C -0.193778666E+01  0.250482944E-01  0.983928072E-01
   C  0.211576924E+01 -0.373555305E-02 -0.183765259E-01
   H -0.117104316E+02  0.497894648E+00 -0.813406700E+00
   H  0.116659799E+02  0.667663814E+00 -0.594180669E+00
     4
 # iter = 35000  time[fs]=35.00000
   C -0.200128681E+01  0.247211881E-01  0.101943133E+00
   C  0.218248837E+01 -0.476784794E-02 -0.183864427E-01
   H -0.120619816E+02  0.511624005E+00 -0.838233015E+00
   H  0.120114309E+02  0.687495924E+00 -0.611679842E+00
     4
 # iter = 35500  time[fs]=35.50000
   C -0.206534925E+01  0.243960878E-01  0.105513390E+00
   C  0.224976784E+01 -0.580679856E-02 -0.184103186E-01
   H -0.124140987E+02  0.525375409E+00 -0.863101194E+00
   H  0.123574726E+02  0.707361786E+00 -0.629208828E+00
     4
 # iter = 36000  time[fs]=36.00000
   C -0.212994018E+01  0.240728358E-01  0.109102382E+00
   C  0.231757392E+01 -0.685199563E-02 -0.184472785E-01
   H -0.127667515E+02  0.539147637E+00 -0.888008978E+00
   H  0.127040724E+02  0.727259600E+00 -0.646766012E+00
     4
 # iter = 36500  time[fs]=36.50000
   C -0.219502851E+01  0.237512901E-01  0.112709009E+00
   C  0.238587563E+01 -0.790306506E-02 -0.184965198E-01
   H -0.131199112E+02  0.552939563E+00 -0.912954287E+00
   H  0.130512004E+02  0.747187709E+00 -0.664349907E+00
     4
 # iter = 37000  time[fs]=37.00000
   C -0.226058562E+01  0.234313220E-01  0.116332258E+00
   C  0.245464440E+01 -0.895966411E-02 -0.185573058E-01
   H -0.134735509E+02  0.566750153E+00 -0.937935199E+00
   H  0.133988290E+02  0.767144579E+00 -0.681959139E+00
     4
 # iter = 37500  time[fs]=37.50000
   C -0.232658508E+01  0.231128149E-01  0.119971199E+00
   C  0.252385389E+01 -0.100214782E-01 -0.186289590E-01
   H -0.138276460E+02  0.580578450E+00 -0.962949936E+00
   H  0.137469326E+02  0.787128790E+00 -0.699592437E+00
     4
 # iter = 38000  time[fs]=38.00000
   C -0.239300251E+01  0.227956631E-01  0.123624972E+00
   C  0.259347979E+01 -0.110882179E-01 -0.187108551E-01
   H -0.141821738E+02  0.594423568E+00 -0.987996851E+00
   H  0.140954876E+02  0.807139024E+00 -0.717248623E+00
     4
 # iter = 38500  time[fs]=38.50000
   C -0.245981532E+01  0.224797704E-01  0.127292782E+00
   C  0.266349957E+01 -0.121596166E-01 -0.188024186E-01
   H -0.145371130E+02  0.608284688E+00 -0.101307441E+01
   H  0.144444721E+02  0.827174056E+00 -0.734926603E+00
     4
 # iter = 39000  time[fs]=39.00000
   C -0.252700261E+01  0.221650491E-01  0.130973894E+00
   C  0.273389239E+01 -0.132354281E-01 -0.189031173E-01
   H -0.148924441E+02  0.622161046E+00 -0.103818120E+01
   H  0.147938657E+02  0.847232745E+00 -0.752625358E+00
     4
 # iter = 39500  time[fs]=39.50000
   C -0.259454497E+01  0.218514191E-01  0.134667626E+00
   C  0.280463890E+01 -0.143154245E-01 -0.190124592E-01
   H -0.152481487E+02  0.636051935E+00 -0.106331588E+01
   H  0.151436493E+02  0.867314027E+00 -0.770343939E+00
     4
 # iter = 40000  time[fs]=40.00000
   C -0.266242439E+01  0.215388074E-01  0.138373344E+00
   C  0.287572115E+01 -0.153993948E-01 -0.191299880E-01
   H -0.156042099E+02  0.649956692E+00 -0.108847722E+01
   H  0.154938054E+02  0.887416908E+00 -0.788081461E+00
     4
 # iter = 40500  time[fs]=40.50000
   C -0.273062409E+01  0.212271471E-01  0.142090461E+00
   C  0.294712240E+01 -0.164871433E-01 -0.192552807E-01
   H -0.159606115E+02  0.663874701E+00 -0.111366406E+01
   H  0.158443172E+02  0.907540458E+00 -0.805837096E+00
     4
 # iter = 41000  time[fs]=41.00000
   C -0.279912846E+01  0.209163767E-01  0.145818428E+00
   C  0.301882711E+01 -0.175784876E-01 -0.193879438E-01
   H -0.163173389E+02  0.677805386E+00 -0.113887532E+01
   H  0.161951695E+02  0.927683805E+00 -0.823610067E+00
     4
 # iter = 41500  time[fs]=41.50000
   C -0.286792294E+01  0.206064398E-01  0.149556734E+00
   C  0.309082074E+01 -0.186732585E-01 -0.195276115E-01
   H -0.166743780E+02  0.691748207E+00 -0.116410997E+01
   H  0.165463476E+02  0.947846131E+00 -0.841399650E+00
     4
 # iter = 42000  time[fs]=42.00000
   C -0.293699391E+01  0.202972845E-01  0.153304900E+00
   C  0.316308973E+01 -0.197712977E-01 -0.196739427E-01
   H -0.170317158E+02  0.705702656E+00 -0.118936707E+01
   H  0.168978380E+02  0.968026669E+00 -0.859205160E+00
     4
 # iter = 42500  time[fs]=42.50000
   C -0.300632868E+01  0.199888632E-01  0.157062482E+00
   C  0.323562143E+01 -0.208724577E-01 -0.198266195E-01
   H -0.173893400E+02  0.719668259E+00 -0.121464572E+01
   H  0.172496279E+02  0.988224696E+00 -0.877025958E+00
     4
 # iter = 43000  time[fs]=43.00000
   C -0.307591533E+01  0.196811316E-01  0.160829061E+00
   C  0.330840395E+01 -0.219766004E-01 -0.199853446E-01
   H -0.177472390E+02  0.733644569E+00 -0.123994507E+01
   H  0.176017054E+02  0.100843953E+01 -0.894861439E+00
     4
 # iter = 43500  time[fs]=43.50000
   C -0.314574270E+01  0.193740490E-01  0.164604246E+00
   C  0.338142618E+01 -0.230835965E-01 -0.201498402E-01
   H -0.181054021E+02  0.747631166E+00 -0.126526432E+01
   H  0.179540590E+02  0.102867053E+01 -0.912711035E+00
     4
 # iter = 44000  time[fs]=44.00000
   C -0.321580034E+01  0.190675779E-01  0.168387669E+00
   C  0.345467770E+01 -0.241933250E-01 -0.203198461E-01
   H -0.184638190E+02  0.761627652E+00 -0.129060274E+01
   H  0.183066782E+02  0.104891710E+01 -0.930574210E+00
     4
 # iter = 44500  time[fs]=44.50000
   C -0.328607841E+01  0.187616832E-01  0.172178985E+00
   C  0.352814870E+01 -0.253056719E-01 -0.204951185E-01
   H -0.188224800E+02  0.775633654E+00 -0.131595960E+01
   H  0.186595529E+02  0.106917865E+01 -0.948450456E+00
     4
 # iter = 45000  time[fs]=45.00000
   C -0.335656767E+01  0.184563326E-01  0.175977870E+00
   C  0.360182997E+01 -0.264205305E-01 -0.206754286E-01
   H -0.191813760E+02  0.789648819E+00 -0.134133423E+01
   H  0.190126735E+02  0.108945465E+01 -0.966339295E+00
     4
 # iter = 45500  time[fs]=45.50000
   C -0.342725942E+01  0.181514961E-01  0.179784017E+00
   C  0.367571286E+01 -0.275378002E-01 -0.208605612E-01
   H -0.195404984E+02  0.803672813E+00 -0.136672601E+01
   H  0.193660312E+02  0.110974458E+01 -0.984240275E+00
     4
 # iter = 46000  time[fs]=46.00000
   C -0.349814547E+01  0.178471458E-01  0.183597139E+00
   C  0.374978918E+01 -0.286573860E-01 -0.210503143E-01
   H -0.198998391E+02  0.817705320E+00 -0.139213433E+01
   H  0.197196174E+02  0.113004796E+01 -0.100215296E+01
     4
 # iter = 46500  time[fs]=46.50000
   C -0.356921809E+01  0.175432556E-01  0.187416963E+00
   C  0.382405125E+01 -0.297791987E-01 -0.212444974E-01
   H -0.202593902E+02  0.831746040E+00 -0.141755862E+01
   H  0.200734241E+02  0.115036433E+01 -0.102007696E+01
     4
 # iter = 47000  time[fs]=47.00000
   C -0.364046998E+01  0.172398013E-01  0.191243234E+00
   C  0.389849179E+01 -0.309031539E-01 -0.214429313E-01
   H -0.206191446E+02  0.845794690E+00 -0.144299834E+01
   H  0.204274436E+02  0.117069325E+01 -0.103801187E+01
     4
 # iter = 47500  time[fs]=47.50000
   C -0.371189425E+01  0.169367602E-01  0.195075709E+00
   C  0.397310393E+01 -0.320291719E-01 -0.216454467E-01
   H -0.209790952E+02  0.859851000E+00 -0.146845297E+01
   H  0.207816686E+02  0.119103430E+01 -0.105595733E+01
     4
 # iter = 48000  time[fs]=48.00000
   C -0.378348439E+01  0.166341114E-01  0.198914157E+00
   C  0.404788119E+01 -0.331571772E-01 -0.218518839E-01
   H -0.213392355E+02  0.873914714E+00 -0.149392202E+01
   H  0.211360923E+02  0.121138709E+01 -0.107391299E+01
     4
 # iter = 48500  time[fs]=48.50000
   C -0.385523422E+01  0.163318350E-01  0.202758363E+00
   C  0.412281741E+01 -0.342870984E-01 -0.220620919E-01
   H -0.216995591E+02  0.887985588E+00 -0.151940504E+01
   H  0.214907081E+02  0.123175124E+01 -0.109187853E+01
     4
 # iter = 49000  time[fs]=49.00000
   C -0.392713789E+01  0.160299126E-01  0.206608119E+00
   C  0.419790676E+01 -0.354188678E-01 -0.222759280E-01
   H -0.220600602E+02  0.902063391E+00 -0.154490157E+01
   H  0.218455097E+02  0.125212639E+01 -0.110985361E+01
     4
 # iter = 49500  time[fs]=49.50000
   C -0.399918987E+01  0.157283268E-01  0.210463230E+00
   C  0.427314374E+01 -0.365524213E-01 -0.224932571E-01
   H -0.224207329E+02  0.916147903E+00 -0.157041120E+01
   H  0.222004913E+02  0.127251221E+01 -0.112783795E+01
     4
 # iter = 50000  time[fs]=50.00000
   C -0.407138490E+01  0.154270616E-01  0.214323510E+00
   C  0.434852310E+01 -0.376876978E-01 -0.227139510E-01
   H -0.227815719E+02  0.930238913E+00 -0.159593352E+01
   H  0.225556472E+02  0.129290835E+01 -0.114583126E+01
     4
 # iter = 50500  time[fs]=50.50000
   C -0.414371799E+01  0.151261016E-01  0.218188784E+00
   C  0.442403987E+01 -0.388246395E-01 -0.229378883E-01
   H -0.231425720E+02  0.944336221E+00 -0.162146815E+01
   H  0.229109720E+02  0.131331452E+01 -0.116383326E+01
     4
 # iter = 51000  time[fs]=51.00000
   C -0.421618438E+01  0.148254325E-01  0.222058884E+00
   C  0.449968932E+01 -0.399631913E-01 -0.231649539E-01
   H -0.235037283E+02  0.958439635E+00 -0.164701471E+01
   H  0.232664605E+02  0.133373041E+01 -0.118184368E+01
     4
 # iter = 51500  time[fs]=51.50000
   C -0.428877957E+01  0.145250410E-01  0.225933650E+00
   C  0.457546696E+01 -0.411033007E-01 -0.233950382E-01
   H -0.238650361E+02  0.972548972E+00 -0.167257286E+01
   H  0.236221077E+02  0.135415574E+01 -0.119986229E+01
     4
 # iter = 52000  time[fs]=52.00000
   C -0.436149926E+01  0.142249143E-01  0.229812929E+00
   C  0.465136850E+01 -0.422449179E-01 -0.236280373E-01
   H -0.242264908E+02  0.986664058E+00 -0.169814227E+01
   H  0.239779091E+02  0.137459023E+01 -0.121788884E+01
     4
 # iter = 52500  time[fs]=52.50000
   C -0.443433936E+01  0.139250406E-01  0.233696579E+00
   C  0.472738988E+01 -0.433879952E-01 -0.238638521E-01
   H -0.245880883E+02  0.100078473E+01 -0.172372260E+01
   H  0.243338601E+02  0.139503363E+01 -0.123592310E+01
     4
 # iter = 53000  time[fs]=53.00000
   C -0.450729598E+01  0.136254087E-01  0.237584459E+00
   C  0.480352721E+01 -0.445324873E-01 -0.241023886E-01
   H -0.249498242E+02  0.101491081E+01 -0.174931356E+01
   H  0.246899563E+02  0.141548569E+01 -0.125396485E+01
     4
 # iter = 53500  time[fs]=53.50000
   C -0.458036538E+01  0.133260078E-01  0.241476439E+00
   C  0.487977678E+01 -0.456783509E-01 -0.243435571E-01
   H -0.253116948E+02  0.102904217E+01 -0.177491484E+01
   H  0.250461937E+02  0.143594615E+01 -0.127201388E+01
     4
 # iter = 54000  time[fs]=54.00000
   C -0.465354403E+01  0.130268282E-01  0.245372392E+00
   C  0.495613506E+01 -0.468255445E-01 -0.245872719E-01
   H -0.256736961E+02  0.104317865E+01 -0.180052617E+01
   H  0.254025684E+02  0.145641481E+01 -0.129007000E+01
     4
 # iter = 54500  time[fs]=54.50000
   C -0.472682853E+01  0.127278602E-01  0.249272198E+00
   C  0.503259868E+01 -0.479740285E-01 -0.248334517E-01
   H -0.260358247E+02  0.105732011E+01 -0.182614727E+01
   H  0.257590764E+02  0.147689143E+01 -0.130813300E+01
     4
 # iter = 55000  time[fs]=55.00000
   C -0.480021565E+01  0.124290950E-01  0.253175743E+00
   C  0.510916441E+01 -0.491237653E-01 -0.250820185E-01
   H -0.263980770E+02  0.107146641E+01 -0.185177788E+01
   H  0.261157142E+02  0.149737580E+01 -0.132620271E+01
     4
 # iter = 55500  time[fs]=55.50000
   C -0.487370229E+01  0.121305242E-01  0.257082916E+00
   C  0.518582917E+01 -0.502747185E-01 -0.253328981E-01
   H -0.267604497E+02  0.108561743E+01 -0.187741775E+01
   H  0.264724783E+02  0.151786772E+01 -0.134427894E+01
     4
 # iter = 56000  time[fs]=56.00000
   C -0.494728548E+01  0.118321397E-01  0.260993612E+00
   C  0.526259001E+01 -0.514268534E-01 -0.255860194E-01
   H -0.271229395E+02  0.109977305E+01 -0.190306664E+01
   H  0.268293653E+02  0.153836700E+01 -0.136236153E+01
     4
 # iter = 56500  time[fs]=56.50000
   C -0.502096240E+01  0.115339339E-01  0.264907729E+00
   C  0.533944409E+01 -0.525801369E-01 -0.258413145E-01
   H -0.274855435E+02  0.111393313E+01 -0.192872432E+01
   H  0.271863721E+02  0.155887344E+01 -0.138045030E+01
     4
 # iter = 57000  time[fs]=57.00000
   C -0.509473032E+01  0.112358998E-01  0.268825172E+00
   C  0.541638873E+01 -0.537345372E-01 -0.260987184E-01
   H -0.278482586E+02  0.112809757E+01 -0.195439057E+01
   H  0.275434954E+02  0.157938687E+01 -0.139854511E+01
     4
 # iter = 57500  time[fs]=57.50000
   C -0.516858664E+01  0.109380304E-01  0.272745848E+00
   C  0.549342132E+01 -0.548900236E-01 -0.263581689E-01
   H -0.282110820E+02  0.114226625E+01 -0.198006517E+01
   H  0.279007324E+02  0.159990710E+01 -0.141664580E+01
     4
 # iter = 58000  time[fs]=58.00000
   C -0.524252887E+01  0.106403194E-01  0.276669667E+00
   C  0.557053938E+01 -0.560465667E-01 -0.266196064E-01
   H -0.285740109E+02  0.115643908E+01 -0.200574791E+01
   H  0.282580802E+02  0.162043398E+01 -0.143475221E+01
     4
 # iter = 58500  time[fs]=58.50000
   C -0.531655460E+01  0.103427605E-01  0.280596544E+00
   C  0.564774053E+01 -0.572041386E-01 -0.268829740E-01
   H -0.289370428E+02  0.117061594E+01 -0.203143860E+01
   H  0.286155360E+02  0.164096734E+01 -0.145286422E+01
     4
 # iter = 59000  time[fs]=59.00000
   C -0.539066155E+01  0.100453479E-01  0.284526398E+00
   C  0.572502248E+01 -0.583627120E-01 -0.271482167E-01
   H -0.293001751E+02  0.118479674E+01 -0.205713704E+01
   H  0.289730972E+02  0.166150703E+01 -0.147098169E+01
     4
 # iter = 59500  time[fs]=59.50000
   C -0.546484751E+01  0.974807615E-02  0.288459148E+00
   C  0.580238302E+01 -0.595222611E-01 -0.274152821E-01
   H -0.296634053E+02  0.119898138E+01 -0.208284306E+01
   H  0.293307611E+02  0.168205289E+01 -0.148910448E+01
     4
 # iter = 60000  time[fs]=60.00000
   C -0.553911034E+01  0.945093988E-02  0.292394720E+00
   C  0.587982006E+01 -0.606827606E-01 -0.276841198E-01
   H -0.300267310E+02  0.121316978E+01 -0.210855647E+01
   H  0.296885253E+02  0.170260478E+01 -0.150723246E+01
     4
 # iter = 60500  time[fs]=60.50000
   C -0.561344803E+01  0.915393408E-02  0.296333040E+00
   C  0.595733155E+01 -0.618441867E-01 -0.279546813E-01
   H -0.303901501E+02  0.122736183E+01 -0.213427709E+01
   H  0.300463875E+02  0.172316256E+01 -0.152536552E+01
     4
 # iter = 61000  time[fs]=61.00000
   C -0.568785859E+01  0.885705397E-02  0.300274039E+00
   C  0.603491555E+01 -0.630065160E-01 -0.282269202E-01
   H -0.307536603E+02  0.124155747E+01 -0.216000477E+01
   H  0.304043454E+02  0.174372610E+01 -0.154350354E+01
     4
 # iter = 61500  time[fs]=61.50000
   C -0.576234016E+01  0.856029497E-02  0.304217648E+00
   C  0.611257018E+01 -0.641697263E-01 -0.285007917E-01
   H -0.311172595E+02  0.125575659E+01 -0.218573935E+01
   H  0.307623966E+02  0.176429526E+01 -0.156164641E+01
     4
 # iter = 62000  time[fs]=62.00000
   C -0.583689091E+01  0.826365274E-02  0.308163804E+00
   C  0.619029364E+01 -0.653337961E-01 -0.287762529E-01
   H -0.314809456E+02  0.126995914E+01 -0.221148066E+01
   H  0.311205392E+02  0.178486991E+01 -0.157979401E+01
     4
 # iter = 62500  time[fs]=62.50000
   C -0.591150909E+01  0.796712312E-02  0.312112442E+00
   C  0.626808417E+01 -0.664987046E-01 -0.290532623E-01
   H -0.318447167E+02  0.128416501E+01 -0.223722856E+01
   H  0.314787709E+02  0.180544994E+01 -0.159794624E+01
     4
 # iter = 63000  time[fs]=63.00000
   C -0.598619302E+01  0.767070215E-02  0.316063502E+00
   C  0.634594010E+01 -0.676644318E-01 -0.293317802E-01
   H -0.322085708E+02  0.129837416E+01 -0.226298290E+01
   H  0.318370898E+02  0.182603523E+01 -0.161610299E+01
     4
 # iter = 63500  time[fs]=63.50000
   C -0.606094108E+01  0.737438604E-02  0.320016927E+00
   C  0.642385982E+01 -0.688309584E-01 -0.296117682E-01
   H -0.325725061E+02  0.131258649E+01 -0.228874354E+01
   H  0.321954940E+02  0.184662567E+01 -0.163426417E+01
     4
 # iter = 64000  time[fs]=64.00000
   C -0.613575169E+01  0.707817117E-02  0.323972660E+00
   C  0.650184177E+01 -0.699982658E-01 -0.298931894E-01
   H -0.329365209E+02  0.132680194E+01 -0.231451036E+01
   H  0.325539816E+02  0.186722113E+01 -0.165242968E+01
     4
 # iter = 64500  time[fs]=64.50000
   C -0.621062335E+01  0.678205409E-02  0.327930646E+00
   C  0.657988445E+01 -0.711663360E-01 -0.301760081E-01
   H -0.333006133E+02  0.134102045E+01 -0.234028321E+01
   H  0.329125508E+02  0.188782153E+01 -0.167059942E+01
     4
 # iter = 65000  time[fs]=65.00000
   C -0.628555460E+01  0.648603149E-02  0.331890834E+00
   C  0.665798639E+01 -0.723351515E-01 -0.304601900E-01
   H -0.336647818E+02  0.135524195E+01 -0.236606196E+01
   H  0.332711998E+02  0.190842674E+01 -0.168877332E+01
     4
 # iter = 65500  time[fs]=65.50000
   C -0.636054404E+01  0.619010020E-02  0.335853172E+00
   C  0.673614621E+01 -0.735046957E-01 -0.307457020E-01
   H -0.340290247E+02  0.136946637E+01 -0.239184650E+01
   H  0.336299269E+02  0.192903668E+01 -0.170695127E+01
     4
 # iter = 66000  time[fs]=66.00000
   C -0.643559030E+01  0.589425720E-02  0.339817611E+00
   C  0.681436255E+01 -0.746749523E-01 -0.310325122E-01
   H -0.343933404E+02  0.138369366E+01 -0.241763671E+01
   H  0.339887306E+02  0.194965124E+01 -0.172513320E+01
     4
 # iter = 66500  time[fs]=66.50000
   C -0.651069207E+01  0.559849958E-02  0.343784105E+00
   C  0.689263410E+01 -0.758459056E-01 -0.313205897E-01
   H -0.347577274E+02  0.139792375E+01 -0.244343247E+01
   H  0.343476091E+02  0.197027033E+01 -0.174331902E+01
     4
 # iter = 67000  time[fs]=67.00000
   C -0.658584808E+01  0.530282456E-02  0.347752608E+00
   C  0.697095960E+01 -0.770175403E-01 -0.316099048E-01
   H -0.351221842E+02  0.141215659E+01 -0.246923367E+01
   H  0.347065610E+02  0.199089386E+01 -0.176150866E+01
     4
 # iter = 67500  time[fs]=67.50000
   C -0.666105711E+01  0.500722948E-02  0.351723075E+00
   C  0.704933783E+01 -0.781898418E-01 -0.319004285E-01
   H -0.354867095E+02  0.142639213E+01 -0.249504019E+01
   H  0.350655847E+02  0.201152174E+01 -0.177970203E+01
     4
 # iter = 68000  time[fs]=68.00000
   C -0.673631797E+01  0.471171178E-02  0.355695463E+00
   C  0.712776760E+01 -0.793627958E-01 -0.321921332E-01
   H -0.358513018E+02  0.144063030E+01 -0.252085194E+01
   H  0.354246788E+02  0.203215389E+01 -0.179789907E+01
     4
 # iter = 68500  time[fs]=68.50000
   C -0.681162951E+01  0.441626902E-02  0.359669731E+00
   C  0.720624778E+01 -0.805363886E-01 -0.324849920E-01
   H -0.362159598E+02  0.145487105E+01 -0.254666881E+01
   H  0.357838419E+02  0.205279021E+01 -0.181609969E+01
     4
 # iter = 69000  time[fs]=69.00000
   C -0.688699062E+01  0.412089884E-02  0.363645839E+00
   C  0.728477727E+01 -0.817106069E-01 -0.327789788E-01
   H -0.365806822E+02  0.146911434E+01 -0.257249070E+01
   H  0.361430727E+02  0.207343064E+01 -0.183430384E+01
     4
 # iter = 69500  time[fs]=69.50000
   C -0.696240022E+01  0.382559898E-02  0.367623747E+00
   C  0.736335498E+01 -0.828854375E-01 -0.330740685E-01
   H -0.369454676E+02  0.148336012E+01 -0.259831752E+01
   H  0.365023697E+02  0.209407508E+01 -0.185251143E+01
     4
 # iter = 70000  time[fs]=70.00000
   C -0.703785728E+01  0.353036728E-02  0.371603419E+00
   C  0.744197988E+01 -0.840608681E-01 -0.333702367E-01
   H -0.373103150E+02  0.149760833E+01 -0.262414916E+01
   H  0.368617318E+02  0.211472347E+01 -0.187072241E+01
     4
 # iter = 70500  time[fs]=70.50000
   C -0.711336078E+01  0.323520165E-02  0.375584818E+00
   C  0.752065097E+01 -0.852368864E-01 -0.336674600E-01
   H -0.376752231E+02  0.151185893E+01 -0.264998555E+01
   H  0.372211576E+02  0.213537573E+01 -0.188893671E+01
     4
 # iter = 71000  time[fs]=71.00000
   C -0.718890974E+01  0.294010008E-02  0.379567908E+00
   C  0.759936727E+01 -0.864134807E-01 -0.339657155E-01
   H -0.380401907E+02  0.152611188E+01 -0.267582658E+01
   H  0.375806460E+02  0.215603179E+01 -0.190715427E+01
     4
 # iter = 71500  time[fs]=71.50000
   C -0.726450322E+01  0.264506067E-02  0.383552654E+00
   C  0.767812785E+01 -0.875906394E-01 -0.342649810E-01
   H -0.384052167E+02  0.154036713E+01 -0.270167219E+01
   H  0.379401957E+02  0.217669157E+01 -0.192537503E+01
     4
 # iter = 72000  time[fs]=72.00000
   C -0.734014031E+01  0.235008154E-02  0.387539024E+00
   C  0.775693179E+01 -0.887683515E-01 -0.345652352E-01
   H -0.387703000E+02  0.155462464E+01 -0.272752227E+01
   H  0.382998057E+02  0.219735501E+01 -0.194359892E+01
     4
 # iter = 72500  time[fs]=72.50000
   C -0.741582010E+01  0.205516093E-02  0.391526985E+00
   C  0.783577819E+01 -0.899466062E-01 -0.348664573E-01
   H -0.391354396E+02  0.156888436E+01 -0.275337675E+01
   H  0.386594747E+02  0.221802204E+01 -0.196182589E+01
     4
 # iter = 73000  time[fs]=73.00000
   C -0.749154173E+01  0.176029711E-02  0.395516506E+00
   C  0.791466621E+01 -0.911253930E-01 -0.351686272E-01
   H -0.395006344E+02  0.158314626E+01 -0.277923554E+01
   H  0.390192018E+02  0.223869260E+01 -0.198005589E+01
     4
 # iter = 73500  time[fs]=73.50000
   C -0.756730436E+01  0.146548844E-02  0.399507557E+00
   C  0.799359499E+01 -0.923047017E-01 -0.354717253E-01
   H -0.398658834E+02  0.159741030E+01 -0.280509859E+01
   H  0.393789858E+02  0.225936663E+01 -0.199828886E+01
     4
 # iter = 74000  time[fs]=74.00000
   C -0.764310719E+01  0.117073333E-02  0.403500107E+00
   C  0.807256374E+01 -0.934845224E-01 -0.357757328E-01
   H -0.402311856E+02  0.161167644E+01 -0.283096579E+01
   H  0.397388258E+02  0.228004406E+01 -0.201652474E+01
     4
 # iter = 74500  time[fs]=74.50000
   C -0.771894941E+01  0.876030244E-03  0.407494127E+00
   C  0.815157167E+01 -0.946648455E-01 -0.360806313E-01
   H -0.405965401E+02  0.162594463E+01 -0.285683710E+01
   H  0.400987206E+02  0.230072483E+01 -0.203476349E+01
     4
 # iter = 75000  time[fs]=75.00000
   C -0.779483026E+01  0.581377705E-03  0.411489591E+00
   C  0.823061801E+01 -0.958456617E-01 -0.363864029E-01
   H -0.409619460E+02  0.164021486E+01 -0.288271242E+01
   H  0.404586695E+02  0.232140888E+01 -0.205300505E+01
     4
 # iter = 75500  time[fs]=75.50000
   C -0.787074899E+01  0.286774293E-03  0.415486470E+00
   C  0.830970202E+01 -0.970269618E-01 -0.366930302E-01
   H -0.413274023E+02  0.165448707E+01 -0.290859170E+01
   H  0.408186713E+02  0.234209617E+01 -0.207124938E+01
     4
 # iter = 76000  time[fs]=76.00000
   C -0.794670487E+01 -0.778136422E-05  0.419484739E+00
   C  0.838882297E+01 -0.982087371E-01 -0.370004966E-01
   H -0.416929082E+02  0.166876123E+01 -0.293447486E+01
   H  0.411787252E+02  0.236278663E+01 -0.208949643E+01
     4
 # iter = 76500  time[fs]=76.50000
   C -0.802269721E+01 -0.302290591E-03  0.423484371E+00
   C  0.846798017E+01 -0.993909788E-01 -0.373087857E-01
   H -0.420584627E+02  0.168303732E+01 -0.296036184E+01
   H  0.415388304E+02  0.238348020E+01 -0.210774614E+01
     4
 # iter = 77000  time[fs]=77.00000
   C -0.809872532E+01 -0.596754663E-03  0.427485341E+00
   C  0.854717294E+01 -0.100573679E+00 -0.376178815E-01
   H -0.424240652E+02  0.169731530E+01 -0.298625258E+01
   H  0.418989858E+02  0.240417685E+01 -0.212599848E+01
     4
 # iter = 77500  time[fs]=77.50000
   C -0.817478852E+01 -0.891174814E-03  0.431487626E+00
   C  0.862640060E+01 -0.101756829E+00 -0.379277687E-01
   H -0.427897147E+02  0.171159514E+01 -0.301214701E+01
   H  0.422591906E+02  0.242487651E+01 -0.214425341E+01
     4
 # iter = 78000  time[fs]=78.00000
   C -0.825088618E+01 -0.118555223E-02  0.435491202E+00
   C  0.870566251E+01 -0.102940421E+00 -0.382384322E-01
   H -0.431554105E+02  0.172587680E+01 -0.303804507E+01
   H  0.426194441E+02  0.244557913E+01 -0.216251087E+01
     4
 # iter = 78500  time[fs]=78.50000
   C -0.832701765E+01 -0.147988807E-02  0.439496044E+00
   C  0.878495805E+01 -0.104124447E+00 -0.385498576E-01
   H -0.435211517E+02  0.174016025E+01 -0.306394671E+01
   H  0.429797454E+02  0.246628467E+01 -0.218077083E+01
     4
 # iter = 79000  time[fs]=79.00000
   C -0.840318233E+01 -0.177418343E-02  0.443502132E+00
   C  0.886428661E+01 -0.105308900E+00 -0.388620305E-01
   H -0.438869377E+02  0.175444548E+01 -0.308985185E+01
   H  0.433400937E+02  0.248699309E+01 -0.219903325E+01
     4
 # iter = 79500  time[fs]=79.50000
   C -0.847937961E+01 -0.206843939E-02  0.447509443E+00
   C  0.894364759E+01 -0.106493772E+00 -0.391749372E-01
   H -0.442527677E+02  0.176873244E+01 -0.311576046E+01
   H  0.437004883E+02  0.250770432E+01 -0.221729808E+01
     4
 # iter = 80000  time[fs]=80.00000
   C -0.855560892E+01 -0.236265699E-02  0.451517956E+00
   C  0.902304040E+01 -0.107679057E+00 -0.394885642E-01
   H -0.446186410E+02  0.178302111E+01 -0.314167246E+01
   H  0.440609284E+02  0.252841834E+01 -0.223556529E+01
