     4
 # iter = 25000  time[fs]=25.00000
   C -0.990159249E+00 -0.504441695E-01  0.244621779E-02
   C  0.990209300E+00  0.479170749E-02  0.171470995E-02
   H -0.525466033E+01  0.384243290E+00 -0.516137670E-01
   H  0.538362629E+01  0.263159208E+00  0.438786623E+00
     4
 # iter = 25500  time[fs]=25.50000
   C -0.103581418E+01 -0.541276058E-01  0.267735775E-02
   C  0.103330423E+01  0.312535497E-02 -0.373814760E-03
   H -0.559122135E+01  0.407636598E+00 -0.563707854E-01
   H  0.570290462E+01  0.275969498E+00  0.462943314E+00
     4
 # iter = 26000  time[fs]=26.00000
   C -0.108449816E+01 -0.579331559E-01  0.290802951E-02
   C  0.107942540E+01  0.151969111E-02 -0.249599185E-02
   H -0.593320937E+01  0.431481272E+00 -0.611987655E-01
   H  0.602764363E+01  0.289065523E+00  0.487580414E+00
     4
 # iter = 26500  time[fs]=26.50000
   C -0.113595852E+01 -0.618486756E-01  0.314136056E-02
   C  0.112831762E+01 -0.303621837E-04 -0.465118238E-02
   H -0.628000754E+01  0.455724647E+00 -0.660902393E-01
   H  0.635725670E+01  0.302415155E+00  0.512645257E+00
     4
 # iter = 27000  time[fs]=27.00000
   C -0.118995947E+01 -0.658634079E-01  0.337971456E-02
   C  0.117974340E+01 -0.152961004E-02 -0.683855554E-02
   H -0.663109316E+01  0.480322517E+00 -0.710387895E-01
   H  0.669124174E+01  0.315991179E+00  0.538093092E+00
     4
 # iter = 27500  time[fs]=27.50000
   C -0.124628336E+01 -0.699678264E-01  0.362483154E-02
   C  0.123348393E+01 -0.298252447E-02 -0.905712156E-02
   H -0.698602034E+01  0.505237456E+00 -0.760388752E-01
   H  0.702916643E+01  0.329770366E+00  0.563885622E+00
     4
 # iter = 28000  time[fs]=28.00000
   C -0.130473087E+01 -0.741534936E-01  0.387795144E-02
   C  0.128933920E+01 -0.439321878E-02 -0.113057713E-01
   H -0.734440618E+01  0.530437527E+00 -0.810856877E-01
   H  0.737065648E+01  0.343732765E+00  0.589989849E+00
     4
 # iter = 28500  time[fs]=28.50000
   C -0.136512054E+01 -0.784129321E-01  0.413991919E-02
   C  0.134712732E+01 -0.576544479E-02 -0.135833154E-01
   H -0.770591994E+01  0.555895274E+00 -0.861750345E-01
   H  0.771538613E+01  0.357861124E+00  0.616377166E+00
     4
 # iter = 29000  time[fs]=29.00000
   C -0.142728785E+01 -0.827395096E-01  0.441127197E-02
   C  0.140668357E+01 -0.710260477E-02 -0.158885184E-01
   H -0.807027428E+01  0.581586939E+00 -0.913032421E-01
   H  0.806307038E+01  0.372140440E+00  0.643022632E+00
     4
 # iter = 29500  time[fs]=29.50000
   C -0.149108401E+01 -0.871273363E-01  0.469231012E-02
   C  0.146785914E+01 -0.840777176E-02 -0.182201279E-01
   H -0.843721823E+01  0.607491838E+00 -0.964670776E-01
   H  0.841345874E+01  0.386557597E+00  0.669904380E+00
     4
 # iter = 30000  time[fs]=30.00000
   C -0.155637474E+01 -0.915711732E-01  0.498315411E-02
   C  0.153051980E+01 -0.968371439E-02 -0.205768971E-01
   H -0.880653148E+01  0.633591857E+00 -0.101663683E+00
   H  0.876633008E+01  0.401101065E+00  0.697003144E+00
     4
 # iter = 30500  time[fs]=30.50000
   C -0.162303888E+01 -0.960663529E-01  0.528378956E-02
   C  0.159454456E+01 -0.109329234E-01 -0.229576019E-01
   H -0.917801976E+01  0.659871054E+00 -0.106890522E+00
   H  0.912148830E+01  0.415760663E+00  0.724301870E+00
     4
 # iter = 31000  time[fs]=31.00000
   C -0.169096719E+01 -0.100608708E+00  0.559410271E-02
   C  0.165982436E+01 -0.121576380E-01 -0.253610532E-01
   H -0.955151096E+01  0.686315327E+00 -0.112145334E+00
   H  0.947875886E+01  0.430527363E+00  0.751785396E+00
     4
 # iter = 31500  time[fs]=31.50000
   C -0.176006112E+01 -0.105194512E+00  0.591390788E-02
   C  0.172626091E+01 -0.133598716E-01 -0.277861061E-01
   H -0.992685201E+01  0.712912149E+00 -0.117426096E+00
   H  0.983798579E+01  0.445393120E+00  0.779440186E+00
     4
 # iter = 32000  time[fs]=32.00000
   C -0.183023170E+01 -0.109820422E+00  0.624296884E-02
   C  0.179376549E+01 -0.145414349E-01 -0.302316648E-01
   H -0.103039062E+02  0.739650339E+00 -0.122730993E+00
   H  0.101990292E+02  0.460350742E+00  0.807254110E+00
     4
 # iter = 32500  time[fs]=32.50000
   C -0.190139853E+01 -0.114483436E+00  0.658101508E-02
   C  0.186225798E+01 -0.157039582E-01 -0.326966858E-01
   H -0.106825510E+02  0.766519884E+00 -0.128058389E+00
   H  0.105617633E+02  0.475393776E+00  0.835216260E+00
     4
 # iter = 33000  time[fs]=33.00000
   C -0.197348888E+01 -0.119180850E+00  0.692775435E-02
   C  0.193166594E+01 -0.168489107E-01 -0.351801796E-01
   H -0.110626763E+02  0.793511782E+00 -0.133406807E+00
   H  0.109260745E+02  0.490516407E+00  0.863316789E+00
     4
 # iter = 33500  time[fs]=33.50000
   C -0.204643683E+01 -0.123910223E+00  0.728288199E-02
   C  0.200192375E+01 -0.179776183E-01 -0.376812106E-01
   H -0.114441826E+02  0.820617909E+00 -0.138774908E+00
   H  0.112918599E+02  0.505713384E+00  0.891546784E+00
     4
 # iter = 34000  time[fs]=34.00000
   C -0.212018261E+01 -0.128669349E+00  0.764608809E-02
   C  0.207297189E+01 -0.190912795E-01 -0.401988957E-01
   H -0.118269799E+02  0.847830914E+00 -0.144161473E+00
   H  0.116590261E+02  0.520979946E+00  0.919898153E+00
     4
 # iter = 34500  time[fs]=34.50000
   C -0.219467185E+01 -0.133456224E+00  0.801706265E-02
   C  0.214475630E+01 -0.201909791E-01 -0.427324033E-01
   H -0.122109866E+02  0.875144124E+00 -0.149565393E+00
   H  0.120274881E+02  0.536311766E+00  0.948363525E+00
     4
 # iter = 35000  time[fs]=35.00000
   C -0.226985508E+01 -0.138269031E+00  0.839549946E-02
   C  0.221722776E+01 -0.212777007E-01 -0.452809511E-01
   H -0.125961284E+02  0.902551462E+00 -0.154985653E+00
   H  0.123971684E+02  0.551704902E+00  0.976936172E+00
     4
 # iter = 35500  time[fs]=35.50000
   C -0.234568719E+01 -0.143106113E+00  0.878109886E-02
   C  0.229034142E+01 -0.223523379E-01 -0.478438034E-01
   H -0.129823373E+02  0.930047380E+00 -0.160421325E+00
   H  0.127679959E+02  0.567155751E+00  0.100560993E+01
     4
 # iter = 36000  time[fs]=36.00000
   C -0.242212696E+01 -0.147965960E+00  0.917356960E-02
   C  0.236405633E+01 -0.234157038E-01 -0.504202691E-01
   H -0.133695512E+02  0.957626801E+00 -0.165871555E+00
   H  0.131399055E+02  0.582661010E+00  0.103437916E+01
     4
 # iter = 36500  time[fs]=36.50000
   C -0.249913668E+01 -0.152847189E+00  0.957263022E-02
   C  0.243833502E+01 -0.244685393E-01 -0.530096991E-01
   H -0.137577133E+02  0.985285066E+00 -0.171335557E+00
   H  0.135128372E+02  0.598217650E+00  0.106323865E+01
     4
 # iter = 37000  time[fs]=37.00000
   C -0.257668179E+01 -0.157748534E+00  0.997800977E-02
   C  0.251314316E+01 -0.255115212E-01 -0.556114835E-01
   H -0.141467713E+02  0.101301789E+01 -0.176812608E+00
   H  0.138867361E+02  0.613822881E+00  0.109218362E+01
     4
 # iter = 37500  time[fs]=37.50000
   C -0.265473054E+01 -0.162668833E+00  0.103894484E-01
   C  0.258844922E+01 -0.265452685E-01 -0.582250496E-01
   H -0.145366768E+02  0.104082133E+01 -0.182302039E+00
   H  0.142615511E+02  0.629474132E+00  0.112120963E+01
     4
 # iter = 38000  time[fs]=38.00000
   C -0.273325375E+01 -0.167607016E+00  0.108066973E-01
   C  0.266422425E+01 -0.275703483E-01 -0.608498590E-01
   H -0.149273855E+02  0.106869172E+01 -0.187803229E+00
   H  0.146372353E+02  0.645169026E+00  0.115031260E+01
     4
 # iter = 38500  time[fs]=38.50000
   C -0.281222453E+01 -0.172562099E+00  0.112295189E-01
   C  0.274044156E+01 -0.285872813E-01 -0.634854059E-01
   H -0.153188562E+02  0.109662571E+01 -0.193315604E+00
   H  0.150137449E+02  0.660905363E+00  0.117948874E+01
     4
 # iter = 39000  time[fs]=39.00000
   C -0.289161807E+01 -0.177533173E+00  0.116576868E-01
   C  0.281707653E+01 -0.295965461E-01 -0.661312143E-01
   H -0.157110507E+02  0.112462016E+01 -0.198838629E+00
   H  0.153910395E+02  0.676681103E+00  0.120873450E+01
     4
 # iter = 39500  time[fs]=39.50000
   C -0.297141144E+01 -0.182519395E+00  0.120909850E-01
   C  0.289410643E+01 -0.305985835E-01 -0.687868366E-01
   H -0.161039338E+02  0.115267217E+01 -0.204371808E+00
   H  0.157690816E+02  0.692494349E+00  0.123804663E+01
     4
 # iter = 40000  time[fs]=40.00000
   C -0.305158343E+01 -0.187519988E+00  0.125292084E-01
   C  0.297151021E+01 -0.315937999E-01 -0.714518514E-01
   H -0.164974724E+02  0.118077902E+01 -0.209914676E+00
   H  0.161478359E+02  0.708343338E+00  0.126742205E+01
     4
 # iter = 40500  time[fs]=40.50000
   C -0.313211437E+01 -0.192534229E+00  0.129721614E-01
   C  0.304926838E+01 -0.325825709E-01 -0.741258616E-01
   H -0.168916360E+02  0.120893821E+01 -0.215466802E+00
   H  0.165272700E+02  0.724226424E+00  0.129685792E+01
     4
 # iter = 41000  time[fs]=41.00000
   C -0.321298598E+01 -0.197561446E+00  0.134196583E-01
   C  0.312736284E+01 -0.335652441E-01 -0.768084931E-01
   H -0.172863959E+02  0.123714738E+01 -0.221027779E+00
   H  0.169073532E+02  0.740142073E+00  0.132635156E+01
     4
 # iter = 41500  time[fs]=41.50000
   C -0.329418131E+01 -0.202601015E+00  0.138715226E-01
   C  0.320577677E+01 -0.345421413E-01 -0.794993929E-01
   H -0.176817256E+02  0.126540433E+01 -0.226597230E+00
   H  0.172880569E+02  0.756088848E+00  0.135590050E+01
     4
 # iter = 42000  time[fs]=42.00000
   C -0.337568455E+01 -0.207652354E+00  0.143275865E-01
   C  0.328449451E+01 -0.355135614E-01 -0.821982279E-01
   H -0.180776001E+02  0.129370700E+01 -0.232174799E+00
   H  0.176693546E+02  0.772065407E+00  0.138550237E+01
     4
 # iter = 42500  time[fs]=42.50000
   C -0.345748096E+01 -0.212714918E+00  0.147876903E-01
   C  0.336350148E+01 -0.364797819E-01 -0.849046833E-01
   H -0.184739958E+02  0.132205347E+01 -0.237760151E+00
   H  0.180512210E+02  0.788070488E+00  0.141515500E+01
     4
 # iter = 43000  time[fs]=43.00000
   C -0.353955681E+01 -0.217788201E+00  0.152516825E-01
   C  0.344278406E+01 -0.374410612E-01 -0.876184617E-01
   H -0.188708910E+02  0.135044193E+01 -0.243352973E+00
   H  0.184336326E+02  0.804102910E+00  0.144485631E+01
     4
 # iter = 43500  time[fs]=43.50000
   C -0.362189924E+01 -0.222871727E+00  0.157194188E-01
   C  0.352232954E+01 -0.383976399E-01 -0.903392818E-01
   H -0.192682651E+02  0.137887066E+01 -0.248952971E+00
   H  0.188165673E+02  0.820161559E+00  0.147460437E+01
     4
 # iter = 44000  time[fs]=44.00000
   C -0.370449622E+01 -0.227965051E+00  0.161907622E-01
   C  0.360212601E+01 -0.393497427E-01 -0.930668772E-01
   H -0.196660986E+02  0.140733808E+01 -0.254559865E+00
   H  0.192000042E+02  0.836245391E+00  0.150439734E+01
     4
 # iter = 44500  time[fs]=44.50000
   C -0.378733650E+01 -0.233067755E+00  0.166655823E-01
   C  0.368216233E+01 -0.402975792E-01 -0.958009957E-01
   H -0.200643733E+02  0.143584268E+01 -0.260173392E+00
   H  0.195839237E+02  0.852353420E+00  0.153423351E+01
     4
 # iter = 45000  time[fs]=45.00000
   C -0.387040951E+01 -0.238179448E+00  0.171437548E-01
   C  0.376242805E+01 -0.412413455E-01 -0.985413981E-01
   H -0.204630720E+02  0.146438302E+01 -0.265793306E+00
   H  0.199683073E+02  0.868484715E+00  0.156411124E+01
     4
 # iter = 45500  time[fs]=45.50000
   C -0.395370534E+01 -0.243299760E+00  0.176251618E-01
   C  0.384291335E+01 -0.421812255E-01 -0.101287858E+00
   H -0.208621786E+02  0.149295778E+01 -0.271419372E+00
   H  0.203531375E+02  0.884638400E+00  0.159402899E+01
     4
 # iter = 46000  time[fs]=46.00000
   C -0.403721465E+01 -0.248428345E+00  0.181096906E-01
   C  0.392360900E+01 -0.431173911E-01 -0.104040159E+00
   H -0.212616777E+02  0.152156567E+01 -0.277051367E+00
   H  0.207383977E+02  0.900813644E+00  0.162398531E+01
     4
 # iter = 46500  time[fs]=46.50000
   C -0.412092867E+01 -0.253564875E+00  0.185972340E-01
   C  0.400450634E+01 -0.440500042E-01 -0.106798097E+00
   H -0.216615548E+02  0.155020550E+01 -0.282689081E+00
   H  0.211240722E+02  0.917009663E+00  0.165397882E+01
     4
 # iter = 47000  time[fs]=47.00000
   C -0.420483913E+01 -0.258709042E+00  0.190876900E-01
   C  0.408559720E+01 -0.449792163E-01 -0.109561478E+00
   H -0.220617963E+02  0.157887613E+01 -0.288332316E+00
   H  0.215101463E+02  0.933225713E+00  0.168400821E+01
     4
 # iter = 47500  time[fs]=47.50000
   C -0.428893825E+01 -0.263860554E+00  0.195809610E-01
   C  0.416687386E+01 -0.459051704E-01 -0.112330117E+00
   H -0.224623891E+02  0.160757648E+01 -0.293980882E+00
   H  0.218966059E+02  0.949461090E+00  0.171407225E+01
     4
 # iter = 48000  time[fs]=48.00000
   C -0.437321866E+01 -0.269019136E+00  0.200769542E-01
   C  0.424832905E+01 -0.468280008E-01 -0.115103838E+00
   H -0.228633209E+02  0.163630552E+01 -0.299634600E+00
   H  0.222834376E+02  0.965715126E+00  0.174416975E+01
     4
 # iter = 48500  time[fs]=48.50000
   C -0.445767342E+01 -0.274184528E+00  0.205755808E-01
   C  0.432995591E+01 -0.477478341E-01 -0.117882473E+00
   H -0.232645801E+02  0.166506230E+01 -0.305293298E+00
   H  0.226706288E+02  0.981987185E+00  0.177429960E+01
     4
 # iter = 49000  time[fs]=49.00000
   C -0.454229594E+01 -0.279356482E+00  0.210767562E-01
   C  0.441174795E+01 -0.486647900E-01 -0.120665862E+00
   H -0.236661556E+02  0.169384587E+01 -0.310956815E+00
   H  0.230581674E+02  0.998276664E+00  0.180446073E+01
     4
 # iter = 49500  time[fs]=49.50000
   C -0.462708002E+01 -0.284534766E+00  0.215803994E-01
   C  0.449369902E+01 -0.495789810E-01 -0.123453852E+00
   H -0.240680368E+02  0.172265537E+01 -0.316624995E+00
   H  0.234460421E+02  0.101458299E+01  0.183465214E+01
     4
 # iter = 50000  time[fs]=50.00000
   C -0.471201976E+01 -0.289719156E+00  0.220864332E-01
   C  0.457580330E+01 -0.504905140E-01 -0.126246299E+00
   H -0.244702137E+02  0.175148996E+01 -0.322297692E+00
   H  0.238342418E+02  0.103090562E+01  0.186487285E+01
     4
 # iter = 50500  time[fs]=50.50000
   C -0.479710957E+01 -0.294909444E+00  0.225947834E-01
   C  0.465805526E+01 -0.513994896E-01 -0.129043063E+00
   H -0.248726767E+02  0.178034884E+01 -0.327974764E+00
   H  0.242227562E+02  0.104724402E+01  0.189512195E+01
     4
 # iter = 51000  time[fs]=51.00000
   C -0.488234416E+01 -0.300105427E+00  0.231053795E-01
   C  0.474044969E+01 -0.523060034E-01 -0.131844012E+00
   H -0.252754168E+02  0.180923126E+01 -0.333656078E+00
   H  0.246115754E+02  0.106359771E+01  0.192539855E+01
     4
 # iter = 51500  time[fs]=51.50000
   C -0.496771847E+01 -0.305306917E+00  0.236181536E-01
   C  0.482298161E+01 -0.532101458E-01 -0.134649019E+00
   H -0.256784252E+02  0.183813647E+01 -0.339341504E+00
   H  0.250006899E+02  0.107996621E+01  0.195570182E+01
     4
 # iter = 52000  time[fs]=52.00000
   C -0.505322774E+01 -0.310513732E+00  0.241330410E-01
   C  0.490564629E+01 -0.541120026E-01 -0.137457962E+00
   H -0.260816936E+02  0.186706381E+01 -0.345030922E+00
   H  0.253900907E+02  0.109634907E+01  0.198603097E+01
     4
 # iter = 52500  time[fs]=52.50000
   C -0.513886742E+01 -0.315725699E+00  0.246499795E-01
   C  0.498843924E+01 -0.550116552E-01 -0.140270726E+00
   H -0.264852143E+02  0.189601259E+01 -0.350724213E+00
   H  0.257797693E+02  0.111274585E+01  0.201638522E+01
     4
 # iter = 53000  time[fs]=53.00000
   C -0.522463316E+01 -0.320942655E+00  0.251689095E-01
   C  0.507135619E+01 -0.559091807E-01 -0.143087199E+00
   H -0.268889795E+02  0.192498220E+01 -0.356421266E+00
   H  0.261697173E+02  0.112915615E+01  0.204676384E+01
     4
 # iter = 53500  time[fs]=53.50000
   C -0.531052085E+01 -0.326164442E+00  0.256897739E-01
   C  0.515439308E+01 -0.568046529E-01 -0.145907274E+00
   H -0.272929821E+02  0.195397203E+01 -0.362121974E+00
   H  0.265599268E+02  0.114557957E+01  0.207716613E+01
     4
 # iter = 54000  time[fs]=54.00000
   C -0.539652656E+01 -0.331390910E+00  0.262125179E-01
   C  0.523754601E+01 -0.576981414E-01 -0.148730849E+00
   H -0.276972152E+02  0.198298149E+01 -0.367826233E+00
   H  0.269503904E+02  0.116201572E+01  0.210759142E+01
     4
 # iter = 54500  time[fs]=54.50000
   C -0.548264653E+01 -0.336621918E+00  0.267370890E-01
   C  0.532081130E+01 -0.585897128E-01 -0.151557827E+00
   H -0.281016721E+02  0.201201003E+01 -0.373533945E+00
   H  0.273411008E+02  0.117846426E+01  0.213803907E+01
     4
 # iter = 55000  time[fs]=55.00000
   C -0.556887718E+01 -0.341857328E+00  0.272634366E-01
   C  0.540418541E+01 -0.594794306E-01 -0.154388113E+00
   H -0.285063465E+02  0.204105712E+01 -0.379245016E+00
   H  0.277320510E+02  0.119492483E+01  0.216850846E+01
     4
 # iter = 55500  time[fs]=55.50000
   C -0.565521510E+01 -0.347097009E+00  0.277915123E-01
   C  0.548766496E+01 -0.603673550E-01 -0.157221617E+00
   H -0.289112323E+02  0.207012225E+01 -0.384959354E+00
   H  0.281232344E+02  0.121139709E+01  0.219899899E+01
     4
 # iter = 56000  time[fs]=56.00000
   C -0.574165702E+01 -0.352340837E+00  0.283212693E-01
   C  0.557124675E+01 -0.612535436E-01 -0.160058253E+00
   H -0.293163237E+02  0.209920494E+01 -0.390676874E+00
   H  0.285146447E+02  0.122788074E+01  0.222951011E+01
     4
 # iter = 56500  time[fs]=56.50000
   C -0.582819981E+01 -0.357588692E+00  0.288526629E-01
   C  0.565492768E+01 -0.621380515E-01 -0.162897936E+00
   H -0.297216151E+02  0.212830470E+01 -0.396397490E+00
   H  0.289062757E+02  0.124437546E+01  0.226004126E+01
     4
 # iter = 57000  time[fs]=57.00000
   C -0.591484050E+01 -0.362840459E+00  0.293856498E-01
   C  0.573870482E+01 -0.630209311E-01 -0.165740587E+00
   H -0.301271011E+02  0.215742110E+01 -0.402121123E+00
   H  0.292981216E+02  0.126088096E+01  0.229059191E+01
     4
 # iter = 57500  time[fs]=57.50000
   C -0.600157620E+01 -0.368096029E+00  0.299201887E-01
   C  0.582257534E+01 -0.639022326E-01 -0.168586129E+00
   H -0.305327766E+02  0.218655369E+01 -0.407847695E+00
   H  0.296901766E+02  0.127739696E+01  0.232116158E+01
     4
 # iter = 58000  time[fs]=58.00000
   C -0.608840420E+01 -0.373355296E+00  0.304562395E-01
   C  0.590653654E+01 -0.647820040E-01 -0.171434487E+00
   H -0.309386366E+02  0.221570206E+01 -0.413577132E+00
   H  0.300824354E+02  0.129392318E+01  0.235174976E+01
     4
 # iter = 58500  time[fs]=58.50000
   C -0.617532185E+01 -0.378618159E+00  0.309937638E-01
   C  0.599058583E+01 -0.656602911E-01 -0.174285590E+00
   H -0.313446763E+02  0.224486581E+01 -0.419309362E+00
   H  0.304748927E+02  0.131045936E+01  0.238235599E+01
     4
 # iter = 59000  time[fs]=59.00000
   C -0.626232664E+01 -0.383884520E+00  0.315327245E-01
   C  0.607472073E+01 -0.665371378E-01 -0.177139370E+00
   H -0.317508912E+02  0.227404454E+01 -0.425044317E+00
   H  0.308675436E+02  0.132700525E+01  0.241297983E+01
     4
 # iter = 59500  time[fs]=59.50000
   C -0.634941615E+01 -0.389154287E+00  0.320730858E-01
   C  0.615893886E+01 -0.674125863E-01 -0.179995759E+00
   H -0.321572768E+02  0.230323790E+01 -0.430781928E+00
   H  0.312603831E+02  0.134356061E+01  0.244362083E+01
     4
 # iter = 60000  time[fs]=60.00000
   C -0.643658807E+01 -0.394427370E+00  0.326148132E-01
   C  0.624323793E+01 -0.682866768E-01 -0.182854695E+00
   H -0.325638289E+02  0.233244552E+01 -0.436522134E+00
   H  0.316534066E+02  0.136012521E+01  0.247427859E+01
     4
 # iter = 60500  time[fs]=60.50000
   C -0.652384016E+01 -0.399703683E+00  0.331578736E-01
   C  0.632761574E+01 -0.691594481E-01 -0.185716115E+00
   H -0.329705434E+02  0.236166705E+01 -0.442264871E+00
   H  0.320466096E+02  0.137669882E+01  0.250495270E+01
     4
 # iter = 61000  time[fs]=61.00000
   C -0.661117028E+01 -0.404983143E+00  0.337022348E-01
   C  0.641207020E+01 -0.700309371E-01 -0.188579959E+00
   H -0.333774163E+02  0.239090217E+01 -0.448010080E+00
   H  0.324399878E+02  0.139328121E+01  0.253564276E+01
     4
 # iter = 61500  time[fs]=61.50000
   C -0.669857637E+01 -0.410265669E+00  0.342478658E-01
   C  0.649659926E+01 -0.709011795E-01 -0.191446172E+00
   H -0.337844438E+02  0.242015055E+01 -0.453757703E+00
   H  0.328335370E+02  0.140987220E+01  0.256634842E+01
     4
 # iter = 62000  time[fs]=62.00000
   C -0.678605646E+01 -0.415551186E+00  0.347947368E-01
   C  0.658120098E+01 -0.717702094E-01 -0.194314696E+00
   H -0.341916223E+02  0.244941187E+01 -0.459507685E+00
   H  0.332272531E+02  0.142647156E+01  0.259706930E+01
     4
 # iter = 62500  time[fs]=62.50000
   C -0.687360863E+01 -0.420839618E+00  0.353428189E-01
   C  0.666587349E+01 -0.726380598E-01 -0.197185479E+00
   H -0.345989481E+02  0.247868585E+01 -0.465259972E+00
   H  0.336211323E+02  0.144307911E+01  0.262780505E+01
     4
 # iter = 63000  time[fs]=63.00000
   C -0.696123106E+01 -0.426130895E+00  0.358920841E-01
   C  0.675061497E+01 -0.735047621E-01 -0.200058469E+00
   H -0.350064180E+02  0.250797219E+01 -0.471014512E+00
   H  0.340151708E+02  0.145969465E+01  0.265855534E+01
     4
 # iter = 63500  time[fs]=63.50000
   C -0.704892198E+01 -0.431424948E+00  0.364425054E-01
   C  0.683542369E+01 -0.743703467E-01 -0.202933615E+00
   H -0.354140286E+02  0.253727061E+01 -0.476771255E+00
   H  0.344093650E+02  0.147631801E+01  0.268931984E+01
     4
 # iter = 64000  time[fs]=64.00000
   C -0.713667968E+01 -0.436721711E+00  0.369940568E-01
   C  0.692029797E+01 -0.752348429E-01 -0.205810870E+00
   H -0.358217766E+02  0.256658085E+01 -0.482530152E+00
   H  0.348037113E+02  0.149294901E+01  0.272009823E+01
     4
 # iter = 64500  time[fs]=64.50000
   C -0.722450252E+01 -0.442021119E+00  0.375467130E-01
   C  0.700523620E+01 -0.760982786E-01 -0.208690186E+00
   H -0.362296590E+02  0.259590263E+01 -0.488291157E+00
   H  0.351982064E+02  0.150958749E+01  0.275089022E+01
     4
 # iter = 65000  time[fs]=65.00000
   C -0.731238893E+01 -0.447323110E+00  0.381004496E-01
   C  0.709023682E+01 -0.769606811E-01 -0.211571519E+00
   H -0.366376729E+02  0.262523571E+01 -0.494054224E+00
   H  0.355928470E+02  0.152623326E+01  0.278169549E+01
     4
 # iter = 65500  time[fs]=65.50000
   C -0.740033737E+01 -0.452627626E+00  0.386552428E-01
   C  0.717529833E+01 -0.778220762E-01 -0.214454825E+00
   H -0.370458152E+02  0.265457985E+01 -0.499819309E+00
   H  0.359876298E+02  0.154288618E+01  0.281251378E+01
     4
 # iter = 66000  time[fs]=66.00000
   C -0.748834637E+01 -0.457934607E+00  0.392110699E-01
   C  0.726041927E+01 -0.786824893E-01 -0.217340061E+00
   H -0.374540833E+02  0.268393480E+01 -0.505586369E+00
   H  0.363825519E+02  0.155954610E+01  0.284334480E+01
     4
 # iter = 66500  time[fs]=66.50000
   C -0.757641451E+01 -0.463243999E+00  0.397679086E-01
   C  0.734559824E+01 -0.795419445E-01 -0.220227185E+00
   H -0.378624744E+02  0.271330034E+01 -0.511355364E+00
   H  0.367776102E+02  0.157621286E+01  0.287418829E+01
     4
 # iter = 67000  time[fs]=67.00000
   C -0.766454041E+01 -0.468555747E+00  0.403257374E-01
   C  0.743083391E+01 -0.804004652E-01 -0.223116160E+00
   H -0.382709859E+02  0.274267625E+01 -0.517126252E+00
   H  0.371728019E+02  0.159288631E+01  0.290504397E+01
     4
 # iter = 67500  time[fs]=67.50000
   C -0.775272275E+01 -0.473869800E+00  0.408845356E-01
   C  0.751612494E+01 -0.812580739E-01 -0.226006944E+00
   H -0.386796153E+02  0.277206230E+01 -0.522898996E+00
   H  0.375681242E+02  0.160956632E+01  0.293591161E+01
     4
 # iter = 68000  time[fs]=68.00000
   C -0.784096024E+01 -0.479186107E+00  0.414442829E-01
   C  0.760147010E+01 -0.821147924E-01 -0.228899503E+00
   H -0.390883601E+02  0.280145830E+01 -0.528673557E+00
   H  0.379635743E+02  0.162625276E+01  0.296679096E+01
     4
 # iter = 68500  time[fs]=68.50000
   C -0.792925165E+01 -0.484504618E+00  0.420049597E-01
   C  0.768686815E+01 -0.829706416E-01 -0.231793798E+00
   H -0.394972179E+02  0.283086403E+01 -0.534449900E+00
   H  0.383591497E+02  0.164294549E+01  0.299768178E+01
     4
 # iter = 69000  time[fs]=69.00000
   C -0.801759576E+01 -0.489825288E+00  0.425665470E-01
   C  0.777231791E+01 -0.838256420E-01 -0.234689795E+00
   H -0.399061865E+02  0.286027931E+01 -0.540227988E+00
   H  0.387548477E+02  0.165964438E+01  0.302858384E+01
     4
 # iter = 69500  time[fs]=69.50000
   C -0.810599143E+01 -0.495148069E+00  0.431290265E-01
   C  0.785781825E+01 -0.846798131E-01 -0.237587459E+00
   H -0.403152635E+02  0.288970394E+01 -0.546007788E+00
   H  0.391506660E+02  0.167634931E+01  0.305949692E+01
     4
 # iter = 70000  time[fs]=70.00000
   C -0.819443753E+01 -0.500472918E+00  0.436923802E-01
   C  0.794336805E+01 -0.855331738E-01 -0.240486759E+00
   H -0.407244468E+02  0.291913774E+01 -0.551789265E+00
   H  0.395466021E+02  0.169306016E+01  0.309042080E+01
     4
 # iter = 70500  time[fs]=70.50000
   C -0.828293296E+01 -0.505799792E+00  0.442565908E-01
   C  0.802896625E+01 -0.863857426E-01 -0.243387660E+00
   H -0.411337343E+02  0.294858053E+01 -0.557572389E+00
   H  0.399426537E+02  0.170977681E+01  0.312135527E+01
     4
 # iter = 71000  time[fs]=71.00000
   C -0.837147668E+01 -0.511128648E+00  0.448216413E-01
   C  0.811461181E+01 -0.872375371E-01 -0.246290133E+00
   H -0.415431239E+02  0.297803213E+01 -0.563357127E+00
   H  0.403388185E+02  0.172649916E+01  0.315230013E+01
     4
 # iter = 71500  time[fs]=71.50000
   C -0.846006765E+01 -0.516459447E+00  0.453875155E-01
   C  0.820030372E+01 -0.880885745E-01 -0.249194147E+00
   H -0.419526137E+02  0.300749237E+01 -0.569143448E+00
   H  0.407350944E+02  0.174322708E+01  0.318325518E+01
     4
 # iter = 72000  time[fs]=72.00000
   C -0.854870491E+01 -0.521792150E+00  0.459541974E-01
   C  0.828604102E+01 -0.889388715E-01 -0.252099672E+00
   H -0.423622018E+02  0.303696110E+01 -0.574931323E+00
   H  0.411314792E+02  0.175996048E+01  0.321422022E+01
     4
 # iter = 72500  time[fs]=72.50000
   C -0.863738747E+01 -0.527126717E+00  0.465216716E-01
   C  0.837182275E+01 -0.897884441E-01 -0.255006679E+00
   H -0.427718861E+02  0.306643815E+01 -0.580720723E+00
   H  0.415279708E+02  0.177669925E+01  0.324519508E+01
     4
 # iter = 73000  time[fs]=73.00000
   C -0.872611442E+01 -0.532463113E+00  0.470899229E-01
   C  0.845764801E+01 -0.906373078E-01 -0.257915141E+00
   H -0.431816650E+02  0.309592336E+01 -0.586511620E+00
   H  0.419245673E+02  0.179344328E+01  0.327617956E+01
     4
 # iter = 73500  time[fs]=73.50000
   C -0.881488485E+01 -0.537801302E+00  0.476589368E-01
   C  0.854351590E+01 -0.914854779E-01 -0.260825031E+00
   H -0.435915367E+02  0.312541659E+01 -0.592303987E+00
   H  0.423212666E+02  0.181019249E+01  0.330717350E+01
     4
 # iter = 74000  time[fs]=74.00000
   C -0.890369788E+01 -0.543141248E+00  0.482286992E-01
   C  0.862942557E+01 -0.923329689E-01 -0.263736322E+00
   H -0.440014994E+02  0.315491768E+01 -0.598097797E+00
   H  0.427180669E+02  0.182694677E+01  0.333817671E+01
     4
 # iter = 74500  time[fs]=74.50000
   C -0.899255267E+01 -0.548482918E+00  0.487991960E-01
   C  0.871537618E+01 -0.931797949E-01 -0.266648989E+00
   H -0.444115514E+02  0.318442650E+01 -0.603893023E+00
   H  0.431149663E+02  0.184370603E+01  0.336918903E+01
     4
 # iter = 75000  time[fs]=75.00000
   C -0.908144838E+01 -0.553826278E+00  0.493704140E-01
   C  0.880136692E+01 -0.940259699E-01 -0.269563007E+00
   H -0.448216911E+02  0.321394291E+01 -0.609689642E+00
   H  0.435119631E+02  0.186047019E+01  0.340021030E+01
     4
 # iter = 75500  time[fs]=75.50000
   C -0.917038423E+01 -0.559171298E+00  0.499423399E-01
   C  0.888739700E+01 -0.948715070E-01 -0.272478351E+00
   H -0.452319170E+02  0.324346676E+01 -0.615487628E+00
   H  0.439090554E+02  0.187723915E+01  0.343124036E+01
     4
 # iter = 76000  time[fs]=76.00000
   C -0.925935942E+01 -0.564517946E+00  0.505149611E-01
   C  0.897346565E+01 -0.957164193E-01 -0.275394998E+00
   H -0.456422275E+02  0.327299794E+01 -0.621286957E+00
   H  0.443062416E+02  0.189401282E+01  0.346227905E+01
     4
 # iter = 76500  time[fs]=76.50000
   C -0.934837320E+01 -0.569866191E+00  0.510882652E-01
   C  0.905957214E+01 -0.965607194E-01 -0.278312924E+00
   H -0.460526211E+02  0.330253630E+01 -0.627087606E+00
   H  0.447035200E+02  0.191079114E+01  0.349332622E+01
     4
 # iter = 77000  time[fs]=77.00000
   C -0.943742484E+01 -0.575216005E+00  0.516622400E-01
   C  0.914571574E+01 -0.974044193E-01 -0.281232108E+00
   H -0.464630962E+02  0.333208173E+01 -0.632889553E+00
   H  0.451008890E+02  0.192757401E+01  0.352438173E+01
     4
 # iter = 77500  time[fs]=77.50000
   C -0.952651362E+01 -0.580567359E+00  0.522368737E-01
   C  0.923189574E+01 -0.982475310E-01 -0.284152527E+00
   H -0.468736516E+02  0.336163410E+01 -0.638692775E+00
   H  0.454983469E+02  0.194436135E+01  0.355544544E+01
     4
 # iter = 78000  time[fs]=78.00000
   C -0.961563885E+01 -0.585920224E+00  0.528121550E-01
   C  0.931811147E+01 -0.990900660E-01 -0.287074160E+00
   H -0.472842858E+02  0.339119330E+01 -0.644497252E+00
   H  0.458958924E+02  0.196115309E+01  0.358651720E+01
     4
 # iter = 78500  time[fs]=78.50000
   C -0.970479985E+01 -0.591274575E+00  0.533880726E-01
   C  0.940436226E+01 -0.999320355E-01 -0.289996987E+00
   H -0.476949974E+02  0.342075920E+01 -0.650302961E+00
   H  0.462935238E+02  0.197794916E+01  0.361759687E+01
     4
 # iter = 79000  time[fs]=79.00000
   C -0.979399597E+01 -0.596630384E+00  0.539646156E-01
   C  0.949064747E+01 -0.100773450E+00 -0.292920987E+00
   H -0.481057852E+02  0.345033170E+01 -0.656109882E+00
   H  0.466912398E+02  0.199474947E+01  0.364868433E+01
     4
 # iter = 79500  time[fs]=79.50000
   C -0.988322655E+01 -0.601987626E+00  0.545417734E-01
   C  0.957696646E+01 -0.101614321E+00 -0.295846141E+00
   H -0.485166478E+02  0.347991069E+01 -0.661917996E+00
   H  0.470890388E+02  0.201155397E+01  0.367977945E+01
     4
 # iter = 80000  time[fs]=80.00000
   C -0.997249099E+01 -0.607346276E+00  0.551195356E-01
   C  0.966331863E+01 -0.102454658E+00 -0.298772428E+00
   H -0.489275841E+02  0.350949606E+01 -0.667727282E+00
   H  0.474869196E+02  0.202836257E+01  0.371088210E+01
