     4
 # iter = 25000  time[fs]=25.00000
   C -0.103028617E+01 -0.422413588E-01  0.240593011E-01
   C  0.939605266E+00 -0.341793719E-01  0.258025597E-01
   H -0.534122846E+01  0.478407801E+00 -0.215080374E+00
   H  0.522312092E+01  0.295873215E+00 -0.383893639E+00
     4
 # iter = 25500  time[fs]=25.50000
   C -0.107739517E+01 -0.451833711E-01  0.257085824E-01
   C  0.977220876E+00 -0.364065085E-01  0.285087382E-01
   H -0.567470668E+01  0.508054062E+00 -0.228707042E+00
   H  0.553868357E+01  0.314009773E+00 -0.407408984E+00
     4
 # iter = 26000  time[fs]=26.00000
   C -0.112736286E+01 -0.481713117E-01  0.273736118E-01
   C  0.101762706E+01 -0.386613324E-01  0.312587082E-01
   H -0.601316305E+01  0.538194432E+00 -0.242556359E+00
   H  0.586004181E+01  0.332535607E+00 -0.431416156E+00
     4
 # iter = 26500  time[fs]=26.50000
   C -0.117995859E+01 -0.512007862E-01  0.290513103E-01
   C  0.106060069E+01 -0.409399757E-01  0.340489624E-01
   H -0.635604776E+01  0.568773424E+00 -0.256603786E+00
   H  0.618655554E+01  0.351407060E+00 -0.455860659E+00
     4
 # iter = 27000  time[fs]=27.00000
   C -0.123496656E+01 -0.542679592E-01  0.307391807E-01
   C  0.110593240E+01 -0.432392793E-01  0.368764077E-01
   H -0.670289252E+01  0.599744067E+00 -0.270828484E+00
   H  0.651767919E+01  0.370587168E+00 -0.480696245E+00
     4
 # iter = 27500  time[fs]=27.50000
   C -0.129218687E+01 -0.573694618E-01  0.324352012E-01
   C  0.115342784E+01 -0.455566463E-01  0.397382863E-01
   H -0.705329595E+01  0.631066303E+00 -0.285212624E+00
   H  0.685294496E+01  0.390044400E+00 -0.505883391E+00
     4
 # iter = 28000  time[fs]=28.00000
   C -0.135143583E+01 -0.605023193E-01  0.341377376E-01
   C  0.120290808E+01 -0.478899271E-01  0.426321191E-01
   H -0.740691192E+01  0.662705721E+00 -0.299740851E+00
   H  0.719194933E+01  0.409751671E+00 -0.531388090E+00
     4
 # iter = 28500  time[fs]=28.50000
   C -0.141254553E+01 -0.636638937E-01  0.358454696E-01
   C  0.125420937E+01 -0.502373295E-01  0.455556635E-01
   H -0.776344027E+01  0.694632575E+00 -0.314399856E+00
   H  0.753434236E+01  0.429685571E+00 -0.557180898E+00
     4
 # iter = 29000  time[fs]=29.00000
   C -0.147536313E+01 -0.668518375E-01  0.375573311E-01
   C  0.130718249E+01 -0.525973486E-01  0.485068821E-01
   H -0.812261927E+01  0.726820995E+00 -0.329178036E+00
   H  0.787981893E+01  0.449825736E+00 -0.583236175E+00
     4
 # iter = 29500  time[fs]=29.50000
   C -0.153974986E+01 -0.700640545E-01  0.392724610E-01
   C  0.136169184E+01 -0.549687113E-01  0.514839174E-01
   H -0.848421959E+01  0.759248358E+00 -0.344065222E+00
   H  0.822811168E+01  0.470154362E+00 -0.609531467E+00
     4
 # iter = 30000  time[fs]=30.00000
   C -0.160558000E+01 -0.732986677E-01  0.409901637E-01
   C  0.141761447E+01 -0.573503330E-01  0.544850720E-01
   H -0.884803931E+01  0.791894775E+00 -0.359052460E+00
   H  0.857898528E+01  0.490655795E+00 -0.636047014E+00
     4
 # iter = 30500  time[fs]=30.50000
   C -0.167273971E+01 -0.765539919E-01  0.427098770E-01
   C  0.147483902E+01 -0.597412828E-01  0.575087918E-01
   H -0.921389987E+01  0.824742681E+00 -0.374131824E+00
   H  0.893223160E+01  0.511316209E+00 -0.662765343E+00
     4
 # iter = 31000  time[fs]=31.00000
   C -0.174112596E+01 -0.798285100E-01  0.444311464E-01
   C  0.153326463E+01 -0.621407567E-01  0.605536509E-01
   H -0.958164269E+01  0.857776489E+00 -0.389296269E+00
   H  0.928766586E+01  0.532123336E+00 -0.689670936E+00
     4
 # iter = 31500  time[fs]=31.50000
   C -0.181064550E+01 -0.831208532E-01  0.461536041E-01
   C  0.159280000E+01 -0.645480553E-01  0.636183400E-01
   H -0.995112638E+01  0.890982314E+00 -0.404539512E+00
   H  0.964512333E+01  0.553066243E+00 -0.716749952E+00
     4
 # iter = 32000  time[fs]=32.00000
   C -0.188121388E+01 -0.864297834E-01  0.478769526E-01
   C  0.165336243E+01 -0.669625667E-01  0.667016547E-01
   H -0.103222244E+02  0.924347735E+00 -0.419855921E+00
   H  0.100044566E+02  0.574135153E+00 -0.743989997E+00
     4
 # iter = 32500  time[fs]=32.50000
   C -0.195275456E+01 -0.897541785E-01  0.496009511E-01
   C  0.171487692E+01 -0.693837520E-01  0.698024861E-01
   H -0.106948232E+02  0.957861601E+00 -0.435240437E+00
   H  0.103655334E+02  0.595321283E+00 -0.771379936E+00
     4
 # iter = 33000  time[fs]=33.00000
   C -0.202519808E+01 -0.930930188E-01  0.513254047E-01
   C  0.177727543E+01 -0.718111343E-01  0.729198117E-01
   H -0.110688202E+02  0.991513865E+00 -0.450688492E+00
   H  0.107282344E+02  0.616616723E+00 -0.798909727E+00
     4
 # iter = 33500  time[fs]=33.50000
   C -0.209848135E+01 -0.964453764E-01  0.530501561E-01
   C  0.184049613E+01 -0.742442893E-01  0.760526878E-01
   H -0.114441231E+02  0.102529545E+01 -0.466195958E+00
   H  0.110924520E+02  0.638014321E+00 -0.826570288E+00
     4
 # iter = 34000  time[fs]=34.00000
   C -0.217254700E+01 -0.998104042E-01  0.547750781E-01
   C  0.190448279E+01 -0.766828374E-01  0.792002424E-01
   H -0.118206479E+02  0.105919812E+01 -0.481759085E+00
   H  0.114580884E+02  0.659507592E+00 -0.854353376E+00
     4
 # iter = 34500  time[fs]=34.50000
   C -0.224734272E+01 -0.103187328E+00  0.565000683E-01
   C  0.196918416E+01 -0.791264375E-01  0.823616684E-01
   H -0.121983183E+02  0.109321440E+01 -0.497374461E+00
   H  0.118250548E+02  0.681090639E+00 -0.882251491E+00
     4
 # iter = 35000  time[fs]=35.00000
   C -0.232282082E+01 -0.106575440E+00  0.582250443E-01
   C  0.203455349E+01 -0.815747819E-01  0.855362186E-01
   H -0.125770649E+02  0.112733745E+01 -0.513038972E+00
   H  0.121932705E+02  0.702758083E+00 -0.910257791E+00
     4
 # iter = 35500  time[fs]=35.50000
   C -0.239893771E+01 -0.109974087E+00  0.599499403E-01
   C  0.210054805E+01 -0.840275918E-01  0.887231998E-01
   H -0.129568240E+02  0.116156105E+01 -0.528749771E+00
   H  0.125626613E+02  0.724505008E+00 -0.938366015E+00
     4
 # iter = 36000  time[fs]=36.00000
   C -0.247565351E+01 -0.113382673E+00  0.616747038E-01
   C  0.216712875E+01 -0.864846138E-01  0.919219684E-01
   H -0.133375376E+02  0.119587948E+01 -0.544504244E+00
   H  0.129331598E+02  0.746326909E+00 -0.966570422E+00
     4
 # iter = 36500  time[fs]=36.50000
   C -0.255293162E+01 -0.116800647E+00  0.633992932E-01
   C  0.223425974E+01 -0.889456164E-01  0.951319262E-01
   H -0.137191521E+02  0.123028748E+01 -0.560299992E+00
   H  0.133047036E+02  0.768219644E+00 -0.994865737E+00
     4
 # iter = 37000  time[fs]=37.00000
   C -0.263073848E+01 -0.120227498E+00  0.651236761E-01
   C  0.230190812E+01 -0.914103879E-01  0.983525164E-01
   H -0.141016184E+02  0.126478023E+01 -0.576134803E+00
   H  0.136772356E+02  0.790179404E+00 -0.102324710E+01
     4
 # iter = 37500  time[fs]=37.50000
   C -0.270904321E+01 -0.123662759E+00  0.668478273E-01
   C  0.237004360E+01 -0.938787338E-01  0.101583220E+00
   H -0.144848913E+02  0.129935327E+01 -0.592006634E+00
   H  0.140507031E+02  0.812202672E+00 -0.105171002E+01
     4
 # iter = 38000  time[fs]=38.00000
   C -0.278781736E+01 -0.127105993E+00  0.685717275E-01
   C  0.243863833E+01 -0.963504750E-01  0.104823554E+00
   H -0.148689287E+02  0.133400248E+01 -0.607913598E+00
   H  0.144250574E+02  0.834286197E+00 -0.108025036E+01
     4
 # iter = 38500  time[fs]=38.50000
   C -0.286703469E+01 -0.130556797E+00  0.702953628E-01
   C  0.250766658E+01 -0.988254462E-01  0.108073065E+00
   H -0.152536919E+02  0.136872405E+01 -0.623853946E+00
   H  0.148002534E+02  0.856426967E+00 -0.110886426E+01
     4
 # iter = 39000  time[fs]=39.00000
   C -0.294667096E+01 -0.134014796E+00  0.720187228E-01
   C  0.257710461E+01 -0.101303494E+00  0.111331331E+00
   H -0.156391451E+02  0.140351443E+01 -0.639826053E+00
   H  0.151762493E+02  0.878622190E+00 -0.113754816E+01
     4
 # iter = 39500  time[fs]=39.50000
   C -0.302670374E+01 -0.137479643E+00  0.737418006E-01
   C  0.264693042E+01 -0.103784477E+00  0.114597956E+00
   H -0.160252547E+02  0.143837033E+01 -0.655828410E+00
   H  0.155530063E+02  0.900869267E+00 -0.116629874E+01
     4
 # iter = 40000  time[fs]=40.00000
   C -0.310711223E+01 -0.140951011E+00  0.754645923E-01
   C  0.271712365E+01 -0.106268263E+00  0.117872570E+00
   H -0.164119898E+02  0.147328870E+01 -0.671859610E+00
   H  0.159304883E+02  0.923165781E+00 -0.119511291E+01
     4
 # iter = 40500  time[fs]=40.50000
   C -0.318787715E+01 -0.144428598E+00  0.771870957E-01
   C  0.278766540E+01 -0.108754729E+00  0.121154826E+00
   H -0.167993214E+02  0.150826667E+01 -0.687918341E+00
   H  0.163086617E+02  0.945509476E+00 -0.122398778E+01
     4
 # iter = 41000  time[fs]=41.00000
   C -0.326898057E+01 -0.147912122E+00  0.789093106E-01
   C  0.285853812E+01 -0.111243760E+00  0.124444396E+00
   H -0.171872224E+02  0.154330158E+01 -0.704003378E+00
   H  0.166874950E+02  0.967898247E+00 -0.125292066E+01
     4
 # iter = 41500  time[fs]=41.50000
   C -0.335040581E+01 -0.151401317E+00  0.806312384E-01
   C  0.292972546E+01 -0.113735248E+00  0.127740973E+00
   H -0.175756676E+02  0.157839094E+01 -0.720113573E+00
   H  0.170669588E+02  0.990330122E+00 -0.128190903E+01
     4
 # iter = 42000  time[fs]=42.00000
   C -0.343213733E+01 -0.154895936E+00  0.823528814E-01
   C  0.300121218E+01 -0.116229094E+00  0.131044270E+00
   H -0.179646333E+02  0.161353242E+01 -0.736247854E+00
   H  0.174470258E+02  0.101280326E+01 -0.131095052E+01
     4
 # iter = 42500  time[fs]=42.50000
   C -0.351416062E+01 -0.158395746E+00  0.840742429E-01
   C  0.307298410E+01 -0.118725203E+00  0.134354014E+00
   H -0.183540975E+02  0.164872381E+01 -0.752405211E+00
   H  0.178276702E+02  0.103531592E+01 -0.134004292E+01
     4
 # iter = 43000  time[fs]=43.00000
   C -0.359646213E+01 -0.161900530E+00  0.857953270E-01
   C  0.314502795E+01 -0.121223485E+00  0.137669947E+00
   H -0.187440392E+02  0.168396307E+01 -0.768584698E+00
   H  0.182088678E+02  0.105786649E+01 -0.136918414E+01
     4
 # iter = 43500  time[fs]=43.50000
   C -0.367902920E+01 -0.165410082E+00  0.875161384E-01
   C  0.321733130E+01 -0.123723858E+00  0.140991830E+00
   H -0.191344390E+02  0.171924826E+01 -0.784785425E+00
   H  0.185905958E+02  0.108045343E+01 -0.139837223E+01
     4
 # iter = 44000  time[fs]=44.00000
   C -0.376184995E+01 -0.168924209E+00  0.892366820E-01
   C  0.328988255E+01 -0.126226244E+00  0.144319432E+00
   H -0.195252784E+02  0.175457756E+01 -0.801006554E+00
   H  0.189728331E+02  0.110307531E+01 -0.142760535E+01
     4
 # iter = 44500  time[fs]=44.50000
   C -0.384491326E+01 -0.172442730E+00  0.909569633E-01
   C  0.336267080E+01 -0.128730567E+00  0.147652537E+00
   H -0.199165402E+02  0.178994927E+01 -0.817247295E+00
   H  0.193555594E+02  0.112573077E+01 -0.145688175E+01
     4
 # iter = 45000  time[fs]=45.00000
   C -0.392820869E+01 -0.175965473E+00  0.926769879E-01
   C  0.343568583E+01 -0.131236758E+00  0.150990942E+00
   H -0.203082080E+02  0.182536174E+01 -0.833506901E+00
   H  0.197387559E+02  0.114841853E+01 -0.148619979E+01
     4
 # iter = 45500  time[fs]=45.50000
   C -0.401172643E+01 -0.179492277E+00  0.943967617E-01
   C  0.350891803E+01 -0.133744750E+00  0.154334452E+00
   H -0.207002664E+02  0.186081348E+01 -0.849784668E+00
   H  0.201224045E+02  0.117113739E+01 -0.151555793E+01
     4
 # iter = 46000  time[fs]=46.00000
   C -0.409545724E+01 -0.183022988E+00  0.961162904E-01
   C  0.358235837E+01 -0.136254482E+00  0.157682885E+00
   H -0.210927008E+02  0.189630301E+01 -0.866079931E+00
   H  0.205064884E+02  0.119388619E+01 -0.154495469E+01
     4
 # iter = 46500  time[fs]=46.50000
   C -0.417939245E+01 -0.186557462E+00  0.978355800E-01
   C  0.365599835E+01 -0.138765892E+00  0.161036064E+00
   H -0.214854975E+02  0.193182899E+01 -0.882392058E+00
   H  0.208909917E+02  0.121666386E+01 -0.157438869E+01
     4
 # iter = 47000  time[fs]=47.00000
   C -0.426352385E+01 -0.190095562E+00  0.995546364E-01
   C  0.372982994E+01 -0.141278925E+00  0.164393827E+00
   H -0.218786435E+02  0.196739011E+01 -0.898720453E+00
   H  0.212758991E+02  0.123946938E+01 -0.160385862E+01
     4
 # iter = 47500  time[fs]=47.50000
   C -0.434784373E+01 -0.193637159E+00  0.101273466E+00
   C  0.380384559E+01 -0.143793528E+00  0.167756014E+00
   H -0.222721262E+02  0.200298515E+01 -0.915064548E+00
   H  0.216611964E+02  0.126230176E+01 -0.163336322E+01
     4
 # iter = 48000  time[fs]=48.00000
   C -0.443234478E+01 -0.197182130E+00  0.102992074E+00
   C  0.387803816E+01 -0.146309649E+00  0.171122477E+00
   H -0.226659342E+02  0.203861294E+01 -0.931423807E+00
   H  0.220468698E+02  0.128516010E+01 -0.166290131E+01
     4
 # iter = 48500  time[fs]=48.50000
   C -0.451702010E+01 -0.200730357E+00  0.104710466E+00
   C  0.395240090E+01 -0.148827239E+00  0.174493074E+00
   H -0.230600561E+02  0.207427237E+01 -0.947797717E+00
   H  0.224329066E+02  0.130804351E+01 -0.169247177E+01
     4
 # iter = 49000  time[fs]=49.00000
   C -0.460186318E+01 -0.204281730E+00  0.106428648E+00
   C  0.402692742E+01 -0.151346253E+00  0.177867670E+00
   H -0.234544815E+02  0.210996239E+01 -0.964185793E+00
   H  0.228192945E+02  0.133095116E+01 -0.172207353E+01
     4
 # iter = 49500  time[fs]=49.50000
   C -0.468686783E+01 -0.207836144E+00  0.108146627E+00
   C  0.410161169E+01 -0.153866647E+00  0.181246135E+00
   H -0.238492002E+02  0.214568201E+01 -0.980587574E+00
   H  0.232060217E+02  0.135388226E+01 -0.175170556E+01
     4
 # iter = 50000  time[fs]=50.00000
   C -0.477202820E+01 -0.211393498E+00  0.109864406E+00
   C  0.417644796E+01 -0.156388377E+00  0.184628346E+00
   H -0.242442028E+02  0.218143027E+01 -0.997002618E+00
   H  0.235930772E+02  0.137683605E+01 -0.178136690E+01
     4
 # iter = 50500  time[fs]=50.50000
   C -0.485733872E+01 -0.214953697E+00  0.111581992E+00
   C  0.425143080E+01 -0.158911406E+00  0.188014186E+00
   H -0.246394800E+02  0.221720625E+01 -0.101343051E+01
   H  0.239804503E+02  0.139981182E+01 -0.181105663E+01
     4
 # iter = 51000  time[fs]=51.00000
   C -0.494279414E+01 -0.218516649E+00  0.113299390E+00
   C  0.432655507E+01 -0.161435693E+00  0.191403544E+00
   H -0.250350232E+02  0.225300910E+01 -0.102987084E+01
   H  0.243681311E+02  0.142280888E+01 -0.184077385E+01
     4
 # iter = 51500  time[fs]=51.50000
   C -0.502838944E+01 -0.222082268E+00  0.115016605E+00
   C  0.440181587E+01 -0.163961203E+00  0.194796311E+00
   H -0.254308242E+02  0.228883799E+01 -0.104632323E+01
   H  0.247561100E+02  0.144582658E+01 -0.187051774E+01
     4
 # iter = 52000  time[fs]=52.00000
   C -0.511411985E+01 -0.225650472E+00  0.116733641E+00
   C  0.447720852E+01 -0.166487900E+00  0.198192386E+00
   H -0.258268749E+02  0.232469213E+01 -0.106278733E+01
   H  0.251443776E+02  0.146886428E+01 -0.190028748E+01
     4
 # iter = 52500  time[fs]=52.50000
   C -0.519998086E+01 -0.229221181E+00  0.118450505E+00
   C  0.455272861E+01 -0.169015751E+00  0.201591670E+00
   H -0.262231679E+02  0.236057076E+01 -0.107926277E+01
   H  0.255329254E+02  0.149192140E+01 -0.193008231E+01
     4
 # iter = 53000  time[fs]=53.00000
   C -0.528596813E+01 -0.232794319E+00  0.120167200E+00
   C  0.462837192E+01 -0.171544724E+00  0.204994071E+00
   H -0.266196960E+02  0.239647317E+01 -0.109574922E+01
   H  0.259217448E+02  0.151499736E+01 -0.195990149E+01
     4
 # iter = 53500  time[fs]=53.50000
   C -0.537207757E+01 -0.236369815E+00  0.121883730E+00
   C  0.470413443E+01 -0.174074788E+00  0.208399497E+00
   H -0.270164521E+02  0.243239866E+01 -0.111224638E+01
   H  0.263108279E+02  0.153809161E+01 -0.198974432E+01
     4
 # iter = 54000  time[fs]=54.00000
   C -0.545830526E+01 -0.239947599E+00  0.123600101E+00
   C  0.478001230E+01 -0.176605913E+00  0.211807864E+00
   H -0.274134298E+02  0.246834657E+01 -0.112875392E+01
   H  0.267001671E+02  0.156120364E+01 -0.201961013E+01
     4
 # iter = 54500  time[fs]=54.50000
   C -0.554464745E+01 -0.243527605E+00  0.125316317E+00
   C  0.485600189E+01 -0.179138070E+00  0.215219089E+00
   H -0.278106226E+02  0.250431627E+01 -0.114527156E+01
   H  0.270897550E+02  0.158433294E+01 -0.204949827E+01
     4
 # iter = 55000  time[fs]=55.00000
   C -0.563110058E+01 -0.247109770E+00  0.127032382E+00
   C  0.493209970E+01 -0.181671234E+00  0.218633092E+00
   H -0.282080245E+02  0.254030715E+01 -0.116179902E+01
   H  0.274795845E+02  0.160747903E+01 -0.207940811E+01
     4
 # iter = 55500  time[fs]=55.50000
   C -0.571766124E+01 -0.250694033E+00  0.128748299E+00
   C  0.500830241E+01 -0.184205377E+00  0.222049798E+00
   H -0.286056297E+02  0.257631864E+01 -0.117833603E+01
   H  0.278696490E+02  0.163064145E+01 -0.210933908E+01
     4
 # iter = 56000  time[fs]=56.00000
   C -0.580432616E+01 -0.254280336E+00  0.130464073E+00
   C  0.508460681E+01 -0.186740475E+00  0.225469134E+00
   H -0.290034327E+02  0.261235017E+01 -0.119488233E+01
   H  0.282599420E+02  0.165381975E+01 -0.213929059E+01
     4
 # iter = 56500  time[fs]=56.50000
   C -0.589109223E+01 -0.257868622E+00  0.132179708E+00
   C  0.516100988E+01 -0.189276502E+00  0.228891029E+00
   H -0.294014280E+02  0.264840120E+01 -0.121143767E+01
   H  0.286504572E+02  0.167701352E+01 -0.216926211E+01
     4
 # iter = 57000  time[fs]=57.00000
   C -0.597795647E+01 -0.261458839E+00  0.133895206E+00
   C  0.523750869E+01 -0.191813437E+00  0.232315417E+00
   H -0.297996105E+02  0.268447123E+01 -0.122800182E+01
   H  0.290411887E+02  0.170022234E+01 -0.219925310E+01
     4
 # iter = 57500  time[fs]=57.50000
   C -0.606491602E+01 -0.265050935E+00  0.135610573E+00
   C  0.531410044E+01 -0.194351256E+00  0.235742232E+00
   H -0.301979753E+02  0.272055975E+01 -0.124457454E+01
   H  0.294321307E+02  0.172344582E+01 -0.222926305E+01
     4
 # iter = 58000  time[fs]=58.00000
   C -0.615196814E+01 -0.268644860E+00  0.137325810E+00
   C  0.539078248E+01 -0.196889937E+00  0.239171413E+00
   H -0.305965177E+02  0.275666630E+01 -0.126115561E+01
   H  0.298232779E+02  0.174668359E+01 -0.225929149E+01
     4
 # iter = 58500  time[fs]=58.50000
   C -0.623911021E+01 -0.272240567E+00  0.139040922E+00
   C  0.546755222E+01 -0.199429461E+00  0.242602898E+00
   H -0.309952330E+02  0.279279041E+01 -0.127774483E+01
   H  0.302146249E+02  0.176993527E+01 -0.228933795E+01
     4
 # iter = 59000  time[fs]=59.00000
   C -0.632633970E+01 -0.275838009E+00  0.140755912E+00
   C  0.554440722E+01 -0.201969806E+00  0.246036632E+00
   H -0.313941169E+02  0.282893164E+01 -0.129434199E+01
   H  0.306061665E+02  0.179320053E+01 -0.231940196E+01
     4
 # iter = 59500  time[fs]=59.50000
   C -0.641365422E+01 -0.279437143E+00  0.142470782E+00
   C  0.562134512E+01 -0.204510954E+00  0.249472557E+00
   H -0.317931651E+02  0.286508956E+01 -0.131094688E+01
   H  0.309978979E+02  0.181647903E+01 -0.234948311E+01
     4
 # iter = 60000  time[fs]=60.00000
   C -0.650105142E+01 -0.283037927E+00  0.144185537E+00
   C  0.569836364E+01 -0.207052886E+00  0.252910621E+00
   H -0.321923735E+02  0.290126377E+01 -0.132755933E+01
   H  0.313898144E+02  0.183977043E+01 -0.237958097E+01
     4
 # iter = 60500  time[fs]=60.50000
   C -0.658852909E+01 -0.286640319E+00  0.145900178E+00
   C  0.577546061E+01 -0.209595584E+00  0.256350771E+00
   H -0.325917383E+02  0.293745388E+01 -0.134417915E+01
   H  0.317819115E+02  0.186307444E+01 -0.240969514E+01
     4
 # iter = 61000  time[fs]=61.00000
   C -0.667608509E+01 -0.290244281E+00  0.147614708E+00
   C  0.585263394E+01 -0.212139030E+00  0.259792957E+00
   H -0.329912557E+02  0.297365950E+01 -0.136080616E+01
   H  0.321741847E+02  0.188639074E+01 -0.243982523E+01
     4
 # iter = 61500  time[fs]=61.50000
   C -0.676371736E+01 -0.293849773E+00  0.149329131E+00
   C  0.592988161E+01 -0.214683207E+00  0.263237132E+00
   H -0.333909219E+02  0.300988026E+01 -0.137744020E+01
   H  0.325666298E+02  0.190971905E+01 -0.246997087E+01
     4
 # iter = 62000  time[fs]=62.00000
   C -0.685142391E+01 -0.297456760E+00  0.151043449E+00
   C  0.600720170E+01 -0.217228100E+00  0.266683249E+00
   H -0.337907336E+02  0.304611582E+01 -0.139408109E+01
   H  0.329592427E+02  0.193305908E+01 -0.250013168E+01
     4
 # iter = 62500  time[fs]=62.50000
   C -0.693920284E+01 -0.301065206E+00  0.152757664E+00
   C  0.608459235E+01 -0.219773692E+00  0.270131263E+00
   H -0.341906871E+02  0.308236582E+01 -0.141072869E+01
   H  0.333520195E+02  0.195641056E+01 -0.253030733E+01
     4
 # iter = 63000  time[fs]=63.00000
   C -0.702705232E+01 -0.304675078E+00  0.154471779E+00
   C  0.616205175E+01 -0.222319969E+00  0.273581131E+00
   H -0.345907794E+02  0.311862995E+01 -0.142738284E+01
   H  0.337449564E+02  0.197977324E+01 -0.256049747E+01
     4
 # iter = 63500  time[fs]=63.50000
   C -0.711497057E+01 -0.308286341E+00  0.156185796E+00
   C  0.623957819E+01 -0.224866914E+00  0.277032810E+00
   H -0.349910072E+02  0.315490787E+01 -0.144404338E+01
   H  0.341380498E+02  0.200314686E+01 -0.259070179E+01
     4
 # iter = 64000  time[fs]=64.00000
   C -0.720295589E+01 -0.311898965E+00  0.157899718E+00
   C  0.631717000E+01 -0.227414516E+00  0.280486260E+00
   H -0.353913675E+02  0.319119929E+01 -0.146071018E+01
   H  0.345312960E+02  0.202653117E+01 -0.262091995E+01
     4
 # iter = 64500  time[fs]=64.50000
   C -0.729100664E+01 -0.315512918E+00  0.159613548E+00
   C  0.639482557E+01 -0.229962758E+00  0.283941443E+00
   H -0.357918572E+02  0.322750390E+01 -0.147738310E+01
   H  0.349246917E+02  0.204992594E+01 -0.265115166E+01
     4
 # iter = 65000  time[fs]=65.00000
   C -0.737912123E+01 -0.319128171E+00  0.161327286E+00
   C  0.647254336E+01 -0.232511628E+00  0.287398319E+00
   H -0.361924736E+02  0.326382141E+01 -0.149406201E+01
   H  0.353182336E+02  0.207333094E+01 -0.268139662E+01
     4
 # iter = 65500  time[fs]=65.50000
   C -0.746729814E+01 -0.322744695E+00  0.163040935E+00
   C  0.655032187E+01 -0.235061114E+00  0.290856852E+00
   H -0.365932138E+02  0.330015155E+01 -0.151074677E+01
   H  0.357119183E+02  0.209674595E+01 -0.271165455E+01
     4
 # iter = 66000  time[fs]=66.00000
   C -0.755553589E+01 -0.326362462E+00  0.164754498E+00
   C  0.662815967E+01 -0.237611202E+00  0.294317007E+00
   H -0.369940752E+02  0.333649404E+01 -0.152743727E+01
   H  0.361057429E+02  0.212017075E+01 -0.274192517E+01
     4
 # iter = 66500  time[fs]=66.50000
   C -0.764383305E+01 -0.329981446E+00  0.166467976E+00
   C  0.670605536E+01 -0.240161880E+00  0.297778750E+00
   H -0.373950552E+02  0.337284863E+01 -0.154413337E+01
   H  0.364997043E+02  0.214360514E+01 -0.277220821E+01
     4
 # iter = 67000  time[fs]=67.00000
   C -0.773218825E+01 -0.333601619E+00  0.168181372E+00
   C  0.678400761E+01 -0.242713137E+00  0.301242046E+00
   H -0.377961512E+02  0.340921505E+01 -0.156083496E+01
   H  0.368937996E+02  0.216704891E+01 -0.280250341E+01
     4
 # iter = 67500  time[fs]=67.50000
   C -0.782060016E+01 -0.337222958E+00  0.169894686E+00
   C  0.686201510E+01 -0.245264960E+00  0.304706863E+00
   H -0.381973608E+02  0.344559307E+01 -0.157754194E+01
   H  0.372880259E+02  0.219050187E+01 -0.283281051E+01
     4
 # iter = 68000  time[fs]=68.00000
   C -0.790906748E+01 -0.340845437E+00  0.171607921E+00
   C  0.694007659E+01 -0.247817340E+00  0.308173171E+00
   H -0.385986817E+02  0.348198244E+01 -0.159425418E+01
   H  0.376823807E+02  0.221396383E+01 -0.286312929E+01
     4
 # iter = 68500  time[fs]=68.50000
   C -0.799758899E+01 -0.344469033E+00  0.173321079E+00
   C  0.701819087E+01 -0.250370264E+00  0.311640939E+00
   H -0.390001116E+02  0.351838294E+01 -0.161097158E+01
   H  0.380768611E+02  0.223743461E+01 -0.289345949E+01
     4
 # iter = 69000  time[fs]=69.00000
   C -0.808616347E+01 -0.348093723E+00  0.175034162E+00
   C  0.709635675E+01 -0.252923723E+00  0.315110136E+00
   H -0.394016482E+02  0.355479433E+01 -0.162769403E+01
   H  0.384714647E+02  0.226091403E+01 -0.292380089E+01
     4
 # iter = 69500  time[fs]=69.50000
   C -0.817478976E+01 -0.351719484E+00  0.176747170E+00
   C  0.717457311E+01 -0.255477706E+00  0.318580736E+00
   H -0.398032894E+02  0.359121641E+01 -0.164442145E+01
   H  0.388661889E+02  0.228440192E+01 -0.295415327E+01
     4
 # iter = 70000  time[fs]=70.00000
   C -0.826346673E+01 -0.355346295E+00  0.178460106E+00
   C  0.725283883E+01 -0.258032204E+00  0.322052709E+00
   H -0.402050331E+02  0.362764896E+01 -0.166115372E+01
   H  0.392610314E+02  0.230789810E+01 -0.298451641E+01
     4
 # iter = 70500  time[fs]=70.50000
   C -0.835219330E+01 -0.358974135E+00  0.180172972E+00
   C  0.733115287E+01 -0.260587206E+00  0.325526029E+00
   H -0.406068773E+02  0.366409178E+01 -0.167789075E+01
   H  0.396559897E+02  0.233140243E+01 -0.301489009E+01
     4
 # iter = 71000  time[fs]=71.00000
   C -0.844096840E+01 -0.362602984E+00  0.181885768E+00
   C  0.740951418E+01 -0.263142704E+00  0.329000670E+00
   H -0.410088201E+02  0.370054466E+01 -0.169463245E+01
   H  0.400510617E+02  0.235491473E+01 -0.304527412E+01
     4
 # iter = 71500  time[fs]=71.50000
   C -0.852979101E+01 -0.366232821E+00  0.183598496E+00
   C  0.748792178E+01 -0.265698688E+00  0.332476605E+00
   H -0.414108594E+02  0.373700742E+01 -0.171137874E+01
   H  0.404462450E+02  0.237843486E+01 -0.307566831E+01
     4
 # iter = 72000  time[fs]=72.00000
   C -0.861866014E+01 -0.369863629E+00  0.185311158E+00
   C  0.756637468E+01 -0.268255149E+00  0.335953812E+00
   H -0.418129934E+02  0.377347986E+01 -0.172812952E+01
   H  0.408415376E+02  0.240196267E+01 -0.310607244E+01
     4
 # iter = 72500  time[fs]=72.50000
   C -0.870757483E+01 -0.373495387E+00  0.187023755E+00
   C  0.764487194E+01 -0.270812079E+00  0.339432265E+00
   H -0.422152204E+02  0.380996181E+01 -0.174488471E+01
   H  0.412369374E+02  0.242549801E+01 -0.313648635E+01
     4
 # iter = 73000  time[fs]=73.00000
   C -0.879653414E+01 -0.377128078E+00  0.188736288E+00
   C  0.772341267E+01 -0.273369470E+00  0.342911940E+00
   H -0.426175386E+02  0.384645308E+01 -0.176164422E+01
   H  0.416324423E+02  0.244904075E+01 -0.316690984E+01
     4
 # iter = 73500  time[fs]=73.50000
   C -0.888553716E+01 -0.380761684E+00  0.190448759E+00
   C  0.780199598E+01 -0.275927312E+00  0.346392817E+00
   H -0.430199462E+02  0.388295351E+01 -0.177840799E+01
   H  0.420280504E+02  0.247259074E+01 -0.319734274E+01
     4
 # iter = 74000  time[fs]=74.00000
   C -0.897458302E+01 -0.384396188E+00  0.192161169E+00
   C  0.788062100E+01 -0.278485599E+00  0.349874871E+00
   H -0.434224417E+02  0.391946292E+01 -0.179517592E+01
   H  0.424237598E+02  0.249614785E+01 -0.322778488E+01
     4
 # iter = 74500  time[fs]=74.50000
   C -0.906367087E+01 -0.388031574E+00  0.193873519E+00
   C  0.795928691E+01 -0.281044322E+00  0.353358083E+00
   H -0.438250234E+02  0.395598115E+01 -0.181194795E+01
   H  0.428195685E+02  0.251971195E+01 -0.325823608E+01
     4
 # iter = 75000  time[fs]=75.00000
   C -0.915279987E+01 -0.391667825E+00  0.195585811E+00
   C  0.803799290E+01 -0.283603475E+00  0.356842430E+00
   H -0.442276897E+02  0.399250805E+01 -0.182872399E+01
   H  0.432154748E+02  0.254328293E+01 -0.328869620E+01
     4
 # iter = 75500  time[fs]=75.50000
   C -0.924196923E+01 -0.395304925E+00  0.197298045E+00
   C  0.811673818E+01 -0.286163049E+00  0.360327892E+00
   H -0.446304392E+02  0.402904346E+01 -0.184550399E+01
   H  0.436114769E+02  0.256686064E+01 -0.331916506E+01
     4
 # iter = 76000  time[fs]=76.00000
   C -0.933117815E+01 -0.398942860E+00  0.199010223E+00
   C  0.819552200E+01 -0.288723037E+00  0.363814451E+00
   H -0.450332703E+02  0.406558723E+01 -0.186228786E+01
   H  0.440075731E+02  0.259044498E+01 -0.334964252E+01
     4
 # iter = 76500  time[fs]=76.50000
   C -0.942042589E+01 -0.402581614E+00  0.200722346E+00
   C  0.827434360E+01 -0.291283433E+00  0.367302085E+00
   H -0.454361815E+02  0.410213921E+01 -0.187907554E+01
   H  0.444037618E+02  0.261403583E+01 -0.338012842E+01
     4
 # iter = 77000  time[fs]=77.00000
   C -0.950971170E+01 -0.406221173E+00  0.202434414E+00
   C  0.835320228E+01 -0.293844229E+00  0.370790778E+00
   H -0.458391716E+02  0.413869926E+01 -0.189586697E+01
   H  0.448000412E+02  0.263763308E+01 -0.341062262E+01
     4
 # iter = 77500  time[fs]=77.50000
   C -0.959903487E+01 -0.409861522E+00  0.204146430E+00
   C  0.843209733E+01 -0.296405420E+00  0.374280509E+00
   H -0.462422390E+02  0.417526723E+01 -0.191266208E+01
   H  0.451964099E+02  0.266123661E+01 -0.344112497E+01
     4
 # iter = 78000  time[fs]=78.00000
   C -0.968839469E+01 -0.413502648E+00  0.205858394E+00
   C  0.851102807E+01 -0.298966997E+00  0.377771262E+00
   H -0.466453825E+02  0.421184301E+01 -0.192946080E+01
   H  0.455928662E+02  0.268484632E+01 -0.347163534E+01
     4
 # iter = 78500  time[fs]=78.50000
   C -0.977779050E+01 -0.417144538E+00  0.207570306E+00
   C  0.858999384E+01 -0.301528957E+00  0.381263019E+00
   H -0.470486008E+02  0.424842644E+01 -0.194626308E+01
   H  0.459894086E+02  0.270846210E+01 -0.350215359E+01
     4
 # iter = 79000  time[fs]=79.00000
   C -0.986722162E+01 -0.420787178E+00  0.209282169E+00
   C  0.866899400E+01 -0.304091291E+00  0.384755762E+00
   H -0.474518925E+02  0.428501741E+01 -0.196306886E+01
   H  0.463860358E+02  0.273208385E+01 -0.353267959E+01
     4
 # iter = 79500  time[fs]=79.50000
   C -0.995668742E+01 -0.424430556E+00  0.210993982E+00
   C  0.874802792E+01 -0.306653994E+00  0.388249477E+00
   H -0.478552565E+02  0.432161579E+01 -0.197987807E+01
   H  0.467827462E+02  0.275571148E+01 -0.356321320E+01
     4
 # iter = 80000  time[fs]=80.00000
   C -0.100461873E+02 -0.428074658E+00  0.212705748E+00
   C  0.882709498E+01 -0.309217060E+00  0.391744145E+00
   H -0.482586916E+02  0.435822145E+01 -0.199669067E+01
   H  0.471795385E+02  0.277934487E+01 -0.359375431E+01
