     4
 # iter = 25000  time[fs]=25.00000
   C -0.100743123E+01 -0.186681726E-01  0.149062581E-01
   C  0.995998295E+00  0.252133054E-01 -0.795731510E-01
   H -0.528247310E+01 -0.427506879E+00  0.259132043E+00
   H  0.537156374E+01  0.251946865E+00  0.225350656E+00
     4
 # iter = 25500  time[fs]=25.50000
   C -0.105471259E+01 -0.174010778E-01  0.149428739E-01
   C  0.103936962E+01  0.255763273E-01 -0.832040820E-01
   H -0.561981035E+01 -0.453243671E+00  0.275154708E+00
   H  0.569222409E+01  0.268545183E+00  0.241961662E+00
     4
 # iter = 26000  time[fs]=26.00000
   C -0.110496127E+01 -0.161776932E-01  0.151059148E-01
   C  0.108568681E+01  0.259977725E-01 -0.870116043E-01
   H -0.596249175E+01 -0.479438000E+00  0.291461447E+00
   H  0.601848600E+01  0.285424479E+00  0.258890587E+00
     4
 # iter = 26500  time[fs]=26.50000
   C -0.115792809E+01 -0.149913575E-01  0.153842821E-01
   C  0.113470093E+01  0.264690335E-01 -0.909791249E-01
   H -0.630991262E+01 -0.506037191E+00  0.308019461E+00
   H  0.634974203E+01  0.302555436E+00  0.276104299E+00
     4
 # iter = 27000  time[fs]=27.00000
   C -0.121338131E+01 -0.138363087E-01  0.157677278E-01
   C  0.118618075E+01  0.269827459E-01 -0.950917274E-01
   H -0.666156021E+01 -0.532996819E+00  0.324801065E+00
   H  0.668547297E+01  0.319912855E+00  0.293574464E+00
     4
 # iter = 27500  time[fs]=27.50000
   C -0.127110752E+01 -0.127076117E-01  0.162468788E-01
   C  0.123991362E+01  0.275326430E-01 -0.993360431E-01
   H -0.701699673E+01 -0.560279130E+00  0.341782712E+00
   H  0.702523239E+01  0.337474963E+00  0.311276680E+00
     4
 # iter = 28000  time[fs]=28.00000
   C -0.133091169E+01 -0.116010685E-01  0.168132209E-01
   C  0.129570529E+01  0.281134099E-01 -0.103700115E+00
   H -0.737584606E+01 -0.587851807E+00  0.358944241E+00
   H  0.736863424E+01  0.355222844E+00  0.329189796E+00
     4
 # iter = 28500  time[fs]=28.50000
   C -0.139261647E+01 -0.105131247E-01  0.174590564E-01
   C  0.135337932E+01  0.287205481E-01 -0.108173260E+00
   H -0.773778307E+01 -0.615687003E+00  0.376268276E+00
   H  0.771534293E+01  0.373139983E+00  0.347295365E+00
     4
 # iter = 29000  time[fs]=29.00000
   C -0.145606124E+01 -0.944077959E-02  0.181774484E-01
   C  0.141277597E+01  0.293502524E-01 -0.112745939E+00
   H -0.810252513E+01 -0.643760577E+00  0.393739754E+00
   H  0.806506519E+01  0.391211890E+00  0.365577211E+00
     4
 # iter = 29500  time[fs]=29.50000
   C -0.152110085E+01 -0.838150443E-02  0.189621581E-01
   C  0.147375095E+01  0.299993039E-01 -0.117409629E+00
   H -0.846982528E+01 -0.672051476E+00  0.411345541E+00
   H  0.841754352E+01  0.409425795E+00  0.384021078E+00
     4
 # iter = 30000  time[fs]=30.00000
   C -0.158760429E+01 -0.733316960E-02  0.198075797E-01
   C  0.153617412E+01  0.306649770E-01 -0.122156714E+00
   H -0.883946661E+01 -0.700541246E+00  0.429074127E+00
   H  0.877255082E+01  0.427770394E+00  0.402614338E+00
     4
 # iter = 30500  time[fs]=30.50000
   C -0.165545345E+01 -0.629398175E-02  0.207086781E-01
   C  0.159992817E+01  0.313449609E-01 -0.126980377E+00
   H -0.921125777E+01 -0.729213626E+00  0.446915376E+00
   H  0.912988590E+01  0.446235639E+00  0.421345757E+00
     4
 # iter = 31000  time[fs]=31.00000
   C -0.172454180E+01 -0.526242996E-02  0.216609293E-01
   C  0.166490737E+01  0.320372925E-01 -0.131874512E+00
   H -0.958502915E+01 -0.758054225E+00  0.464860320E+00
   H  0.948936981E+01  0.464812563E+00  0.440205302E+00
     4
 # iter = 31500  time[fs]=31.50000
   C -0.179477323E+01 -0.423724018E-02  0.226602657E-01
   C  0.173101633E+01  0.327403008E-01 -0.136833636E+00
   H -0.996062986E+01 -0.787050251E+00  0.482900990E+00
   H  0.985084279E+01  0.483493138E+00  0.459183975E+00
     4
 # iter = 32000  time[fs]=32.00000
   C -0.186606097E+01 -0.321733691E-02  0.237030263E-01
   C  0.179816898E+01  0.334525601E-01 -0.141852822E+00
   H -0.103379251E+02 -0.816190282E+00  0.501030278E+00
   H  0.102141617E+02  0.502270145E+00  0.478273678E+00
     4
 # iter = 32500  time[fs]=32.50000
   C -0.193832658E+01 -0.220181111E-02  0.247859115E-01
   C  0.186628755E+01  0.341728510E-01 -0.146927630E+00
   H -0.107167940E+02 -0.845464089E+00  0.519241817E+00
   H  0.105791978E+02  0.521137077E+00  0.497467098E+00
     4
 # iter = 33000  time[fs]=33.00000
   C -0.201149908E+01 -0.118989340E-02  0.259059433E-01
   C  0.193530166E+01  0.349001278E-01 -0.152054053E+00
   H -0.110971278E+02 -0.874862469E+00  0.537529888E+00
   H  0.109458349E+02  0.540088048E+00  0.516757611E+00
     4
 # iter = 33500  time[fs]=33.50000
   C -0.208551413E+01 -0.180931701E-03  0.270604295E-01
   C  0.200514756E+01  0.356334918E-01 -0.157228468E+00
   H -0.114788285E+02 -0.904377121E+00  0.555889332E+00
   H  0.113139681E+02  0.559117718E+00  0.536139197E+00
     4
 # iter = 34000  time[fs]=34.00000
   C -0.216031335E+01  0.825627363E-03  0.282469320E-01
   C  0.207576739E+01  0.363721682E-01 -0.162447590E+00
   H -0.118618071E+02 -0.934000533E+00  0.574315483E+00
   H  0.116835020E+02  0.578221230E+00  0.555606372E+00
     4
 # iter = 34500  time[fs]=34.50000
   C -0.223584362E+01  0.183025403E-02  0.294632390E-01
   C  0.214710856E+01  0.371154876E-01 -0.167708438E+00
   H -0.122459830E+02 -0.963725881E+00  0.592804108E+00
   H  0.120543499E+02  0.597394151E+00  0.575154125E+00
     4
 # iter = 35000  time[fs]=35.00000
   C -0.231205660E+01  0.283334835E-02  0.307073403E-01
   C  0.221912319E+01  0.378628702E-01 -0.173008298E+00
   H -0.126312828E+02 -0.993546957E+00  0.611351357E+00
   H  0.124264325E+02  0.616632430E+00  0.594777865E+00
     4
 # iter = 35500  time[fs]=35.50000
   C -0.238890817E+01  0.383525100E-02  0.319774057E-01
   C  0.229176761E+01  0.386138124E-01 -0.178344695E+00
   H -0.130176394E+02 -0.102345809E+01  0.629953716E+00
   H  0.127996776E+02  0.635932352E+00  0.614473379E+00
     4
 # iter = 36000  time[fs]=36.00000
   C -0.246635801E+01  0.483625238E-02  0.332717656E-01
   C  0.236500191E+01  0.393678758E-01 -0.183715370E+00
   H -0.134049915E+02 -0.105345410E+01  0.648607972E+00
   H  0.131740188E+02  0.655290505E+00  0.634236790E+00
     4
 # iter = 36500  time[fs]=36.50000
   C -0.254436922E+01  0.583660016E-02  0.345888944E-01
   C  0.243878959E+01  0.401246780E-01 -0.189118253E+00
   H -0.137932828E+02 -0.108353021E+01  0.667311181E+00
   H  0.135493951E+02  0.674703747E+00  0.654064520E+00
     4
 # iter = 37000  time[fs]=37.00000
   C -0.262290795E+01  0.683650568E-02  0.359273952E-01
   C  0.251309716E+01  0.408838847E-01 -0.194551447E+00
   H -0.141824615E+02 -0.111368206E+01  0.686060635E+00
   H  0.139257505E+02  0.694169177E+00  0.673953266E+00
     4
 # iter = 37500  time[fs]=37.50000
   C -0.270194312E+01  0.783614934E-02  0.372859871E-01
   C  0.258789389E+01  0.416452027E-01 -0.200013207E+00
   H -0.145724801E+02 -0.114390562E+01  0.704853843E+00
   H  0.143030330E+02  0.713684117E+00  0.693899967E+00
     4
 # iter = 38000  time[fs]=38.00000
   C -0.278144613E+01  0.883568507E-02  0.386634934E-01
   C  0.266315150E+01  0.424083748E-01 -0.205501930E+00
   H -0.149632945E+02 -0.117419715E+01  0.723688505E+00
   H  0.146811949E+02  0.733246083E+00  0.713901787E+00
     4
 # iter = 38500  time[fs]=38.50000
   C -0.286139062E+01  0.983524421E-02  0.400588308E-01
   C  0.273884393E+01  0.431731744E-01 -0.211016134E+00
   H -0.153548640E+02 -0.120455322E+01  0.742562494E+00
   H  0.150601918E+02  0.752852773E+00  0.733956088E+00
     4
 # iter = 39000  time[fs]=39.00000
   C -0.294175226E+01  0.108349387E-01  0.414710011E-01
   C  0.281494713E+01  0.439394021E-01 -0.216554453E+00
   H -0.157471509E+02 -0.123497063E+01  0.761473843E+00
   H  0.154399825E+02  0.772502045E+00  0.754060416E+00
     4
 # iter = 39500  time[fs]=39.50000
   C -0.302250855E+01  0.118348638E-01  0.428990824E-01
   C  0.289143889E+01  0.447068814E-01 -0.222115623E+00
   H -0.161401202E+02 -0.126544642E+01  0.780420722E+00
   H  0.158205289E+02  0.792191906E+00  0.774212481E+00
     4
 # iter = 40000  time[fs]=40.00000
   C -0.310363867E+01  0.128351006E-01  0.443422222E-01
   C  0.296829863E+01  0.454754566E-01 -0.227698470E+00
   H -0.165337394E+02 -0.129597783E+01  0.799401433E+00
   H  0.162017954E+02  0.811920498E+00  0.794410148E+00
     4
 # iter = 40500  time[fs]=40.50000
   C -0.318512331E+01  0.138357177E-01  0.457996310E-01
   C  0.304550727E+01  0.462449895E-01 -0.233301908E+00
   H -0.169279781E+02 -0.132656229E+01  0.818414395E+00
   H  0.165837487E+02  0.831686085E+00  0.814651419E+00
     4
 # iter = 41000  time[fs]=41.00000
   C -0.326694453E+01  0.148367733E-01  0.472705763E-01
   C  0.312304711E+01  0.470153574E-01 -0.238924924E+00
   H -0.173228081E+02 -0.135719741E+01  0.837458132E+00
   H  0.169663580E+02  0.851487044E+00  0.834934422E+00
     4
 # iter = 41500  time[fs]=41.50000
   C -0.334908565E+01  0.158383162E-01  0.487543776E-01
   C  0.320090168E+01  0.477864515E-01 -0.244566578E+00
   H -0.177182029E+02 -0.138788093E+01  0.856531267E+00
   H  0.173495941E+02  0.871321853E+00  0.855257402E+00
     4
 # iter = 42000  time[fs]=42.00000
   C -0.343153115E+01  0.168403874E-01  0.502504020E-01
   C  0.327905564E+01  0.485581748E-01 -0.250225991E+00
   H -0.181141379E+02 -0.141861078E+01  0.875632511E+00
   H  0.177334301E+02  0.891189089E+00  0.875618713E+00
     4
 # iter = 42500  time[fs]=42.50000
   C -0.351426653E+01  0.178430212E-01  0.517580598E-01
   C  0.335749472E+01  0.493304409E-01 -0.255902345E+00
   H -0.185105899E+02 -0.144938497E+01  0.894760657E+00
   H  0.181178404E+02  0.911087411E+00  0.896016806E+00
     4
 # iter = 43000  time[fs]=43.00000
   C -0.359727827E+01  0.188462458E-01  0.532768009E-01
   C  0.343620555E+01  0.501031729E-01 -0.261594873E+00
   H -0.189075371E+02 -0.148020168E+01  0.913914574E+00
   H  0.185028013E+02  0.931015562E+00  0.916450222E+00
     4
 # iter = 43500  time[fs]=43.50000
   C -0.368055374E+01  0.198500843E-01  0.548061116E-01
   C  0.351517568E+01  0.508763019E-01 -0.267302859E+00
   H -0.193049592E+02 -0.151105916E+01  0.933093198E+00
   H  0.188882902E+02  0.950972356E+00  0.936917589E+00
     4
 # iter = 44000  time[fs]=44.00000
   C -0.376408111E+01  0.208545553E-01  0.563455114E-01
   C  0.359439343E+01  0.516497666E-01 -0.273025631E+00
   H -0.197028370E+02 -0.154195578E+01  0.952295530E+00
   H  0.192742860E+02  0.970956677E+00  0.957417611E+00
     4
 # iter = 44500  time[fs]=44.50000
   C -0.384784927E+01  0.218596737E-01  0.578945504E-01
   C  0.367384786E+01  0.524235118E-01 -0.278762559E+00
   H -0.201011524E+02 -0.157289001E+01  0.971520629E+00
   H  0.196607688E+02  0.990967473E+00  0.977949063E+00
     4
 # iter = 45000  time[fs]=45.00000
   C -0.393184783E+01  0.228654510E-01  0.594528068E-01
   C  0.375352872E+01  0.531974885E-01 -0.284513050E+00
   H -0.204998885E+02 -0.160386041E+01  0.990767609E+00
   H  0.200477199E+02  0.101100375E+01  0.998510789E+00
     4
 # iter = 45500  time[fs]=45.50000
   C -0.401606701E+01  0.238718957E-01  0.610198847E-01
   C  0.383342638E+01  0.539716525E-01 -0.290276548E+00
   H -0.208990290E+02 -0.163486560E+01  0.101003563E+01
   H  0.204351215E+02  0.103106456E+01  0.101910169E+01
     4
 # iter = 46000  time[fs]=46.00000
   C -0.410049763E+01  0.248790140E-01  0.625954123E-01
   C  0.391353177E+01  0.547459643E-01 -0.296052529E+00
   H -0.212985590E+02 -0.166590430E+01  0.102932391E+01
   H  0.208229570E+02  0.105114902E+01  0.103972074E+01
     4
 # iter = 46500  time[fs]=46.50000
   C -0.418513104E+01  0.258868097E-01  0.641790398E-01
   C  0.399383636E+01  0.555203885E-01 -0.301840498E+00
   H -0.216984640E+02 -0.169697528E+01  0.104863170E+01
   H  0.212112104E+02  0.107125629E+01  0.106036695E+01
     4
 # iter = 47000  time[fs]=47.00000
   C -0.426995909E+01  0.268952848E-01  0.657704376E-01
   C  0.407433215E+01  0.562948933E-01 -0.307639990E+00
   H -0.220987304E+02 -0.172807739E+01  0.106795829E+01
   H  0.215998667E+02  0.109138557E+01  0.108103938E+01
     4
 # iter = 47500  time[fs]=47.50000
   C -0.435497409E+01  0.279044397E-01  0.673692954E-01
   C  0.415501154E+01  0.570694501E-01 -0.313450565E+00
   H -0.224993455E+02 -0.175920953E+01  0.108730300E+01
   H  0.219889117E+02  0.111153609E+01  0.110173715E+01
     4
 # iter = 48000  time[fs]=48.00000
   C -0.444016879E+01  0.289142735E-01  0.689753203E-01
   C  0.423586738E+01  0.578440334E-01 -0.319271806E+00
   H -0.229002969E+02 -0.179037067E+01  0.110666522E+01
   H  0.223783319E+02  0.113170715E+01  0.112245941E+01
     4
 # iter = 48500  time[fs]=48.50000
   C -0.452553632E+01  0.299247839E-01  0.705882355E-01
   C  0.431689294E+01  0.586186202E-01 -0.325103319E+00
   H -0.233015732E+02 -0.182155980E+01  0.112604433E+01
   H  0.227681146E+02  0.115189805E+01  0.114320537E+01
     4
 # iter = 49000  time[fs]=49.00000
   C -0.461107020E+01  0.309359677E-01  0.722077796E-01
   C  0.439808181E+01  0.593931898E-01 -0.330944733E+00
   H -0.237031632E+02 -0.185277601E+01  0.114543976E+01
   H  0.231582475E+02  0.117210814E+01  0.116397426E+01
     4
 # iter = 49500  time[fs]=49.50000
   C -0.469676430E+01  0.319478206E-01  0.738337052E-01
   C  0.447942796E+01  0.601677238E-01 -0.336795693E+00
   H -0.241050567E+02 -0.188401839E+01  0.116485097E+01
   H  0.235487190E+02  0.119233680E+01  0.118476536E+01
     4
 # iter = 50000  time[fs]=50.00000
   C -0.478261278E+01  0.329603378E-01  0.754657779E-01
   C  0.456092564E+01  0.609422055E-01 -0.342655865E+00
   H -0.245072436E+02 -0.191528610E+01  0.118427744E+01
   H  0.239395182E+02  0.121258345E+01  0.120557797E+01
     4
 # iter = 50500  time[fs]=50.50000
   C -0.486861015E+01  0.339735137E-01  0.771037758E-01
   C  0.464256944E+01  0.617166202E-01 -0.348524930E+00
   H -0.249097144E+02 -0.194657832E+01  0.120371867E+01
   H  0.243306345E+02  0.123284751E+01  0.122641142E+01
     4
 # iter = 51000  time[fs]=51.00000
   C -0.495475115E+01  0.349873422E-01  0.787474882E-01
   C  0.472435420E+01  0.624909544E-01 -0.354402586E+00
   H -0.253124602E+02 -0.197789429E+01  0.122317421E+01
   H  0.247220578E+02  0.125312845E+01  0.124726509E+01
     4
 # iter = 51500  time[fs]=51.50000
   C -0.504103082E+01  0.360018167E-01  0.803967151E-01
   C  0.480627501E+01  0.632651962E-01 -0.360288545E+00
   H -0.257154722E+02 -0.200923327E+01  0.124264359E+01
   H  0.251137788E+02  0.127342577E+01  0.126813838E+01
     4
 # iter = 52000  time[fs]=52.00000
   C -0.512744442E+01  0.370169302E-01  0.820512665E-01
   C  0.488832724E+01  0.640393350E-01 -0.366182533E+00
   H -0.261187425E+02 -0.204059457E+01  0.126212640E+01
   H  0.255057882E+02  0.129373896E+01  0.128903070E+01
     4
 # iter = 52500  time[fs]=52.50000
   C -0.521398746E+01  0.380326755E-01  0.837109619E-01
   C  0.497050646E+01  0.648133613E-01 -0.372084290E+00
   H -0.265222629E+02 -0.207197750E+01  0.128162222E+01
   H  0.258980773E+02  0.131406755E+01  0.130994151E+01
     4
 # iter = 53000  time[fs]=53.00000
   C -0.530065567E+01  0.390490449E-01  0.853756292E-01
   C  0.505280844E+01  0.655872665E-01 -0.377993568E+00
   H -0.269260262E+02 -0.210338143E+01  0.130113067E+01
   H  0.262906378E+02  0.133441111E+01  0.133087027E+01
     4
 # iter = 53500  time[fs]=53.50000
   C -0.538744495E+01  0.400660309E-01  0.870451050E-01
   C  0.513522919E+01  0.663610432E-01 -0.383910128E+00
   H -0.273300251E+02 -0.213480574E+01  0.132065138E+01
   H  0.266834618E+02  0.135476920E+01  0.135181647E+01
     4
 # iter = 54000  time[fs]=54.00000
   C -0.547435142E+01  0.410836253E-01  0.887192332E-01
   C  0.521776487E+01  0.671346846E-01 -0.389833747E+00
   H -0.277342527E+02 -0.216624985E+01  0.134018398E+01
   H  0.270765416E+02  0.137514141E+01  0.137277964E+01
     4
 # iter = 54500  time[fs]=54.50000
   C -0.556137137E+01  0.421018202E-01  0.903978651E-01
   C  0.530041184E+01  0.679081848E-01 -0.395764206E+00
   H -0.281387025E+02 -0.219771319E+01  0.135972813E+01
   H  0.274698699E+02  0.139552734E+01  0.139375930E+01
     4
 # iter = 55000  time[fs]=55.00000
   C -0.564850127E+01  0.431206074E-01  0.920808588E-01
   C  0.538316661E+01  0.686815385E-01 -0.401701300E+00
   H -0.285433682E+02 -0.222919523E+01  0.137928351E+01
   H  0.278634397E+02  0.141592661E+01  0.141475501E+01
     4
 # iter = 55500  time[fs]=55.50000
   C -0.573573772E+01  0.441399788E-01  0.937680788E-01
   C  0.546602587E+01  0.694547412E-01 -0.407644832E+00
   H -0.289482438E+02 -0.226069546E+01  0.139884981E+01
   H  0.282572444E+02  0.143633887E+01  0.143576634E+01
     4
 # iter = 56000  time[fs]=56.00000
   C -0.582307750E+01  0.451599261E-01  0.954593958E-01
   C  0.554898642E+01  0.702277888E-01 -0.413594612E+00
   H -0.293533235E+02 -0.229221336E+01  0.141842672E+01
   H  0.286512774E+02  0.145676376E+01  0.145679288E+01
     4
 # iter = 56500  time[fs]=56.50000
   C -0.591051751E+01  0.461804410E-01  0.971546859E-01
   C  0.563204524E+01  0.710006778E-01 -0.419550460E+00
   H -0.297586017E+02 -0.232374848E+01  0.143801395E+01
   H  0.290455326E+02  0.147720095E+01  0.147783422E+01
     4
 # iter = 57000  time[fs]=57.00000
   C -0.599805480E+01  0.472015154E-01  0.988538309E-01
   C  0.571519942E+01  0.717734051E-01 -0.425512202E+00
   H -0.301640732E+02 -0.235530034E+01  0.145761124E+01
   H  0.294400041E+02  0.149765012E+01  0.149889000E+01
     4
 # iter = 57500  time[fs]=57.50000
   C -0.608568653E+01  0.482231410E-01  0.100556717E+00
   C  0.579844616E+01  0.725459683E-01 -0.431479673E+00
   H -0.305697327E+02 -0.238686852E+01  0.147721830E+01
   H  0.298346861E+02  0.151811096E+01  0.151995984E+01
     4
 # iter = 58000  time[fs]=58.00000
   C -0.617340998E+01  0.492453097E-01  0.102263237E+00
   C  0.588178280E+01  0.733183650E-01 -0.437452714E+00
   H -0.309755755E+02 -0.241845259E+01  0.149683489E+01
   H  0.302295733E+02  0.153858317E+01  0.154104338E+01
     4
 # iter = 58500  time[fs]=58.50000
   C -0.626122256E+01  0.502680133E-01  0.103973285E+00
   C  0.596520679E+01  0.740905934E-01 -0.443431170E+00
   H -0.313815966E+02 -0.245005214E+01  0.151646076E+01
   H  0.306246602E+02  0.155906647E+01  0.156214029E+01
     4
 # iter = 59000  time[fs]=59.00000
   C -0.634912178E+01  0.512912439E-01  0.105686763E+00
   C  0.604871567E+01  0.748626520E-01 -0.449414897E+00
   H -0.317877917E+02 -0.248166678E+01  0.153609568E+01
   H  0.310199419E+02  0.157956057E+01  0.158325025E+01
     4
 # iter = 59500  time[fs]=59.50000
   C -0.643710522E+01  0.523149933E-01  0.107403575E+00
   C  0.613230710E+01  0.756345394E-01 -0.455403752E+00
   H -0.321941563E+02 -0.251329614E+01  0.155573941E+01
   H  0.314154135E+02  0.160006521E+01  0.160437293E+01
     4
 # iter = 60000  time[fs]=60.00000
   C -0.652517061E+01  0.533392539E-01  0.109123628E+00
   C  0.621597881E+01  0.764062548E-01 -0.461397600E+00
   H -0.326006862E+02 -0.254493986E+01  0.157539174E+01
   H  0.318110702E+02  0.162058014E+01  0.162550803E+01
     4
 # iter = 60500  time[fs]=60.50000
   C -0.661331572E+01  0.543640177E-01  0.110846836E+00
   C  0.629972863E+01  0.771777975E-01 -0.467396312E+00
   H -0.330073773E+02 -0.257659758E+01  0.159505245E+01
   H  0.322069075E+02  0.164110511E+01  0.164665525E+01
     4
 # iter = 61000  time[fs]=61.00000
   C -0.670153845E+01  0.553892770E-01  0.112573112E+00
   C  0.638355448E+01  0.779491668E-01 -0.473399762E+00
   H -0.334142258E+02 -0.260826897E+01  0.161472135E+01
   H  0.326029211E+02  0.166163988E+01  0.166781432E+01
     4
 # iter = 61500  time[fs]=61.50000
   C -0.678983673E+01  0.564150243E-01  0.114302377E+00
   C  0.646745435E+01  0.787203625E-01 -0.479407829E+00
   H -0.338212277E+02 -0.263995370E+01  0.163439823E+01
   H  0.329991067E+02  0.168218422E+01  0.168898496E+01
     4
 # iter = 62000  time[fs]=62.00000
   C -0.687820862E+01  0.574412521E-01  0.116034550E+00
   C  0.655142632E+01  0.794913844E-01 -0.485420397E+00
   H -0.342283796E+02 -0.267165146E+01  0.165408291E+01
   H  0.333954602E+02  0.170273791E+01  0.171016690E+01
     4
 # iter = 62500  time[fs]=62.50000
   C -0.696665223E+01  0.584679530E-01  0.117769559E+00
   C  0.663546854E+01  0.802622326E-01 -0.491437354E+00
   H -0.346356778E+02 -0.270336195E+01  0.167377519E+01
   H  0.337919778E+02  0.172330074E+01  0.173135989E+01
     4
 # iter = 63000  time[fs]=63.00000
   C -0.705516573E+01  0.594951197E-01  0.119507328E+00
   C  0.671957921E+01  0.810329072E-01 -0.497458593E+00
   H -0.350431191E+02 -0.273508487E+01  0.169347492E+01
   H  0.341886557E+02  0.174387249E+01  0.175256369E+01
     4
 # iter = 63500  time[fs]=63.50000
   C -0.714374737E+01  0.605227451E-01  0.121247790E+00
   C  0.680375662E+01  0.818034087E-01 -0.503484010E+00
   H -0.354507000E+02 -0.276681994E+01  0.171318191E+01
   H  0.345854901E+02  0.176445296E+01  0.177377804E+01
     4
 # iter = 64000  time[fs]=64.00000
   C -0.723239547E+01  0.615508220E-01  0.122990877E+00
   C  0.688799910E+01  0.825737373E-01 -0.509513504E+00
   H -0.358584175E+02 -0.279856690E+01  0.173289600E+01
   H  0.349824775E+02  0.178504197E+01  0.179500273E+01
     4
 # iter = 64500  time[fs]=64.50000
   C -0.732110840E+01  0.625793437E-01  0.124736523E+00
   C  0.697230507E+01  0.833438937E-01 -0.515546979E+00
   H -0.362662684E+02 -0.283032546E+01  0.175261704E+01
   H  0.353796146E+02  0.180563933E+01  0.181623752E+01
     4
 # iter = 65000  time[fs]=65.00000
   C -0.740988458E+01  0.636083032E-01  0.126484668E+00
   C  0.705667298E+01  0.841138785E-01 -0.521584342E+00
   H -0.366742498E+02 -0.286209539E+01  0.177234486E+01
   H  0.357768980E+02  0.182624485E+01  0.183748221E+01
     4
 # iter = 65500  time[fs]=65.50000
   C -0.749872250E+01  0.646376939E-01  0.128235249E+00
   C  0.714110134E+01  0.848836924E-01 -0.527625501E+00
   H -0.370823589E+02 -0.289387643E+01  0.179207932E+01
   H  0.361743245E+02  0.184685836E+01  0.185873658E+01
     4
 # iter = 66000  time[fs]=66.00000
   C -0.758762071E+01  0.656675092E-01  0.129988209E+00
   C  0.722558871E+01  0.856533363E-01 -0.533670371E+00
   H -0.374905928E+02 -0.292566834E+01  0.181182027E+01
   H  0.365718910E+02  0.186747969E+01  0.188000042E+01
     4
 # iter = 66500  time[fs]=66.50000
   C -0.767657778E+01  0.666977425E-01  0.131743492E+00
   C  0.731013372E+01  0.864228111E-01 -0.539718866E+00
   H -0.378989489E+02 -0.295747090E+01  0.183156758E+01
   H  0.369695946E+02  0.188810867E+01  0.190127355E+01
     4
 # iter = 67000  time[fs]=67.00000
   C -0.776559236E+01  0.677283877E-01  0.133501044E+00
   C  0.739473503E+01  0.871921176E-01 -0.545770906E+00
   H -0.383074246E+02 -0.298928387E+01  0.185132111E+01
   H  0.373674322E+02  0.190874515E+01  0.192255577E+01
     4
 # iter = 67500  time[fs]=67.50000
   C -0.785466312E+01  0.687594384E-01  0.135260812E+00
   C  0.747939134E+01  0.879612570E-01 -0.551826412E+00
   H -0.387160173E+02 -0.302110704E+01  0.187108072E+01
   H  0.377654011E+02  0.192938897E+01  0.194384689E+01
     4
 # iter = 68000  time[fs]=68.00000
   C -0.794378880E+01  0.697908884E-01  0.137022746E+00
   C  0.756410140E+01  0.887302303E-01 -0.557885308E+00
   H -0.391247247E+02 -0.305294020E+01  0.189084630E+01
   H  0.381634986E+02  0.195003998E+01  0.196514674E+01
     4
 # iter = 68500  time[fs]=68.50000
   C -0.803296816E+01  0.708227319E-01  0.138786796E+00
   C  0.764886400E+01  0.894990387E-01 -0.563947519E+00
   H -0.395335443E+02 -0.308478315E+01  0.191061772E+01
   H  0.385617220E+02  0.197069803E+01  0.198645514E+01
     4
 # iter = 69000  time[fs]=69.00000
   C -0.812220001E+01  0.718549628E-01  0.140552916E+00
   C  0.773367797E+01  0.902676831E-01 -0.570012975E+00
   H -0.399424739E+02 -0.311663569E+01  0.193039486E+01
   H  0.389600687E+02  0.199136299E+01  0.200777193E+01
     4
 # iter = 69500  time[fs]=69.50000
   C -0.821148319E+01  0.728875755E-01  0.142321060E+00
   C  0.781854219E+01  0.910361650E-01 -0.576081607E+00
   H -0.403515112E+02 -0.314849762E+01  0.195017760E+01
   H  0.393585363E+02  0.201203471E+01  0.202909693E+01
     4
 # iter = 70000  time[fs]=70.00000
   C -0.830081660E+01  0.739205641E-01  0.144091182E+00
   C  0.790345556E+01  0.918044855E-01 -0.582153347E+00
   H -0.407606541E+02 -0.318036876E+01  0.196996584E+01
   H  0.397571223E+02  0.203271307E+01  0.205042999E+01
     4
 # iter = 70500  time[fs]=70.50000
   C -0.839019915E+01  0.749539232E-01  0.145863241E+00
   C  0.798841702E+01  0.925726457E-01 -0.588228131E+00
   H -0.411699006E+02 -0.321224893E+01  0.198975946E+01
   H  0.401558245E+02  0.205339793E+01  0.207177096E+01
     4
 # iter = 71000  time[fs]=71.00000
   C -0.847962978E+01  0.759876472E-01  0.147637195E+00
   C  0.807342553E+01  0.933406472E-01 -0.594305896E+00
   H -0.415792484E+02 -0.324413795E+01  0.200955835E+01
   H  0.405546405E+02  0.207408917E+01  0.209311968E+01
     4
 # iter = 71500  time[fs]=71.50000
   C -0.856910750E+01  0.770217308E-01  0.149413004E+00
   C  0.815848012E+01  0.941084910E-01 -0.600386581E+00
   H -0.419886958E+02 -0.327603566E+01  0.202936242E+01
   H  0.409535681E+02  0.209478667E+01  0.211447601E+01
     4
 # iter = 72000  time[fs]=72.00000
   C -0.865863131E+01  0.780561688E-01  0.151190628E+00
   C  0.824357980E+01  0.948761786E-01 -0.606470126E+00
   H -0.423982407E+02 -0.330794188E+01  0.204917157E+01
   H  0.413526051E+02  0.211549031E+01  0.213583981E+01
     4
 # iter = 72500  time[fs]=72.50000
   C -0.874820026E+01  0.790909559E-01  0.152970030E+00
   C  0.832872366E+01  0.956437112E-01 -0.612556475E+00
   H -0.428078813E+02 -0.333985645E+01  0.206898569E+01
   H  0.417517496E+02  0.213619998E+01  0.215721093E+01
     4
 # iter = 73000  time[fs]=73.00000
   C -0.883781343E+01  0.801260870E-01  0.154751173E+00
   C  0.841391077E+01  0.964110902E-01 -0.618645571E+00
   H -0.432176158E+02 -0.337177923E+01  0.208880470E+01
   H  0.421509995E+02  0.215691556E+01  0.217858925E+01
     4
 # iter = 73500  time[fs]=73.50000
   C -0.892746992E+01  0.811615573E-01  0.156534022E+00
   C  0.849914026E+01  0.971783170E-01 -0.624737361E+00
   H -0.436274424E+02 -0.340371005E+01  0.210862850E+01
   H  0.425503527E+02  0.217763694E+01  0.219997463E+01
     4
 # iter = 74000  time[fs]=74.00000
   C -0.901716886E+01  0.821973618E-01  0.158318541E+00
   C  0.858441129E+01  0.979453929E-01 -0.630831792E+00
   H -0.440373595E+02 -0.343564876E+01  0.212845701E+01
   H  0.429498074E+02  0.219836402E+01  0.222136695E+01
     4
 # iter = 74500  time[fs]=74.50000
   C -0.910690940E+01  0.832334957E-01  0.160104698E+00
   C  0.866972301E+01  0.987123193E-01 -0.636928812E+00
   H -0.444473653E+02 -0.346759524E+01  0.214829013E+01
   H  0.433493617E+02  0.221909669E+01  0.224276608E+01
     4
 # iter = 75000  time[fs]=75.00000
   C -0.919669073E+01  0.842699544E-01  0.161892461E+00
   C  0.875507463E+01  0.994790976E-01 -0.643028374E+00
   H -0.448574582E+02 -0.349954932E+01  0.216812779E+01
   H  0.437490139E+02  0.223983486E+01  0.226417190E+01
     4
 # iter = 75500  time[fs]=75.50000
   C -0.928651204E+01  0.853067332E-01  0.163681796E+00
   C  0.884046536E+01  0.100245729E+00 -0.649130427E+00
   H -0.452676367E+02 -0.353151089E+01  0.218796989E+01
   H  0.441487620E+02  0.226057842E+01  0.228558429E+01
     4
 # iter = 76000  time[fs]=76.00000
   C -0.937637257E+01  0.863438276E-01  0.165472675E+00
   C  0.892589445E+01  0.101012215E+00 -0.655234926E+00
   H -0.456778993E+02 -0.356347980E+01  0.220781637E+01
   H  0.445486045E+02  0.228132729E+01  0.230700314E+01
     4
 # iter = 76500  time[fs]=76.50000
   C -0.946627156E+01  0.873812332E-01  0.167265067E+00
   C  0.901136116E+01  0.101778557E+00 -0.661341825E+00
   H -0.460882444E+02 -0.359545592E+01  0.222766714E+01
   H  0.449485397E+02  0.230208137E+01  0.232842834E+01
     4
 # iter = 77000  time[fs]=77.00000
   C -0.955620828E+01  0.884189456E-01  0.169058942E+00
   C  0.909686477E+01  0.102544756E+00 -0.667451079E+00
   H -0.464986705E+02 -0.362743913E+01  0.224752214E+01
   H  0.453485658E+02  0.232284057E+01  0.234985978E+01
     4
 # iter = 77500  time[fs]=77.50000
   C -0.964618203E+01  0.894569606E-01  0.170854274E+00
   C  0.918240459E+01  0.103310815E+00 -0.673562646E+00
   H -0.469091764E+02 -0.365942931E+01  0.226738127E+01
   H  0.457486814E+02  0.234360480E+01  0.237129735E+01
     4
 # iter = 78000  time[fs]=78.00000
   C -0.973619210E+01  0.904952740E-01  0.172651035E+00
   C  0.926797993E+01  0.104076733E+00 -0.679676484E+00
   H -0.473197605E+02 -0.369142634E+01  0.228724448E+01
   H  0.461488849E+02  0.236437398E+01  0.239274096E+01
     4
 # iter = 78500  time[fs]=78.50000
   C -0.982623783E+01  0.915338816E-01  0.174449197E+00
   C  0.935359015E+01  0.104842512E+00 -0.685792552E+00
   H -0.477304216E+02 -0.372343010E+01  0.230711169E+01
   H  0.465491748E+02  0.238514802E+01  0.241419049E+01
     4
 # iter = 79000  time[fs]=79.00000
   C -0.991631856E+01  0.925727795E-01  0.176248736E+00
   C  0.943923460E+01  0.105608154E+00 -0.691910809E+00
   H -0.481411583E+02 -0.375544048E+01  0.232698284E+01
   H  0.469495496E+02  0.240592684E+01  0.243564586E+01
     4
 # iter = 79500  time[fs]=79.50000
   C -0.100064337E+02  0.936119636E-01  0.178049626E+00
   C  0.952491265E+01  0.106373661E+00 -0.698031218E+00
   H -0.485519694E+02 -0.378745736E+01  0.234685786E+01
   H  0.473500079E+02  0.242671036E+01  0.245710696E+01
     4
 # iter = 80000  time[fs]=80.00000
   C -0.100965825E+02  0.946514301E-01  0.179851842E+00
   C  0.961062371E+01  0.107139033E+00 -0.704153741E+00
   H -0.489628535E+02 -0.381948064E+01  0.236673668E+01
   H  0.477505483E+02  0.244749850E+01  0.247857370E+01
