     4
 # iter = 25000  time[fs]=25.00000
   C -0.972264499E+00  0.517850981E-01 -0.484579874E-01
   C  0.101231722E+01 -0.120672131E-01 -0.182240952E-01
   H -0.527996165E+01  0.117520242E+00  0.157725701E+00
   H  0.537537083E+01  0.476213776E+00  0.439280661E+00
     4
 # iter = 25500  time[fs]=25.50000
   C -0.101699021E+01  0.529883862E-01 -0.500065397E-01
   C  0.105629547E+01 -0.144443280E-01 -0.196400368E-01
   H -0.561440094E+01  0.122120927E+00  0.168763051E+00
   H  0.569339688E+01  0.504536542E+00  0.466153882E+00
     4
 # iter = 26000  time[fs]=26.00000
   C -0.106496092E+01  0.542932531E-01 -0.516151028E-01
   C  0.110352648E+01 -0.169452433E-01 -0.210228138E-01
   H -0.595152796E+01  0.126753019E+00  0.179893196E+00
   H  0.601401751E+01  0.533094560E+00  0.493256464E+00
     4
 # iter = 26500  time[fs]=26.50000
   C -0.111590123E+01  0.556921107E-01 -0.532766018E-01
   C  0.115373284E+01 -0.195599789E-01 -0.223765720E-01
   H -0.629104265E+01  0.131412563E+00  0.191105485E+00
   H  0.633695695E+01  0.561863081E+00  0.520563904E+00
     4
 # iter = 27000  time[fs]=27.00000
   C -0.116955454E+01  0.571777055E-01 -0.549848728E-01
   C  0.120665639E+01 -0.222792587E-01 -0.237050040E-01
   H -0.663269186E+01  0.136096280E+00  0.202391034E+00
   H  0.666198042E+01  0.590821112E+00  0.548055437E+00
     4
 # iter = 27500  time[fs]=27.50000
   C -0.122568433E+01  0.587432052E-01 -0.567345605E-01
   C  0.126205946E+01 -0.250945245E-01 -0.250113611E-01
   H -0.697626008E+01  0.140801426E+00  0.213742347E+00
   H  0.698888655E+01  0.619950689E+00  0.575713306E+00
     4
 # iter = 28000  time[fs]=28.00000
   C -0.128407438E+01  0.603822449E-01 -0.585210186E-01
   C  0.131972492E+01 -0.279979267E-01 -0.262984826E-01
   H -0.732156248E+01  0.145525681E+00  0.225153041E+00
   H  0.731750133E+01  0.649236312E+00  0.603522212E+00
     4
 # iter = 28500  time[fs]=28.50000
   C -0.134452818E+01  0.620889447E-01 -0.603402170E-01
   C  0.137945555E+01 -0.309822984E-01 -0.275688353E-01
   H -0.766843936E+01  0.150267068E+00  0.236617631E+00
   H  0.764767349E+01  0.678664517E+00  0.631468879E+00
     4
 # iter = 29000  time[fs]=29.00000
   C -0.140686787E+01  0.638579050E-01 -0.621886581E-01
   C  0.144107294E+01 -0.340411174E-01 -0.288245545E-01
   H -0.801675184E+01  0.155023893E+00  0.248131370E+00
   H  0.797927069E+01  0.708223525E+00  0.659541709E+00
     4
 # iter = 29500  time[fs]=29.50000
   C -0.147093289E+01  0.656841899E-01 -0.640633026E-01
   C  0.150441613E+01 -0.371684622E-01 -0.300674860E-01
   H -0.836637842E+01  0.159794691E+00  0.259690119E+00
   H  0.831217658E+01  0.737902976E+00  0.687730516E+00
     4
 # iter = 30000  time[fs]=30.00000
   C -0.153657859E+01  0.675633002E-01 -0.659615040E-01
   C  0.156934010E+01 -0.403589639E-01 -0.312992233E-01
   H -0.871721226E+01  0.164578190E+00  0.271290245E+00
   H  0.864628829E+01  0.767693703E+00  0.716026299E+00
     4
 # iter = 30500  time[fs]=30.50000
   C -0.160367470E+01  0.694911439E-01 -0.678809532E-01
   C  0.163571436E+01 -0.436077587E-01 -0.325211431E-01
   H -0.906915885E+01  0.169373276E+00  0.282928546E+00
   H  0.898151449E+01  0.797587557E+00  0.744421071E+00
     4
 # iter = 31000  time[fs]=31.00000
   C -0.167210398E+01  0.714640032E-01 -0.698196296E-01
   C  0.170342142E+01 -0.469104407E-01 -0.337344355E-01
   H -0.942213430E+01  0.174178974E+00  0.294602179E+00
   H  0.931777371E+01  0.827577262E+00  0.772907708E+00
     4
 # iter = 31500  time[fs]=31.50000
   C -0.174176083E+01  0.734785022E-01 -0.717757603E-01
   C  0.177235555E+01 -0.502630184E-01 -0.349401305E-01
   H -0.977606372E+01  0.178994418E+00  0.306308612E+00
   H  0.965499301E+01  0.857656291E+00  0.801479829E+00
     4
 # iter = 32000  time[fs]=32.00000
   C -0.181255009E+01  0.755315754E-01 -0.737477855E-01
   C  0.184242145E+01 -0.536618727E-01 -0.361391211E-01
   H -0.101308801E+02  0.183818845E+00  0.318045577E+00
   H  0.999310681E+01  0.887818766E+00  0.830131698E+00
     4
 # iter = 32500  time[fs]=32.50000
   C -0.188438590E+01  0.776204383E-01 -0.757343280E-01
   C  0.191353319E+01 -0.571037197E-01 -0.373321832E-01
   H -0.104865230E+02  0.188651573E+00  0.329811037E+00
   H  0.103320560E+02  0.918059377E+00  0.858858138E+00
     4
 # iter = 33000  time[fs]=33.00000
   C -0.195719074E+01  0.797425595E-01 -0.777341687E-01
   C  0.198561315E+01 -0.605855760E-01 -0.385199921E-01
   H -0.108429382E+02  0.193491992E+00  0.341603152E+00
   H  0.106717870E+02  0.948373308E+00  0.887654462E+00
     4
 # iter = 33500  time[fs]=33.50000
   C -0.203089443E+01  0.818956361E-01 -0.797462249E-01
   C  0.205859111E+01 -0.641047279E-01 -0.397031369E-01
   H -0.112000764E+02  0.198339555E+00  0.353420259E+00
   H  0.110122512E+02  0.978756178E+00  0.916516413E+00
     4
 # iter = 34000  time[fs]=34.00000
   C -0.210543343E+01  0.840775701E-01 -0.817695321E-01
   C  0.213240348E+01 -0.676587033E-01 -0.408821329E-01
   H -0.115578928E+02  0.203193769E+00  0.365260844E+00
   H  0.113534045E+02  0.100920399E+01  0.945440110E+00
     4
 # iter = 34500  time[fs]=34.50000
   C -0.218075005E+01  0.862864482E-01 -0.838032285E-01
   C  0.220699254E+01 -0.712452472E-01 -0.420574314E-01
   H -0.119163468E+02  0.208054191E+00  0.377123529E+00
   H  0.116952063E+02  0.103971309E+01  0.974422007E+00
     4
 # iter = 35000  time[fs]=35.00000
   C -0.225679185E+01  0.885205230E-01 -0.858465419E-01
   C  0.228230584E+01 -0.748622990E-01 -0.432294291E-01
   H -0.122754010E+02  0.212920417E+00  0.389007055E+00
   H  0.120376198E+02  0.107028011E+01  0.100345886E+01
     4
 # iter = 35500  time[fs]=35.50000
   C -0.233351107E+01  0.907781963E-01 -0.878987783E-01
   C  0.235829560E+01 -0.785079728E-01 -0.443984752E-01
   H -0.126350215E+02  0.217792081E+00  0.400910269E+00
   H  0.123806109E+02  0.110090198E+01  0.103254768E+01
     4
 # iter = 36000  time[fs]=36.00000
   C -0.241086413E+01  0.930580042E-01 -0.899593124E-01
   C  0.243491826E+01 -0.821805400E-01 -0.455648779E-01
   H -0.129951770E+02  0.222668848E+00  0.412832109E+00
   H  0.127241485E+02  0.113157586E+01  0.106168573E+01
     4
 # iter = 36500  time[fs]=36.50000
   C -0.248881121E+01  0.953586040E-01 -0.920275791E-01
   C  0.251213397E+01 -0.858784136E-01 -0.467289098E-01
   H -0.133558387E+02  0.227550414E+00  0.424771599E+00
   H  0.130682039E+02  0.116229911E+01  0.109087046E+01
     4
 # iter = 37000  time[fs]=37.00000
   C -0.256731586E+01  0.976787619E-01 -0.941030665E-01
   C  0.258990630E+01 -0.896001339E-01 -0.478908124E-01
   H -0.137169802E+02  0.232436501E+00  0.436727839E+00
   H  0.134127504E+02  0.119306930E+01  0.112009955E+01
     4
 # iter = 37500  time[fs]=37.50000
   C -0.264634463E+01  0.100017343E+00 -0.961853097E-01
   C  0.266820180E+01 -0.933443565E-01 -0.490508003E-01
   H -0.140785768E+02  0.237326851E+00  0.448699995E+00
   H  0.137577635E+02  0.122388418E+01  0.114937081E+01
     4
 # iter = 38000  time[fs]=38.00000
   C -0.272586680E+01  0.102373301E+00 -0.982738854E-01
   C  0.274698977E+01 -0.971098410E-01 -0.502090646E-01
   H -0.144406059E+02  0.242221229E+00  0.460687294E+00
   H  0.141032203E+02  0.125474165E+01  0.117868224E+01
     4
 # iter = 38500  time[fs]=38.50000
   C -0.280585409E+01  0.104745670E+00 -0.100368407E+00
   C  0.282624194E+01 -0.100895441E+00 -0.513657757E-01
   H -0.148030465E+02  0.247119418E+00  0.472689020E+00
   H  0.144490996E+02  0.128563976E+01  0.120803195E+01
     4
 # iter = 39000  time[fs]=39.00000
   C -0.288628045E+01  0.107133559E+00 -0.102468522E+00
   C  0.290593226E+01 -0.104700096E+00 -0.525210857E-01
   H -0.151658790E+02  0.252021217E+00  0.484704505E+00
   H  0.147953818E+02  0.131657669E+01  0.123741821E+01
     4
 # iter = 39500  time[fs]=39.50000
   C -0.296712181E+01  0.109536140E+00 -0.104573906E+00
   C  0.298603669E+01 -0.108522823E+00 -0.536751309E-01
   H -0.155290853E+02  0.256926440E+00  0.496733128E+00
   H  0.151420485E+02  0.134755074E+01  0.126683938E+01
     4
 # iter = 40000  time[fs]=40.00000
   C -0.304835593E+01  0.111952649E+00 -0.106684261E+00
   C  0.306653299E+01 -0.112362710E+00 -0.548280336E-01
   H -0.158926482E+02  0.261834916E+00  0.508774307E+00
   H  0.154890824E+02  0.137856032E+01  0.129629394E+01
     4
 # iter = 40500  time[fs]=40.50000
   C -0.312996217E+01  0.114382374E+00 -0.108799315E+00
   C  0.314740056E+01 -0.116218907E+00 -0.559799035E-01
   H -0.162565521E+02  0.266746485E+00  0.520827502E+00
   H  0.158364677E+02  0.140960395E+01  0.132578047E+01
     4
 # iter = 41000  time[fs]=41.00000
   C -0.321192144E+01  0.116824655E+00 -0.110918814E+00
   C  0.322862031E+01 -0.120090626E+00 -0.571308396E-01
   H -0.166207820E+02  0.271660998E+00  0.532892203E+00
   H  0.161841891E+02  0.144068021E+01  0.135529764E+01
     4
 # iter = 41500  time[fs]=41.50000
   C -0.329421598E+01  0.119278877E+00 -0.113042525E+00
   C  0.331017448E+01 -0.123977130E+00 -0.582809308E-01
   H -0.169853241E+02  0.276578316E+00  0.544967934E+00
   H  0.165322327E+02  0.147178781E+01  0.138484418E+01
     4
 # iter = 42000  time[fs]=42.00000
   C -0.337682925E+01  0.121744466E+00 -0.115170233E+00
   C  0.339204659E+01 -0.127877732E+00 -0.594302575E-01
   H -0.173501654E+02  0.281498311E+00  0.557054247E+00
   H  0.168805852E+02  0.150292550E+01  0.141441893E+01
     4
 # iter = 42500  time[fs]=42.50000
   C -0.345974588E+01  0.124220888E+00 -0.117301737E+00
   C  0.347422126E+01 -0.131791791E+00 -0.605788926E-01
   H -0.177152936E+02  0.286420861E+00  0.569150724E+00
   H  0.172292343E+02  0.153409213E+01  0.144402076E+01
     4
 # iter = 43000  time[fs]=43.00000
   C -0.354295152E+01  0.126707642E+00 -0.119436852E+00
   C  0.355668415E+01 -0.135718705E+00 -0.617269016E-01
   H -0.180806973E+02  0.291345855E+00  0.581256967E+00
   H  0.175781681E+02  0.156528659E+01  0.147364865E+01
     4
 # iter = 43500  time[fs]=43.50000
   C -0.362643275E+01  0.129204260E+00 -0.121575404E+00
   C  0.363942188E+01 -0.139657912E+00 -0.628743444E-01
   H -0.184463656E+02  0.296273185E+00  0.593372603E+00
   H  0.179273756E+02  0.159650785E+01  0.150330160E+01
     4
 # iter = 44000  time[fs]=44.00000
   C -0.371017704E+01  0.131710305E+00 -0.123717233E+00
   C  0.372242193E+01 -0.143608884E+00 -0.640212750E-01
   H -0.188122883E+02  0.301202754E+00  0.605497281E+00
   H  0.182768466E+02  0.162775494E+01  0.153297868E+01
     4
 # iter = 44500  time[fs]=44.50000
   C -0.379417266E+01  0.134225366E+00 -0.125862188E+00
   C  0.380567257E+01 -0.147571125E+00 -0.651677427E-01
   H -0.191784558E+02  0.306134467E+00  0.617630668E+00
   H  0.186265711E+02  0.165902692E+01  0.156267902E+01
     4
 # iter = 45000  time[fs]=45.00000
   C -0.387840859E+01  0.136749056E+00 -0.128010130E+00
   C  0.388916281E+01 -0.151544169E+00 -0.663137922E-01
   H -0.195448591E+02  0.311068237E+00  0.629772449E+00
   H  0.189765398E+02  0.169032291E+01  0.159240177E+01
     4
 # iter = 45500  time[fs]=45.50000
   C -0.396287452E+01  0.139281014E+00 -0.130160927E+00
   C  0.397288236E+01 -0.155527577E+00 -0.674594643E-01
   H -0.199114894E+02  0.316003981E+00  0.641922327E+00
   H  0.193267440E+02  0.172164210E+01  0.162214616E+01
     4
 # iter = 46000  time[fs]=46.00000
   C -0.404756075E+01  0.141820899E+00 -0.132314455E+00
   C  0.405682152E+01 -0.159520936E+00 -0.686047962E-01
   H -0.202783388E+02  0.320941622E+00  0.654080019E+00
   H  0.196771753E+02  0.175298368E+01  0.165191144E+01
     4
 # iter = 46500  time[fs]=46.50000
   C -0.413245814E+01  0.144368388E+00 -0.134470600E+00
   C  0.414097119E+01 -0.163523857E+00 -0.697498219E-01
   H -0.206453994E+02  0.325881087E+00  0.666245258E+00
   H  0.200278259E+02  0.178434692E+01  0.168169689E+01
     4
 # iter = 47000  time[fs]=47.00000
   C -0.421755811E+01  0.146923180E+00 -0.136629253E+00
   C  0.422532278E+01 -0.167535970E+00 -0.708945723E-01
   H -0.210126639E+02  0.330822305E+00  0.678417790E+00
   H  0.203786882E+02  0.181573109E+01  0.171150185E+01
     4
 # iter = 47500  time[fs]=47.50000
   C -0.430285256E+01  0.149484989E+00 -0.138790313E+00
   C  0.430986822E+01 -0.171556930E+00 -0.720390757E-01
   H -0.213801255E+02  0.335765213E+00  0.690597374E+00
   H  0.207297551E+02  0.184713552E+01  0.174132567E+01
     4
 # iter = 48000  time[fs]=48.00000
   C -0.438833386E+01  0.152053544E+00 -0.140953683E+00
   C  0.439459988E+01 -0.175586406E+00 -0.731833583E-01
   H -0.217477775E+02  0.340709746E+00  0.702783779E+00
   H  0.210810199E+02  0.187855957E+01  0.177116774E+01
     4
 # iter = 48500  time[fs]=48.50000
   C -0.447399478E+01  0.154628591E+00 -0.143119273E+00
   C  0.447951057E+01 -0.179624087E+00 -0.743274436E-01
   H -0.221156136E+02  0.345655848E+00  0.714976788E+00
   H  0.214324761E+02  0.191000261E+01  0.180102748E+01
     4
 # iter = 49000  time[fs]=49.00000
   C -0.455982850E+01  0.157209887E+00 -0.145286998E+00
   C  0.456459347E+01 -0.183669680E+00 -0.754713536E-01
   H -0.224836279E+02  0.350603461E+00  0.727176192E+00
   H  0.217841176E+02  0.194146408E+01  0.183090434E+01
     4
 # iter = 49500  time[fs]=49.50000
   C -0.464582859E+01  0.159797205E+00 -0.147456778E+00
   C  0.464984214E+01 -0.187722903E+00 -0.766151082E-01
   H -0.228518147E+02  0.355552534E+00  0.739381793E+00
   H  0.221359386E+02  0.197294339E+01  0.186079779E+01
     4
 # iter = 50000  time[fs]=50.00000
   C -0.473198892E+01  0.162390328E+00 -0.149628535E+00
   C  0.473525050E+01 -0.191783491E+00 -0.777587257E-01
   H -0.232201686E+02  0.360503016E+00  0.751593401E+00
   H  0.224879334E+02  0.200444003E+01  0.189070733E+01
     4
 # iter = 50500  time[fs]=50.50000
   C -0.481830371E+01  0.164989049E+00 -0.151802199E+00
   C  0.482081276E+01 -0.195851192E+00 -0.789022230E-01
   H -0.235886844E+02  0.365454860E+00  0.763810836E+00
   H  0.228400968E+02  0.203595348E+01  0.192063248E+01
     4
 # iter = 51000  time[fs]=51.00000
   C -0.490476747E+01  0.167593173E+00 -0.153977701E+00
   C  0.490652345E+01 -0.199925767E+00 -0.800456156E-01
   H -0.239573572E+02  0.370408020E+00  0.776033924E+00
   H  0.231924236E+02  0.206748325E+01  0.195057277E+01
     4
 # iter = 51500  time[fs]=51.50000
   C -0.499137498E+01  0.170202516E+00 -0.156154977E+00
   C  0.499237736E+01 -0.204006987E+00 -0.811889178E-01
   H -0.243261823E+02  0.375362452E+00  0.788262502E+00
   H  0.235449091E+02  0.209902888E+01  0.198052777E+01
     4
 # iter = 52000  time[fs]=52.00000
   C -0.507812129E+01  0.172816900E+00 -0.158333964E+00
   C  0.507836956E+01 -0.208094635E+00 -0.823321426E-01
   H -0.246951551E+02  0.380318117E+00  0.800496409E+00
   H  0.238975486E+02  0.213058991E+01  0.201049705E+01
     4
 # iter = 52500  time[fs]=52.50000
   C -0.516500170E+01  0.175436158E+00 -0.160514605E+00
   C  0.516449534E+01 -0.212188504E+00 -0.834753022E-01
   H -0.250642714E+02  0.385274974E+00  0.812735497E+00
   H  0.242503376E+02  0.216216592E+01  0.204048022E+01
     4
 # iter = 53000  time[fs]=53.00000
   C -0.525201171E+01  0.178060129E+00 -0.162696845E+00
   C  0.525075024E+01 -0.216288397E+00 -0.846184075E-01
   H -0.254335271E+02  0.390232986E+00  0.824979618E+00
   H  0.246032719E+02  0.219375650E+01  0.207047688E+01
     4
 # iter = 53500  time[fs]=53.50000
   C -0.533914707E+01  0.180688661E+00 -0.164880630E+00
   C  0.533712999E+01 -0.220394126E+00 -0.857614689E-01
   H -0.258029181E+02  0.395192118E+00  0.837228636E+00
   H  0.249563474E+02  0.222536125E+01  0.210048667E+01
     4
 # iter = 54000  time[fs]=54.00000
   C -0.542640371E+01  0.183321610E+00 -0.167065911E+00
   C  0.542363055E+01 -0.224505510E+00 -0.869044957E-01
   H -0.261724407E+02  0.400152335E+00  0.849482415E+00
   H  0.253095602E+02  0.225697979E+01  0.213050922E+01
     4
 # iter = 54500  time[fs]=54.50000
   C -0.551377775E+01  0.185958836E+00 -0.169252640E+00
   C  0.551024805E+01 -0.228622379E+00 -0.880474967E-01
   H -0.265420914E+02  0.405113605E+00  0.861740829E+00
   H  0.256629066E+02  0.228861176E+01  0.216054421E+01
     4
 # iter = 55000  time[fs]=55.00000
   C -0.560126549E+01  0.188600207E+00 -0.171440771E+00
   C  0.559697880E+01 -0.232744568E+00 -0.891904798E-01
   H -0.269118665E+02  0.410075896E+00  0.874003755E+00
   H  0.260163829E+02  0.232025682E+01  0.219059130E+01
     4
 # iter = 55500  time[fs]=55.50000
   C -0.568886341E+01  0.191245596E+00 -0.173630260E+00
   C  0.568381928E+01 -0.236871920E+00 -0.903334524E-01
   H -0.272817628E+02  0.415039179E+00  0.886271074E+00
   H  0.263699857E+02  0.235191462E+01  0.222065017E+01
     4
 # iter = 56000  time[fs]=56.00000
   C -0.577656812E+01  0.193894882E+00 -0.175821068E+00
   C  0.577076612E+01 -0.241004285E+00 -0.914764214E-01
   H -0.276517770E+02  0.420003425E+00  0.898542673E+00
   H  0.267237117E+02  0.238358484E+01  0.225072053E+01
     4
 # iter = 56500  time[fs]=56.50000
   C -0.586437641E+01  0.196547950E+00 -0.178013152E+00
   C  0.585781610E+01 -0.245141518E+00 -0.926193930E-01
   H -0.280219062E+02  0.424968607E+00  0.910818444E+00
   H  0.270775577E+02  0.241526718E+01  0.228080208E+01
     4
 # iter = 57000  time[fs]=57.00000
   C -0.595228519E+01  0.199204689E+00 -0.180206477E+00
   C  0.594496616E+01 -0.249283483E+00 -0.937623729E-01
   H -0.283921472E+02  0.429934699E+00  0.923098281E+00
   H  0.274315206E+02  0.244696132E+01  0.231089454E+01
     4
 # iter = 57500  time[fs]=57.50000
   C -0.604029150E+01  0.201864993E+00 -0.182401005E+00
   C  0.603221334E+01 -0.253430046E+00 -0.949053665E-01
   H -0.287624973E+02  0.434901675E+00  0.935382084E+00
   H  0.277855975E+02  0.247866699E+01  0.234099765E+01
     4
 # iter = 58000  time[fs]=58.00000
   C -0.612839252E+01  0.204528760E+00 -0.184596703E+00
   C  0.611955483E+01 -0.257581081E+00 -0.960483788E-01
   H -0.291329537E+02  0.439869510E+00  0.947669754E+00
   H  0.281397855E+02  0.251038390E+01  0.237111114E+01
     4
 # iter = 58500  time[fs]=58.50000
   C -0.621658554E+01  0.207195892E+00 -0.186793535E+00
   C  0.620698793E+01 -0.261736466E+00 -0.971914142E-01
   H -0.295035137E+02  0.444838183E+00  0.959961199E+00
   H  0.284940819E+02  0.254211179E+01  0.240123475E+01
     4
 # iter = 59000  time[fs]=59.00000
   C -0.630486796E+01  0.209866297E+00 -0.188991472E+00
   C  0.629451004E+01 -0.265896085E+00 -0.983344769E-01
   H -0.298741749E+02  0.449807670E+00  0.972256328E+00
   H  0.288484840E+02  0.257385039E+01  0.243136826E+01
     4
 # iter = 59500  time[fs]=59.50000
   C -0.639323729E+01  0.212539884E+00 -0.191190482E+00
   C  0.638211868E+01 -0.270059824E+00 -0.994775708E-01
   H -0.302449348E+02  0.454777951E+00  0.984555053E+00
   H  0.292029894E+02  0.260559947E+01  0.246151143E+01
     4
 # iter = 60000  time[fs]=60.00000
   C -0.648169113E+01  0.215216567E+00 -0.193390536E+00
   C  0.646981147E+01 -0.274227575E+00 -0.100620699E+00
   H -0.306157909E+02  0.459749004E+00  0.996857291E+00
   H  0.295575954E+02  0.263735877E+01  0.249166402E+01
     4
 # iter = 60500  time[fs]=60.50000
   C -0.657022720E+01  0.217896263E+00 -0.195591606E+00
   C  0.655758611E+01 -0.278399236E+00 -0.101763866E+00
   H -0.309867411E+02  0.464720809E+00  0.100916296E+01
   H  0.299122999E+02  0.266912807E+01  0.252182583E+01
     4
 # iter = 61000  time[fs]=61.00000
   C -0.665884327E+01  0.220578893E+00 -0.197793664E+00
   C  0.664544041E+01 -0.282574706E+00 -0.102907073E+00
   H -0.313577831E+02  0.469693348E+00  0.102147198E+01
   H  0.302671005E+02  0.270090713E+01  0.255199665E+01
     4
 # iter = 61500  time[fs]=61.50000
   C -0.674753724E+01  0.223264379E+00 -0.199996686E+00
   C  0.673337225E+01 -0.286753888E+00 -0.104050324E+00
   H -0.317289148E+02  0.474666602E+00  0.103378428E+01
   H  0.306219949E+02  0.273269575E+01  0.258217627E+01
     4
 # iter = 62000  time[fs]=62.00000
   C -0.683630706E+01  0.225952650E+00 -0.202200645E+00
   C  0.682137960E+01 -0.290936690E+00 -0.105193622E+00
   H -0.321001342E+02  0.479640554E+00  0.104609979E+01
   H  0.309769811E+02  0.276449371E+01  0.261236449E+01
     4
 # iter = 62500  time[fs]=62.50000
   C -0.692515077E+01  0.228643633E+00 -0.204405519E+00
   C  0.690946051E+01 -0.295123023E+00 -0.106336968E+00
   H -0.324714392E+02  0.484615186E+00  0.105841842E+01
   H  0.313320570E+02  0.279630081E+01  0.264256113E+01
     4
 # iter = 63000  time[fs]=63.00000
   C -0.701406648E+01  0.231337259E+00 -0.206611283E+00
   C  0.699761308E+01 -0.299312801E+00 -0.107480364E+00
   H -0.328428279E+02  0.489590481E+00  0.107074012E+01
   H  0.316872206E+02  0.282811686E+01  0.267276600E+01
     4
 # iter = 63500  time[fs]=63.50000
   C -0.710305237E+01  0.234033465E+00 -0.208817916E+00
   C  0.708583552E+01 -0.303505940E+00 -0.108623813E+00
   H -0.332142985E+02  0.494566425E+00  0.108306482E+01
   H  0.320424699E+02  0.285994165E+01  0.270297893E+01
     4
 # iter = 64000  time[fs]=64.00000
   C -0.719210669E+01  0.236732185E+00 -0.211025396E+00
   C  0.717412607E+01 -0.307702361E+00 -0.109767317E+00
   H -0.335858493E+02  0.499543001E+00  0.109539246E+01
   H  0.323978032E+02  0.289177501E+01  0.273319974E+01
     4
 # iter = 64500  time[fs]=64.50000
   C -0.728122776E+01  0.239433359E+00 -0.213233702E+00
   C  0.726248305E+01 -0.311901986E+00 -0.110910876E+00
   H -0.339574783E+02  0.504520195E+00  0.110772297E+01
   H  0.327532185E+02  0.292361676E+01  0.276342827E+01
     4
 # iter = 65000  time[fs]=65.00000
   C -0.737041393E+01  0.242136928E+00 -0.215442815E+00
   C  0.735090483E+01 -0.316104741E+00 -0.112054493E+00
   H -0.343291841E+02  0.509497993E+00  0.112005628E+01
   H  0.331087142E+02  0.295546672E+01  0.279366436E+01
     4
 # iter = 65500  time[fs]=65.50000
   C -0.745966365E+01  0.244842834E+00 -0.217652716E+00
   C  0.743938985E+01 -0.320310553E+00 -0.113198169E+00
   H -0.347009649E+02  0.514476380E+00  0.113239236E+01
   H  0.334642886E+02  0.298732474E+01  0.282390784E+01
     4
 # iter = 66000  time[fs]=66.00000
   C -0.754897540E+01  0.247551023E+00 -0.219863385E+00
   C  0.752793661E+01 -0.324519353E+00 -0.114341905E+00
   H -0.350728192E+02  0.519455343E+00  0.114473113E+01
   H  0.338199400E+02  0.301919063E+01  0.285415858E+01
     4
 # iter = 66500  time[fs]=66.50000
   C -0.763834771E+01  0.250261442E+00 -0.222074805E+00
   C  0.761654364E+01 -0.328731074E+00 -0.115485701E+00
   H -0.354447455E+02  0.524434870E+00  0.115707254E+01
   H  0.341756668E+02  0.305106426E+01  0.288441641E+01
     4
 # iter = 67000  time[fs]=67.00000
   C -0.772777916E+01  0.252974040E+00 -0.224286959E+00
   C  0.770520954E+01 -0.332945650E+00 -0.116629560E+00
   H -0.358167422E+02  0.529414947E+00  0.116941654E+01
   H  0.345314676E+02  0.308294545E+01  0.291468121E+01
     4
 # iter = 67500  time[fs]=67.50000
   C -0.781726841E+01  0.255688766E+00 -0.226499830E+00
   C  0.779393294E+01 -0.337163019E+00 -0.117773482E+00
   H -0.361888080E+02  0.534395564E+00  0.118176308E+01
   H  0.348873407E+02  0.311483407E+01  0.294495283E+01
     4
 # iter = 68000  time[fs]=68.00000
   C -0.790681412E+01  0.258405574E+00 -0.228713402E+00
   C  0.788271253E+01 -0.341383120E+00 -0.118917468E+00
   H -0.365609414E+02  0.539376707E+00  0.119411211E+01
   H  0.352432847E+02  0.314672998E+01  0.297523113E+01
     4
 # iter = 68500  time[fs]=68.50000
   C -0.799641502E+01  0.261124415E+00 -0.230927659E+00
   C  0.797154704E+01 -0.345605892E+00 -0.120061518E+00
   H -0.369331411E+02  0.544358366E+00  0.120646358E+01
   H  0.355992984E+02  0.317863302E+01  0.300551600E+01
     4
 # iter = 69000  time[fs]=69.00000
   C -0.808606987E+01  0.263845247E+00 -0.233142587E+00
   C  0.806043524E+01 -0.349831281E+00 -0.121205633E+00
   H -0.373054058E+02  0.549340530E+00  0.121881744E+01
   H  0.359553801E+02  0.321054307E+01  0.303580729E+01
     4
 # iter = 69500  time[fs]=69.50000
   C -0.817577749E+01  0.266568025E+00 -0.235358170E+00
   C  0.814937595E+01 -0.354059229E+00 -0.122349814E+00
   H -0.376777342E+02  0.554323188E+00  0.123117365E+01
   H  0.363115288E+02  0.324245999E+01  0.306610490E+01
     4
 # iter = 70000  time[fs]=70.00000
   C -0.826553672E+01  0.269292707E+00 -0.237574394E+00
   C  0.823836800E+01 -0.358289684E+00 -0.123494061E+00
   H -0.380501251E+02  0.559306329E+00  0.124353216E+01
   H  0.366677430E+02  0.327438365E+01  0.309640869E+01
     4
 # iter = 70500  time[fs]=70.50000
   C -0.835534644E+01  0.272019253E+00 -0.239791246E+00
   C  0.832741029E+01 -0.362522594E+00 -0.124638375E+00
   H -0.384225773E+02  0.564289945E+00  0.125589293E+01
   H  0.370240215E+02  0.330631393E+01  0.312671855E+01
     4
 # iter = 71000  time[fs]=71.00000
   C -0.844520556E+01  0.274747623E+00 -0.242008713E+00
   C  0.841650175E+01 -0.366757908E+00 -0.125782755E+00
   H -0.387950896E+02  0.569274024E+00  0.126825591E+01
   H  0.373803631E+02  0.333825071E+01  0.315703438E+01
     4
 # iter = 71500  time[fs]=71.50000
   C -0.853511305E+01  0.277477778E+00 -0.244226781E+00
   C  0.850564131E+01 -0.370995577E+00 -0.126927203E+00
   H -0.391676609E+02  0.574258559E+00  0.128062107E+01
   H  0.377367666E+02  0.337019386E+01  0.318735606E+01
     4
 # iter = 72000  time[fs]=72.00000
   C -0.862506787E+01  0.280209683E+00 -0.246445439E+00
   C  0.859482798E+01 -0.375235554E+00 -0.128071718E+00
   H -0.395402900E+02  0.579243538E+00  0.129298837E+01
   H  0.380932309E+02  0.340214328E+01  0.321768348E+01
     4
 # iter = 72500  time[fs]=72.50000
   C -0.871506905E+01  0.282943300E+00 -0.248664674E+00
   C  0.868406077E+01 -0.379477793E+00 -0.129216301E+00
   H -0.399129760E+02  0.584228955E+00  0.130535777E+01
   H  0.384497549E+02  0.343409885E+01  0.324801654E+01
     4
 # iter = 73000  time[fs]=73.00000
   C -0.880511563E+01  0.285678596E+00 -0.250884474E+00
   C  0.877333873E+01 -0.383722249E+00 -0.130360952E+00
   H -0.402857178E+02  0.589214800E+00  0.131772922E+01
   H  0.388063374E+02  0.346606046E+01  0.327835514E+01
     4
 # iter = 73500  time[fs]=73.50000
   C -0.889520669E+01  0.288415536E+00 -0.253104829E+00
   C  0.886266093E+01 -0.387968880E+00 -0.131505670E+00
   H -0.406585143E+02  0.594201064E+00  0.133010270E+01
   H  0.391629774E+02  0.349802801E+01  0.330869919E+01
     4
 # iter = 74000  time[fs]=74.00000
   C -0.898534132E+01  0.291154087E+00 -0.255325727E+00
   C  0.895202648E+01 -0.392217642E+00 -0.132650457E+00
   H -0.410313646E+02  0.599187740E+00  0.134247817E+01
   H  0.395196739E+02  0.353000140E+01  0.333904857E+01
     4
 # iter = 74500  time[fs]=74.50000
   C -0.907551865E+01  0.293894218E+00 -0.257547157E+00
   C  0.904143451E+01 -0.396468495E+00 -0.133795312E+00
   H -0.414042677E+02  0.604174820E+00  0.135485559E+01
   H  0.398764258E+02  0.356198051E+01  0.336940321E+01
     4
 # iter = 75000  time[fs]=75.00000
   C -0.916573784E+01  0.296635897E+00 -0.259769109E+00
   C  0.913088418E+01 -0.400721399E+00 -0.134940234E+00
   H -0.417772227E+02  0.609162296E+00  0.136723493E+01
   H  0.402332323E+02  0.359396526E+01  0.339976302E+01
     4
 # iter = 75500  time[fs]=75.50000
   C -0.925599807E+01  0.299379095E+00 -0.261991573E+00
   C  0.922037467E+01 -0.404976316E+00 -0.136085225E+00
   H -0.421502286E+02  0.614150160E+00  0.137961616E+01
   H  0.405900923E+02  0.362595555E+01  0.343012789E+01
     4
 # iter = 76000  time[fs]=76.00000
   C -0.934629852E+01  0.302123783E+00 -0.264214540E+00
   C  0.930990518E+01 -0.409233207E+00 -0.137230283E+00
   H -0.425232847E+02  0.619138406E+00  0.139199924E+01
   H  0.409470049E+02  0.365795128E+01  0.346049776E+01
     4
 # iter = 76500  time[fs]=76.50000
   C -0.943663843E+01  0.304869931E+00 -0.266437999E+00
   C  0.939947494E+01 -0.413492037E+00 -0.138375409E+00
   H -0.428963900E+02  0.624127027E+00  0.140438414E+01
   H  0.413039693E+02  0.368995237E+01  0.349087252E+01
     4
 # iter = 77000  time[fs]=77.00000
   C -0.952701705E+01  0.307617513E+00 -0.268661942E+00
   C  0.948908320E+01 -0.417752770E+00 -0.139520603E+00
   H -0.432695436E+02  0.629116015E+00  0.141677084E+01
   H  0.416609845E+02  0.372195873E+01  0.352125211E+01
     4
 # iter = 77500  time[fs]=77.50000
   C -0.961743364E+01  0.310366501E+00 -0.270886359E+00
   C  0.957872922E+01 -0.422015371E+00 -0.140665865E+00
   H -0.436427449E+02  0.634105363E+00  0.142915930E+01
   H  0.420180497E+02  0.375397026E+01  0.355163644E+01
     4
 # iter = 78000  time[fs]=78.00000
   C -0.970788748E+01  0.313116870E+00 -0.273111242E+00
   C  0.966841231E+01 -0.426279807E+00 -0.141811193E+00
   H -0.440159928E+02  0.639095066E+00  0.144154949E+01
   H  0.423751640E+02  0.378598689E+01  0.358202543E+01
     4
 # iter = 78500  time[fs]=78.50000
   C -0.979837789E+01  0.315868594E+00 -0.275336582E+00
   C  0.975813176E+01 -0.430546045E+00 -0.142956589E+00
   H -0.443892868E+02  0.644085117E+00  0.145394139E+01
   H  0.427323267E+02  0.381800853E+01  0.361241901E+01
     4
 # iter = 79000  time[fs]=79.00000
   C -0.988890419E+01  0.318621649E+00 -0.277562371E+00
   C  0.984788691E+01 -0.434814053E+00 -0.144102052E+00
   H -0.447626260E+02  0.649075510E+00  0.146633496E+01
   H  0.430895369E+02  0.385003511E+01  0.364281710E+01
     4
 # iter = 79500  time[fs]=79.50000
   C -0.997946572E+01  0.321376010E+00 -0.279788601E+00
   C  0.993767711E+01 -0.439083799E+00 -0.145247582E+00
   H -0.451360097E+02  0.654066239E+00  0.147873019E+01
   H  0.434467939E+02  0.388206653E+01  0.367321964E+01
     4
 # iter = 80000  time[fs]=80.00000
   C -0.100700619E+02  0.324131654E+00 -0.282015264E+00
   C  0.100275017E+02 -0.443355255E+00 -0.146393178E+00
   H -0.455094372E+02  0.659057298E+00  0.149112704E+01
   H  0.438040968E+02  0.391410274E+01  0.370362654E+01
