     4
 # iter = 25000  time[fs]=25.00000
   C -0.100360496E+01 -0.144546602E-01 -0.134713777E-01
   C  0.956339024E+00 -0.108693747E-01 -0.243555035E-01
   H -0.525396850E+01  0.987796403E-01  0.482662081E+00
   H  0.515914332E+01 -0.361936908E+00 -0.408284595E+00
     4
 # iter = 25500  time[fs]=25.50000
   C -0.104924821E+01 -0.147379771E-01 -0.144592988E-01
   C  0.995903119E+00 -0.907620904E-02 -0.230854390E-01
   H -0.558775767E+01  0.106925873E+00  0.515395166E+00
   H  0.547505585E+01 -0.382706418E+00 -0.433782780E+00
     4
 # iter = 26000  time[fs]=26.00000
   C -0.109790715E+01 -0.150297651E-01 -0.154589427E-01
   C  0.103847316E+01 -0.725167439E-02 -0.218127130E-01
   H -0.592705951E+01  0.115209203E+00  0.548703997E+00
   H  0.579659800E+01 -0.403887800E+00 -0.459747978E+00
     4
 # iter = 26500  time[fs]=26.50000
   C -0.114933684E+01 -0.153318010E-01 -0.164719845E-01
   C  0.108380412E+01 -0.539657665E-02 -0.205344326E-01
   H -0.627124861E+01  0.123614445E+00  0.582523293E+00
   H  0.612314530E+01 -0.425434878E+00 -0.486129517E+00
     4
 # iter = 27000  time[fs]=27.00000
   C -0.120330731E+01 -0.156453388E-01 -0.174997037E-01
   C  0.113166619E+01 -0.351184640E-02 -0.192483217E-01
   H -0.661979485E+01  0.132128706E+00  0.616797886E+00
   H  0.645416586E+01 -0.447308540E+00 -0.512884189E+00
     4
 # iter = 27500  time[fs]=27.50000
   C -0.125960521E+01 -0.159712046E-01 -0.185430085E-01
   C  0.118184630E+01 -0.159852006E-02 -0.179526479E-01
   H -0.697224587E+01  0.140740959E+00  0.651480799E+00
   H  0.678920385E+01 -0.469475412E+00 -0.539974911E+00
     4
 # iter = 28000  time[fs]=28.00000
   C -0.131803428E+01 -0.163098821E-01 -0.196024806E-01
   C  0.123414855E+01  0.342287392E-03 -0.166461409E-01
   H -0.732821314E+01  0.149441717E+00  0.686531745E+00
   H  0.712786635E+01 -0.491906823E+00 -0.567369656E+00
     4
 # iter = 28500  time[fs]=28.50000
   C -0.137841515E+01 -0.166615874E-01 -0.206784269E-01
   C  0.128839401E+01  0.230941104E-02 -0.153279135E-01
   H -0.768736094E+01  0.158222766E+00  0.721915947E+00
   H  0.746981271E+01 -0.514577984E+00 -0.595040611E+00
     4
 # iter = 29000  time[fs]=29.00000
   C -0.144058466E+01 -0.170263325E-01 -0.217709312E-01
   C  0.134441991E+01  0.430166226E-02 -0.139973892E-01
   H -0.804939758E+01  0.167076951E+00  0.757603202E+00
   H  0.781474609E+01 -0.537467336E+00 -0.622963486E+00
     4
 # iter = 29500  time[fs]=29.50000
   C -0.150439480E+01 -0.174039764E-01 -0.228799004E-01
   C  0.140207870E+01  0.631785079E-02 -0.126542393E-01
   H -0.841406821E+01  0.175998010E+00  0.793567130E+00
   H  0.816240648E+01 -0.560556023E+00 -0.651116962E+00
     4
 # iter = 30000  time[fs]=30.00000
   C -0.156971166E+01 -0.177942667E-01 -0.240051061E-01
   C  0.146123687E+01  0.835680238E-02 -0.112983288E-01
   H -0.878114911E+01  0.184980431E+00  0.829784569E+00
   H  0.851256509E+01 -0.583827472E+00 -0.679482239E+00
     4
 # iter = 30500  time[fs]=30.50000
   C -0.163641416E+01 -0.181968724E-01 -0.251462182E-01
   C  0.152177376E+01  0.104173721E-01 -0.992967240E-02
   H -0.915044291E+01  0.194019342E+00  0.866235081E+00
   H  0.886501971E+01 -0.607267042E+00 -0.708042662E+00
     4
 # iter = 31000  time[fs]=31.00000
   C -0.170439289E+01 -0.186114094E-01 -0.263028334E-01
   C  0.158358035E+01  0.124984538E-01 -0.854839849E-02
   H -0.952177478E+01  0.203110416E+00  0.902900549E+00
   H  0.921959083E+01 -0.630861746E+00 -0.736783415E+00
     4
 # iter = 31500  time[fs]=31.50000
   C -0.177354901E+01 -0.190374596E-01 -0.274744978E-01
   C  0.164655815E+01  0.145989868E-01 -0.715471980E-02
   H -0.989498917E+01  0.212249795E+00  0.939764849E+00
   H  0.957611851E+01 -0.654600011E+00 -0.765691266E+00
     4
 # iter = 32000  time[fs]=32.00000
   C -0.184379314E+01 -0.194745865E-01 -0.286607244E-01
   C  0.171061813E+01  0.167179595E-01 -0.574891046E-02
   H -0.102699472E+02  0.221434027E+00  0.976813564E+00
   H  0.993445968E+01 -0.678471486E+00 -0.794754354E+00
     4
 # iter = 32500  time[fs]=32.50000
   C -0.191504441E+01 -0.199223457E-01 -0.298610077E-01
   C  0.177567977E+01  0.188544118E-01 -0.433128774E-02
   H -0.106465242E+02  0.230660008E+00  0.101403377E+01
   H  0.102944859E+02 -0.702466877E+00 -0.823962009E+00
     4
 # iter = 33000  time[fs]=33.00000
   C -0.198722960E+01 -0.203802935E-01 -0.310748339E-01
   C  0.184167011E+01  0.210074352E-01 -0.290219776E-02
   H -0.110246084E+02  0.239924942E+00  0.105141381E+01
   H  0.106560816E+02 -0.726577811E+00 -0.853304598E+00
     4
 # iter = 33500  time[fs]=33.50000
   C -0.206028226E+01 -0.208479926E-01 -0.323016892E-01
   C  0.190852303E+01  0.231761726E-01 -0.146200451E-02
   H -0.114040985E+02  0.249226300E+00  0.108894318E+01
   H  0.110191422E+02 -0.750796721E+00 -0.882773404E+00
     4
 # iter = 34000  time[fs]=34.00000
   C -0.213414209E+01 -0.213250165E-01 -0.335410659E-01
   C  0.197617846E+01  0.253598171E-01 -0.110813506E-04
   H -0.117849031E+02  0.258561786E+00  0.112661235E+01
   H  0.113835731E+02 -0.775116746E+00 -0.912360508E+00
     4
 # iter = 34500  time[fs]=34.50000
   C -0.220875422E+01 -0.218109522E-01 -0.347924670E-01
   C  0.204458179E+01  0.275576096E-01  0.145019548E-02
   H -0.121669391E+02  0.267929312E+00  0.116441265E+01
   H  0.117492883E+02 -0.799531647E+00 -0.942058701E+00
     4
 # iter = 35000  time[fs]=35.00000
   C -0.228406867E+01 -0.223054022E-01 -0.360554090E-01
   C  0.211368327E+01  0.297688375E-01  0.292145169E-02
   H -0.125501310E+02  0.277326975E+00  0.120233620E+01
   H  0.121162093E+02 -0.824035736E+00 -0.971861400E+00
     4
 # iter = 35500  time[fs]=35.50000
   C -0.236003985E+01 -0.228079856E-01 -0.373294241E-01
   C  0.218343752E+01  0.319928317E-01  0.440231853E-02
   H -0.129344096E+02  0.286753031E+00  0.124037578E+01
   H  0.124842645E+02 -0.848623814E+00 -0.100176258E+01
     4
 # iter = 36000  time[fs]=36.00000
   C -0.243662609E+01 -0.233183387E-01 -0.386140619E-01
   C  0.225380307E+01  0.342289644E-01  0.589243540E-02
   H -0.133197119E+02  0.296205883E+00  0.127852479E+01
   H  0.128533885E+02 -0.873291114E+00 -0.103175672E+01
     4
 # iter = 36500  time[fs]=36.50000
   C -0.251378923E+01 -0.238361150E-01 -0.399088898E-01
   C  0.232474196E+01  0.364766467E-01  0.739145173E-02
   H -0.137059799E+02  0.305684063E+00  0.131677715E+01
   H  0.132235210E+02 -0.898033259E+00 -0.106183872E+01
     4
 # iter = 37000  time[fs]=37.00000
   C -0.259149429E+01 -0.243609852E-01 -0.412134938E-01
   C  0.239621938E+01  0.387353262E-01  0.889902823E-02
   H -0.140931603E+02  0.315186220E+00  0.135512729E+01
   H  0.135946067E+02 -0.922846221E+00 -0.109200392E+01
     4
 # iter = 37500  time[fs]=37.50000
   C -0.266970916E+01 -0.248926365E-01 -0.425274779E-01
   C  0.246820338E+01  0.410044845E-01  0.104148377E-01
   H -0.144812042E+02  0.324711104E+00  0.139357007E+01
   H  0.139665946E+02 -0.947726280E+00 -0.112224797E+01
     4
 # iter = 38000  time[fs]=38.00000
   C -0.274840429E+01 -0.254307728E-01 -0.438504644E-01
   C  0.254066455E+01  0.432836350E-01  0.119385653E-01
   H -0.148700663E+02  0.334257562E+00  0.143210071E+01
   H  0.143394375E+02 -0.972670003E+00 -0.115256689E+01
     4
 # iter = 38500  time[fs]=38.50000
   C -0.282755243E+01 -0.259751130E-01 -0.451820935E-01
   C  0.261357581E+01  0.455723209E-01  0.134699092E-01
   H -0.152597046E+02  0.343824524E+00  0.147071482E+01
   H  0.147130919E+02 -0.997674204E+00 -0.118295696E+01
     4
 # iter = 39000  time[fs]=39.00000
   C -0.290712847E+01 -0.265253915E-01 -0.465220223E-01
   C  0.268691217E+01  0.478701129E-01  0.150085799E-01
   H -0.156500804E+02  0.353410998E+00  0.150940832E+01
   H  0.150875174E+02 -0.102273593E+01 -0.121341474E+01
     4
 # iter = 39500  time[fs]=39.50000
   C -0.298710918E+01 -0.270813567E-01 -0.478699245E-01
   C  0.276065052E+01  0.501766076E-01  0.165543008E-01
   H -0.160411577E+02  0.363016060E+00  0.154817740E+01
   H  0.154626764E+02 -0.104785244E+01 -0.124393702E+01
     4
 # iter = 40000  time[fs]=40.00000
   C -0.306747305E+01 -0.276427702E-01 -0.492254898E-01
   C  0.283476948E+01  0.524914257E-01  0.181068072E-01
   H -0.164329030E+02  0.372638850E+00  0.158701853E+01
   H  0.158385341E+02 -0.107302118E+01 -0.127452083E+01
     4
 # iter = 40500  time[fs]=40.50000
   C -0.314820016E+01 -0.282094069E-01 -0.505884232E-01
   C  0.290924925E+01  0.548142099E-01  0.196658466E-01
   H -0.168252850E+02  0.382278566E+00  0.162592841E+01
   H  0.162150579E+02 -0.109823976E+01 -0.130516336E+01
     4
 # iter = 41000  time[fs]=41.00000
   C -0.322927201E+01 -0.287810533E-01 -0.519584441E-01
   C  0.298407140E+01  0.571446240E-01  0.212311779E-01
   H -0.172182748E+02  0.391934459E+00  0.166490398E+01
   H  0.165922174E+02 -0.112350596E+01 -0.133586203E+01
     4
 # iter = 41500  time[fs]=41.50000
   C -0.331067139E+01 -0.293575075E-01 -0.533352856E-01
   C  0.305921885E+01  0.594823511E-01  0.228025709E-01
   H -0.176118451E+02  0.401605828E+00  0.170394235E+01
   H  0.169699844E+02 -0.114881769E+01 -0.136661440E+01
     4
 # iter = 42000  time[fs]=42.00000
   C -0.339238230E+01 -0.299385785E-01 -0.547186941E-01
   C  0.313467567E+01  0.618270922E-01  0.243798063E-01
   H -0.180059705E+02  0.411292014E+00  0.174304083E+01
   H  0.173483323E+02 -0.117417301E+01 -0.139741818E+01
     4
 # iter = 42500  time[fs]=42.50000
   C -0.347438979E+01 -0.305240849E-01 -0.561084281E-01
   C  0.321042702E+01  0.641785653E-01  0.259626748E-01
   H -0.184006273E+02  0.420992403E+00  0.178219689E+01
   H  0.177272363E+02 -0.119957009E+01 -0.142827124E+01
     4
 # iter = 43000  time[fs]=43.00000
   C -0.355667994E+01 -0.311138552E-01 -0.575042583E-01
   C  0.328645906E+01  0.665365038E-01  0.275509768E-01
   H -0.187957930E+02  0.430706413E+00  0.182140816E+01
   H  0.181066730E+02 -0.122500722E+01 -0.145917155E+01
     4
 # iter = 43500  time[fs]=43.50000
   C -0.363923973E+01 -0.317077267E-01 -0.589059661E-01
   C  0.336275883E+01  0.689006559E-01  0.291445219E-01
   H -0.191914467E+02  0.440433502E+00  0.186067242E+01
   H  0.184866204E+02 -0.125048277E+01 -0.149011724E+01
     4
 # iter = 44000  time[fs]=44.00000
   C -0.372205698E+01 -0.323055450E-01 -0.603133437E-01
   C  0.343931422E+01  0.712707835E-01  0.307431286E-01
   H -0.195875687E+02  0.450173155E+00  0.189998755E+01
   H  0.188670581E+02 -0.127599522E+01 -0.152110650E+01
     4
 # iter = 44500  time[fs]=44.50000
   C -0.380512025E+01 -0.329071638E-01 -0.617261930E-01
   C  0.351611389E+01  0.736466609E-01  0.323466235E-01
   H -0.199841404E+02  0.459924890E+00  0.193935160E+01
   H  0.192479665E+02 -0.130154315E+01 -0.155213767E+01
     4
 # iter = 45000  time[fs]=45.00000
   C -0.388841886E+01 -0.335124439E-01 -0.631443255E-01
   C  0.359314720E+01  0.760280747E-01  0.339548415E-01
   H -0.203811443E+02  0.469688248E+00  0.197876268E+01
   H  0.196293275E+02 -0.132712521E+01 -0.158320916E+01
     4
 # iter = 45500  time[fs]=45.50000
   C -0.397194275E+01 -0.341212533E-01 -0.645675616E-01
   C  0.367040416E+01  0.784148223E-01  0.355676246E-01
   H -0.207785639E+02  0.479462800E+00  0.201821904E+01
   H  0.200111237E+02 -0.135274011E+01 -0.161431946E+01
     4
 # iter = 46000  time[fs]=46.00000
   C -0.405568247E+01 -0.347334664E-01 -0.659957298E-01
   C  0.374787538E+01  0.808067115E-01  0.371848222E-01
   H -0.211763835E+02  0.489248137E+00  0.205771901E+01
   H  0.203933388E+02 -0.137838665E+01 -0.164546717E+01
     4
 # iter = 46500  time[fs]=46.50000
   C -0.413962913E+01 -0.353489640E-01 -0.674286668E-01
   C  0.382555202E+01  0.832035601E-01  0.388062904E-01
   H -0.215745885E+02  0.499043872E+00  0.209726102E+01
   H  0.207759575E+02 -0.140406369E+01 -0.167665093E+01
     4
 # iter = 47000  time[fs]=47.00000
   C -0.422377435E+01 -0.359676324E-01 -0.688662166E-01
   C  0.390342577E+01  0.856051948E-01  0.404318916E-01
   H -0.219731648E+02  0.508849641E+00  0.213684357E+01
   H  0.211589650E+02 -0.142977015E+01 -0.170786948E+01
     4
 # iter = 47500  time[fs]=47.50000
   C -0.430811023E+01 -0.365893635E-01 -0.703082303E-01
   C  0.398148877E+01  0.880114508E-01  0.420614943E-01
   H -0.223720993E+02  0.518665095E+00  0.217646524E+01
   H  0.215423476E+02 -0.145550500E+01 -0.173912160E+01
     4
 # iter = 48000  time[fs]=48.00000
   C -0.439262933E+01 -0.372140542E-01 -0.717545659E-01
   C  0.405973362E+01  0.904221715E-01  0.436949730E-01
   H -0.227713794E+02  0.528489904E+00  0.221612470E+01
   H  0.219260922E+02 -0.148126726E+01 -0.177040616E+01
     4
 # iter = 48500  time[fs]=48.50000
   C -0.447732460E+01 -0.378416065E-01 -0.732050874E-01
   C  0.413815332E+01  0.928372078E-01  0.453322073E-01
   H -0.231709933E+02  0.538323757E+00  0.225582067E+01
   H  0.223101863E+02 -0.150705601E+01 -0.180172206E+01
     4
 # iter = 49000  time[fs]=49.00000
   C -0.456218938E+01 -0.384719267E-01 -0.746596649E-01
   C  0.421674127E+01  0.952564176E-01  0.469730821E-01
   H -0.235709295E+02  0.548166354E+00  0.229555193E+01
   H  0.226946180E+02 -0.153287038E+01 -0.183306826E+01
     4
 # iter = 49500  time[fs]=49.50000
   C -0.464721737E+01 -0.391049255E-01 -0.761181742E-01
   C  0.429549119E+01  0.976796655E-01  0.486174873E-01
   H -0.239711774E+02  0.558017413E+00  0.233531733E+01
   H  0.230793762E+02 -0.155870952E+01 -0.186444379E+01
     4
 # iter = 50000  time[fs]=50.00000
   C -0.473240261E+01 -0.397405176E-01 -0.775804964E-01
   C  0.437439717E+01  0.100106822E+00  0.502653174E-01
   H -0.243717267E+02  0.567876663E+00  0.237511577E+01
   H  0.234644502E+02 -0.158457263E+01 -0.189584771E+01
     4
 # iter = 50500  time[fs]=50.50000
   C -0.481773943E+01 -0.403786215E-01 -0.790465177E-01
   C  0.445345359E+01  0.102537765E+00  0.519164712E-01
   H -0.247725678E+02  0.577743847E+00  0.241494621E+01
   H  0.238498296E+02 -0.161045897E+01 -0.192727912E+01
     4
 # iter = 51000  time[fs]=51.00000
   C -0.490322248E+01 -0.410191595E-01 -0.805161291E-01
   C  0.453265510E+01  0.104972375E+00  0.535708518E-01
   H -0.251736912E+02  0.587618719E+00  0.245480764E+01
   H  0.242355049E+02 -0.163636780E+01 -0.195873716E+01
     4
 # iter = 51500  time[fs]=51.50000
   C -0.498884664E+01 -0.416620571E-01 -0.819892260E-01
   C  0.461199665E+01  0.107410540E+00  0.552283662E-01
   H -0.255750883E+02  0.597501045E+00  0.249469911E+01
   H  0.246214668E+02 -0.166229844E+01 -0.199022102E+01
     4
 # iter = 52000  time[fs]=52.00000
   C -0.507460708E+01 -0.423072430E-01 -0.834657083E-01
   C  0.469147342E+01  0.109852154E+00  0.568889253E-01
   H -0.259767504E+02  0.607390601E+00  0.253461972E+01
   H  0.250077065E+02 -0.168825022E+01 -0.202172993E+01
     4
 # iter = 52500  time[fs]=52.50000
   C -0.516049918E+01 -0.429546492E-01 -0.849454799E-01
   C  0.477108085E+01  0.112297112E+00  0.585524434E-01
   H -0.263786697E+02  0.617287173E+00  0.257456859E+01
   H  0.253942154E+02 -0.171422251E+01 -0.205326314E+01
     4
 # iter = 53000  time[fs]=53.00000
   C -0.524651857E+01 -0.436042102E-01 -0.864284485E-01
   C  0.485081457E+01  0.114745317E+00  0.602188383E-01
   H -0.267808383E+02  0.627190557E+00  0.261454489E+01
   H  0.257809855E+02 -0.174021471E+01 -0.208481993E+01
     4
 # iter = 53500  time[fs]=53.50000
   C -0.533266107E+01 -0.442558636E-01 -0.879145257E-01
   C  0.493067043E+01  0.117196674E+00  0.618880310E-01
   H -0.271832490E+02  0.637100556E+00  0.265454783E+01
   H  0.261680092E+02 -0.176622625E+01 -0.211639964E+01
     4
 # iter = 54000  time[fs]=54.00000
   C -0.541892269E+01 -0.449095494E-01 -0.894036265E-01
   C  0.501064450E+01  0.119651093E+00  0.635599457E-01
   H -0.275858946E+02  0.647016982E+00  0.269457664E+01
   H  0.265552791E+02 -0.179225656E+01 -0.214800160E+01
     4
 # iter = 54500  time[fs]=54.50000
   C -0.550529965E+01 -0.455652101E-01 -0.908956690E-01
   C  0.509073299E+01  0.122108487E+00  0.652345094E-01
   H -0.279887684E+02  0.656939656E+00  0.273463060E+01
   H  0.269427880E+02 -0.181830513E+01 -0.217962519E+01
     4
 # iter = 55000  time[fs]=55.00000
   C -0.559178832E+01 -0.462227904E-01 -0.923905748E-01
   C  0.517093231E+01  0.124568773E+00  0.669116519E-01
   H -0.283918640E+02  0.666868405E+00  0.277470900E+01
   H  0.273305292E+02 -0.184437144E+01 -0.221126981E+01
     4
 # iter = 55500  time[fs]=55.50000
   C -0.567838524E+01 -0.468822374E-01 -0.938882683E-01
   C  0.525123903E+01  0.127031872E+00  0.685913055E-01
   H -0.287951751E+02  0.676803064E+00  0.281481118E+01
   H  0.277184962E+02 -0.187045501E+01 -0.224293489E+01
     4
 # iter = 56000  time[fs]=56.00000
   C -0.576508710E+01 -0.475435001E-01 -0.953886767E-01
   C  0.533164986E+01  0.129497706E+00  0.702734054E-01
   H -0.291986959E+02  0.686743475E+00  0.285493649E+01
   H  0.281066828E+02 -0.189655537E+01 -0.227461988E+01
     4
 # iter = 56500  time[fs]=56.50000
   C -0.585189074E+01 -0.482065298E-01 -0.968917302E-01
   C  0.541216167E+01  0.131966202E+00  0.719578889E-01
   H -0.296024206E+02  0.696689483E+00  0.289508431E+01
   H  0.284950831E+02 -0.192267206E+01 -0.230632424E+01
     4
 # iter = 57000  time[fs]=57.00000
   C -0.593879315E+01 -0.488712792E-01 -0.983973613E-01
   C  0.549277145E+01  0.134437289E+00  0.736446957E-01
   H -0.300063437E+02  0.706640944E+00  0.293525404E+01
   H  0.288836912E+02 -0.194880467E+01 -0.233804747E+01
     4
 # iter = 57500  time[fs]=57.50000
   C -0.602579142E+01 -0.495377033E-01 -0.999055051E-01
   C  0.557347632E+01  0.136910900E+00  0.753337677E-01
   H -0.304104600E+02  0.716597715E+00  0.297544513E+01
   H  0.292725017E+02 -0.197495277E+01 -0.236978907E+01
     4
 # iter = 58000  time[fs]=58.00000
   C -0.611288279E+01 -0.502057584E-01 -0.101416099E+00
   C  0.565427355E+01  0.139386968E+00  0.770250488E-01
   H -0.308147644E+02  0.726559661E+00  0.301565701E+01
   H  0.296615093E+02 -0.200111598E+01 -0.240154858E+01
     4
 # iter = 58500  time[fs]=58.50000
   C -0.620006459E+01 -0.508754027E-01 -0.102929083E+00
   C  0.573516048E+01  0.141865432E+00  0.787184849E-01
   H -0.312192521E+02  0.736526652E+00  0.305588917E+01
   H  0.300507089E+02 -0.202729389E+01 -0.243332554E+01
     4
 # iter = 59000  time[fs]=59.00000
   C -0.628733427E+01 -0.515465958E-01 -0.104444398E+00
   C  0.581613459E+01  0.144346229E+00  0.804140240E-01
   H -0.316239184E+02  0.746498563E+00  0.309614108E+01
   H  0.304400956E+02 -0.205348615E+01 -0.246511952E+01
     4
 # iter = 59500  time[fs]=59.50000
   C -0.637468941E+01 -0.522192990E-01 -0.105961989E+00
   C  0.589719346E+01  0.146829303E+00  0.821116156E-01
   H -0.320287588E+02  0.756475271E+00  0.313641227E+01
   H  0.308296646E+02 -0.207969240E+01 -0.249693009E+01
     4
 # iter = 60000  time[fs]=60.00000
   C -0.646212764E+01 -0.528934746E-01 -0.107481802E+00
   C  0.597833475E+01  0.149314597E+00  0.838112112E-01
   H -0.324337689E+02  0.766456661E+00  0.317670226E+01
   H  0.312194115E+02 -0.210591229E+01 -0.252875686E+01
     4
 # iter = 60500  time[fs]=60.50000
   C -0.654964671E+01 -0.535690866E-01 -0.109003783E+00
   C  0.605955623E+01  0.151802055E+00  0.855127638E-01
   H -0.328389446E+02  0.776442620E+00  0.321701059E+01
   H  0.316093319E+02 -0.213214550E+01 -0.256059943E+01
     4
 # iter = 61000  time[fs]=61.00000
   C -0.663724446E+01 -0.542461001E-01 -0.110527883E+00
   C  0.614085574E+01  0.154291627E+00  0.872162281E-01
   H -0.332442818E+02  0.786433039E+00  0.325733683E+01
   H  0.319994214E+02 -0.215839171E+01 -0.259245742E+01
     4
 # iter = 61500  time[fs]=61.50000
   C -0.672491881E+01 -0.549244815E-01 -0.112054052E+00
   C  0.622223123E+01  0.156783261E+00  0.889215601E-01
   H -0.336497767E+02  0.796427814E+00  0.329768055E+01
   H  0.323896762E+02 -0.218465062E+01 -0.262433047E+01
     4
 # iter = 62000  time[fs]=62.00000
   C -0.681266776E+01 -0.556041984E-01 -0.113582244E+00
   C  0.630368071E+01  0.159276909E+00  0.906287177E-01
   H -0.340554256E+02  0.806426844E+00  0.333804135E+01
   H  0.327800922E+02 -0.221092191E+01 -0.265621823E+01
     4
 # iter = 62500  time[fs]=62.50000
   C -0.690048937E+01 -0.562852194E-01 -0.115112413E+00
   C  0.638520225E+01  0.161772524E+00  0.923376596E-01
   H -0.344612247E+02  0.816430030E+00  0.337841882E+01
   H  0.331706656E+02 -0.223720532E+01 -0.268812037E+01
     4
 # iter = 63000  time[fs]=63.00000
   C -0.698838180E+01 -0.569675141E-01 -0.116644515E+00
   C  0.646679403E+01  0.164270060E+00  0.940483463E-01
   H -0.348671707E+02  0.826437280E+00  0.341881260E+01
   H  0.335613929E+02 -0.226350055E+01 -0.272003655E+01
     4
 # iter = 63500  time[fs]=63.50000
   C -0.707634326E+01 -0.576510535E-01 -0.118178506E+00
   C  0.654845427E+01  0.166769473E+00  0.957607394E-01
   H -0.352732601E+02  0.836448501E+00  0.345922231E+01
   H  0.339522704E+02 -0.228980735E+01 -0.275196645E+01
     4
 # iter = 64000  time[fs]=64.00000
   C -0.716437203E+01 -0.583358091E-01 -0.119714346E+00
   C  0.663018127E+01  0.169270721E+00  0.974748018E-01
   H -0.356794897E+02  0.846463605E+00  0.349964759E+01
   H  0.343432948E+02 -0.231612546E+01 -0.278390978E+01
     4
 # iter = 64500  time[fs]=64.50000
   C -0.725246645E+01 -0.590217537E-01 -0.121251995E+00
   C  0.671197337E+01  0.171773763E+00  0.991904973E-01
   H -0.360858563E+02  0.856482508E+00  0.354008810E+01
   H  0.347344627E+02 -0.234245462E+01 -0.281586624E+01
     4
 # iter = 65000  time[fs]=65.00000
   C -0.734062492E+01 -0.597088606E-01 -0.122791413E+00
   C  0.679382900E+01  0.174278559E+00  0.100907791E+00
   H -0.364923570E+02  0.866505127E+00  0.358054351E+01
   H  0.351257710E+02 -0.236879460E+01 -0.284783553E+01
     4
 # iter = 65500  time[fs]=65.50000
   C -0.742884591E+01 -0.603971045E-01 -0.124332564E+00
   C  0.687574661E+01  0.176785070E+00  0.102626650E+00
   H -0.368989887E+02  0.876531381E+00  0.362101350E+01
   H  0.355172166E+02 -0.239514516E+01 -0.287981739E+01
     4
 # iter = 66000  time[fs]=66.00000
   C -0.751712791E+01 -0.610864604E-01 -0.125875411E+00
   C  0.695772474E+01  0.179293260E+00  0.104347040E+00
   H -0.373057486E+02  0.886561194E+00  0.366149775E+01
   H  0.359087965E+02 -0.242150607E+01 -0.291181154E+01
     4
 # iter = 66500  time[fs]=66.50000
   C -0.760546949E+01 -0.617769043E-01 -0.127419918E+00
   C  0.703976196E+01  0.181803092E+00  0.106068930E+00
   H -0.377126340E+02  0.896594491E+00  0.370199596E+01
   H  0.363005078E+02 -0.244787712E+01 -0.294381773E+01
     4
 # iter = 67000  time[fs]=67.00000
   C -0.769386928E+01 -0.624684130E-01 -0.128966052E+00
   C  0.712185688E+01  0.184314532E+00  0.107792290E+00
   H -0.381196421E+02  0.906631199E+00  0.374250784E+01
   H  0.366923478E+02 -0.247425809E+01 -0.297583571E+01
     4
 # iter = 67500  time[fs]=67.50000
   C -0.778232591E+01 -0.631609641E-01 -0.130513779E+00
   C  0.720400819E+01  0.186827545E+00  0.109517089E+00
   H -0.385267705E+02  0.916671248E+00  0.378303310E+01
   H  0.370843136E+02 -0.250064878E+01 -0.300786522E+01
     4
 # iter = 68000  time[fs]=68.00000
   C -0.787083810E+01 -0.638545355E-01 -0.132063067E+00
   C  0.728621458E+01  0.189342099E+00  0.111243299E+00
   H -0.389340165E+02  0.926714569E+00  0.382357148E+01
   H  0.374764027E+02 -0.252704898E+01 -0.303990603E+01
     4
 # iter = 68500  time[fs]=68.50000
   C -0.795940460E+01 -0.645491062E-01 -0.133613884E+00
   C  0.736847483E+01  0.191858162E+00  0.112970891E+00
   H -0.393413778E+02  0.936761097E+00  0.386412270E+01
   H  0.378686125E+02 -0.255345851E+01 -0.307195793E+01
     4
 # iter = 69000  time[fs]=69.00000
   C -0.804802419E+01 -0.652446557E-01 -0.135166201E+00
   C  0.745078772E+01  0.194375703E+00  0.114699837E+00
   H -0.397488520E+02  0.946810767E+00  0.390468651E+01
   H  0.382609406E+02 -0.257987717E+01 -0.310402067E+01
     4
 # iter = 69500  time[fs]=69.50000
   C -0.813669570E+01 -0.659411640E-01 -0.136719988E+00
   C  0.753315209E+01  0.196894693E+00  0.116430112E+00
   H -0.401564368E+02  0.956863518E+00  0.394526265E+01
   H  0.386533845E+02 -0.260630479E+01 -0.313609405E+01
     4
 # iter = 70000  time[fs]=70.00000
   C -0.822541799E+01 -0.666386118E-01 -0.138275216E+00
   C  0.761556682E+01  0.199415101E+00  0.118161690E+00
   H -0.405641300E+02  0.966919288E+00  0.398585088E+01
   H  0.390459420E+02 -0.263274118E+01 -0.316817785E+01
     4
 # iter = 70500  time[fs]=70.50000
   C -0.831418997E+01 -0.673369804E-01 -0.139831858E+00
   C  0.769803081E+01  0.201936901E+00  0.119894546E+00
   H -0.409719294E+02  0.976978019E+00  0.402645096E+01
   H  0.394386107E+02 -0.265918618E+01 -0.320027188E+01
     4
 # iter = 71000  time[fs]=71.00000
   C -0.840301058E+01 -0.680362515E-01 -0.141389887E+00
   C  0.778054302E+01  0.204460065E+00  0.121628654E+00
   H -0.413798330E+02  0.987039654E+00  0.406706268E+01
   H  0.398313886E+02 -0.268563962E+01 -0.323237594E+01
     4
 # iter = 71500  time[fs]=71.50000
   C -0.849187877E+01 -0.687364074E-01 -0.142949275E+00
   C  0.786310241E+01  0.206984565E+00  0.123363993E+00
   H -0.417878388E+02  0.997104138E+00  0.410768579E+01
   H  0.402242734E+02 -0.271210133E+01 -0.326448983E+01
     4
 # iter = 72000  time[fs]=72.00000
   C -0.858079355E+01 -0.694374311E-01 -0.144509999E+00
   C  0.794570799E+01  0.209510378E+00  0.125100538E+00
   H -0.421959447E+02  0.100717142E+01  0.414832009E+01
   H  0.406172632E+02 -0.273857116E+01 -0.329661336E+01
     4
 # iter = 72500  time[fs]=72.50000
   C -0.866975395E+01 -0.701393057E-01 -0.146072032E+00
   C  0.802835882E+01  0.212037476E+00  0.126838267E+00
   H -0.426041489E+02  0.101724144E+01  0.418896536E+01
   H  0.410103558E+02 -0.276504896E+01 -0.332874636E+01
     4
 # iter = 73000  time[fs]=73.00000
   C -0.875875904E+01 -0.708420151E-01 -0.147635351E+00
   C  0.811105394E+01  0.214565837E+00  0.128577158E+00
   H -0.430124494E+02  0.102731415E+01  0.422962141E+01
   H  0.414035495E+02 -0.279153458E+01 -0.336088866E+01
     4
 # iter = 73500  time[fs]=73.50000
   C -0.884780790E+01 -0.715455434E-01 -0.149199933E+00
   C  0.819379246E+01  0.217095435E+00  0.130317191E+00
   H -0.434208446E+02  0.103738951E+01  0.427028802E+01
   H  0.417968421E+02 -0.281802787E+01 -0.339304007E+01
     4
 # iter = 74000  time[fs]=74.00000
   C -0.893689965E+01 -0.722498755E-01 -0.150765753E+00
   C  0.827657351E+01  0.219626249E+00  0.132058344E+00
   H -0.438293325E+02  0.104746745E+01  0.431096501E+01
   H  0.421902320E+02 -0.284452870E+01 -0.342520043E+01
     4
 # iter = 74500  time[fs]=74.50000
   C -0.902603342E+01 -0.729549963E-01 -0.152332791E+00
   C  0.835939622E+01  0.222158256E+00  0.133800598E+00
   H -0.442379116E+02  0.105754795E+01  0.435165219E+01
   H  0.425837173E+02 -0.287103692E+01 -0.345736958E+01
     4
 # iter = 75000  time[fs]=75.00000
   C -0.911520840E+01 -0.736608913E-01 -0.153901025E+00
   C  0.844225978E+01  0.224691434E+00  0.135543933E+00
   H -0.446465802E+02  0.106763095E+01  0.439234938E+01
   H  0.429772963E+02 -0.289755240E+01 -0.348954737E+01
     4
 # iter = 75500  time[fs]=75.50000
   C -0.920442376E+01 -0.743675464E-01 -0.155470432E+00
   C  0.852516338E+01  0.227225761E+00  0.137288330E+00
   H -0.450553365E+02  0.107771641E+01  0.443305640E+01
   H  0.433709673E+02 -0.292407502E+01 -0.352173363E+01
     4
 # iter = 76000  time[fs]=76.00000
   C -0.929367872E+01 -0.750749480E-01 -0.157040994E+00
   C  0.860810625E+01  0.229761218E+00  0.139033770E+00
   H -0.454641792E+02  0.108780427E+01  0.447377306E+01
   H  0.437647287E+02 -0.295060464E+01 -0.355392822E+01
     4
 # iter = 76500  time[fs]=76.50000
   C -0.938297252E+01 -0.757830825E-01 -0.158612689E+00
   C  0.869108761E+01  0.232297783E+00  0.140780235E+00
   H -0.458731066E+02  0.109789452E+01  0.451449922E+01
   H  0.441585787E+02 -0.297714115E+01 -0.358613100E+01
     4
 # iter = 77000  time[fs]=77.00000
   C -0.947230442E+01 -0.764919370E-01 -0.160185498E+00
   C  0.877410675E+01  0.234835438E+00  0.142527708E+00
   H -0.462821172E+02  0.110798709E+01  0.455523469E+01
   H  0.445525160E+02 -0.300368442E+01 -0.361834181E+01
     4
 # iter = 77500  time[fs]=77.50000
   C -0.956167370E+01 -0.772014988E-01 -0.161759403E+00
   C  0.885716295E+01  0.237374164E+00  0.144276172E+00
   H -0.466912095E+02  0.111808195E+01  0.459597932E+01
   H  0.449465388E+02 -0.303023434E+01 -0.365056053E+01
     4
 # iter = 78000  time[fs]=78.00000
   C -0.965107965E+01 -0.779117555E-01 -0.163334384E+00
   C  0.894025550E+01  0.239913941E+00  0.146025609E+00
   H -0.471003823E+02  0.112817907E+01  0.463673295E+01
   H  0.453406459E+02 -0.305679080E+01 -0.368278702E+01
     4
 # iter = 78500  time[fs]=78.50000
   C -0.974052160E+01 -0.786226950E-01 -0.164910424E+00
   C  0.902338374E+01  0.242454752E+00  0.147776004E+00
   H -0.475096340E+02  0.113827840E+01  0.467749544E+01
   H  0.457348356E+02 -0.308335368E+01 -0.371502114E+01
     4
 # iter = 79000  time[fs]=79.00000
   C -0.982999887E+01 -0.793343057E-01 -0.166487505E+00
   C  0.910654699E+01  0.244996579E+00  0.149527340E+00
   H -0.479189634E+02  0.114837991E+01  0.471826662E+01
   H  0.461291067E+02 -0.310992287E+01 -0.374726277E+01
     4
 # iter = 79500  time[fs]=79.50000
   C -0.991951083E+01 -0.800465762E-01 -0.168065609E+00
   C  0.918974464E+01  0.247539404E+00  0.151279602E+00
   H -0.483283691E+02  0.115848356E+01  0.475904636E+01
   H  0.465234577E+02 -0.313649827E+01 -0.377951179E+01
     4
 # iter = 80000  time[fs]=80.00000
   C -0.100090568E+02 -0.807594951E-01 -0.169644720E+00
   C  0.927297604E+01  0.250083212E+00  0.153032775E+00
   H -0.487378499E+02  0.116858931E+01  0.479983452E+01
   H  0.469178873E+02 -0.316307979E+01 -0.381176807E+01
