     4
 # iter = 25000  time[fs]=25.00000
   C -0.989832309E+00 -0.375729592E-01  0.158648623E-02
   C  0.100866645E+01  0.352653333E-01 -0.278554583E-01
   H -0.526285032E+01  0.806620300E+00  0.557994869E+00
   H  0.525895189E+01 -0.753016500E+00 -0.537726696E+00
     4
 # iter = 25500  time[fs]=25.50000
   C -0.103676940E+01 -0.420895845E-01 -0.635036442E-04
   C  0.105281502E+01  0.383579441E-01 -0.263631268E-01
   H -0.558942313E+01  0.856229531E+00  0.591599556E+00
   H  0.557290491E+01 -0.802955041E+00 -0.570818198E+00
     4
 # iter = 26000  time[fs]=26.00000
   C -0.108789656E+01 -0.467878403E-01 -0.167093277E-02
   C  0.110114949E+01  0.416309412E-01 -0.249145372E-01
   H -0.591856855E+01  0.906277052E+00  0.625503664E+00
   H  0.588948077E+01 -0.853316941E+00 -0.604194947E+00
     4
 # iter = 26500  time[fs]=26.50000
   C -0.114284382E+01 -0.516584253E-01 -0.324689439E-02
   C  0.115329989E+01  0.450753498E-01 -0.234983209E-01
   H -0.625000551E+01  0.956714764E+00  0.659673894E+00
   H  0.620839796E+01 -0.904058021E+00 -0.637826948E+00
     4
 # iter = 27000  time[fs]=27.00000
   C -0.120126417E+01 -0.566914879E-01 -0.480042828E-02
   C  0.120891934E+01  0.486815663E-01 -0.221052273E-01
   H -0.658349612E+01  0.100750222E+01  0.694082261E+00
   H  0.652941741E+01 -0.955140805E+00 -0.671688748E+00
     4
 # iter = 27500  time[fs]=27.50000
   C -0.126283708E+01 -0.618769863E-01 -0.633878599E-02
   C  0.126768743E+01  0.524397387E-01 -0.207278416E-01
   H -0.691883727E+01  0.105860506E+01  0.728705019E+00
   H  0.685233446E+01 -0.100653321E+01 -0.705758557E+00
     4
 # iter = 28000  time[fs]=28.00000
   C -0.132726973E+01 -0.672049698E-01 -0.786770878E-02
   C  0.132931149E+01  0.563400635E-01 -0.193602951E-01
   H -0.725585424E+01  0.110999383E+01  0.763521835E+00
   H  0.717697259E+01 -0.105820757E+01 -0.740017573E+00
     4
 # iter = 28500  time[fs]=28.50000
   C -0.139429678E+01 -0.726657846E-01 -0.939169032E-02
   C  0.139352633E+01  0.603730012E-01 -0.179979939E-01
   H -0.759439569E+01  0.116164310E+01  0.798515170E+00
   H  0.750317855E+01 -0.111013980E+01 -0.774449460E+00
     4
 # iter = 29000  time[fs]=29.00000
   C -0.146367913E+01 -0.782502122E-01 -0.109142105E-01
   C  0.146009303E+01  0.645294228E-01 -0.166373783E-01
   H -0.793432969E+01  0.121353074E+01  0.833669780E+00
   H  0.783081845E+01 -0.116230885E+01 -0.809039929E+00
     4
 # iter = 29500  time[fs]=29.50000
   C -0.153520220E+01 -0.839495533E-01 -0.124379355E-01
   C  0.152879714E+01  0.688006996E-01 -0.152757189E-01
   H -0.827554055E+01  0.126563737E+01  0.868972334E+00
   H  0.815977469E+01 -0.121469619E+01 -0.843776412E+00
     4
 # iter = 30000  time[fs]=30.00000
   C -0.160867381E+01 -0.897556720E-01 -0.139648842E-01
   C  0.159944668E+01  0.731787509E-01 -0.139109459E-01
   H -0.861792631E+01  0.131794591E+01  0.904411105E+00
   H  0.848994341E+01 -0.126728540E+01 -0.878647791E+00
     4
 # iter = 30500  time[fs]=30.50000
   C -0.168392212E+01 -0.956610088E-01 -0.154965643E-01
   C  0.167186993E+01  0.776560610E-01 -0.125415105E-01
   H -0.896139662E+01  0.137044124E+01  0.939975719E+00
   H  0.882123245E+01 -0.132006189E+01 -0.913644184E+00
     4
 # iter = 31000  time[fs]=31.00000
   C -0.176079350E+01 -0.101658573E+00 -0.170340823E-01
   C  0.174591342E+01  0.822256741E-01 -0.111662733E-01
   H -0.930587108E+01  0.142310989E+01  0.975656956E+00
   H  0.915355968E+01 -0.137301262E+01 -0.948756766E+00
     4
 # iter = 31500  time[fs]=31.50000
   C -0.183915061E+01 -0.107741924E+00 -0.185782308E-01
   C  0.182143993E+01  0.868811756E-01 -0.978441508E-02
   H -0.965127785E+01  0.147593984E+01  0.101144658E+01
   H  0.948685159E+01 -0.142612586E+01 -0.983977624E+00
     4
 # iter = 32000  time[fs]=32.00000
   C -0.191887051E+01 -0.113905138E+00 -0.201295582E-01
   C  0.189832667E+01  0.916166642E-01 -0.839536568E-02
   H -0.999755246E+01  0.152892027E+01  0.104733721E+01
   H  0.982104215E+01 -0.147939107E+01 -0.101929963E+01
     4
 # iter = 32500  time[fs]=32.50000
   C -0.199984308E+01 -0.120142778E+00 -0.216884237E-01
   C  0.197646364E+01  0.964267193E-01 -0.699874851E-02
   H -0.103446368E+02  0.158204144E+01  0.108332220E+01
   H  0.101560718E+02 -0.153279871E+01 -0.105471636E+01
     4
 # iter = 33000  time[fs]=33.00000
   C -0.208196953E+01 -0.126449856E+00 -0.232550402E-01
   C  0.205575215E+01  0.101306366E+00 -0.559433637E-02
   H -0.106924785E+02  0.163529454E+01  0.111939554E+01
   H  0.104918868E+02 -0.158634011E+01 -0.109022196E+01
     4
 # iter = 33500  time[fs]=33.50000
   C -0.216516106E+01 -0.132821800E+00 -0.248295087E-01
   C  0.213610353E+01  0.106251041E+00 -0.418201698E-02
   H -0.110410300E+02  0.168867157E+01  0.115555178E+01
   H  0.108284381E+02 -0.164000740E+01 -0.112581113E+01
     4
 # iter = 34000  time[fs]=34.00000
   C -0.224933776E+01 -0.139254415E+00 -0.264118445E-01
   C  0.221743796E+01  0.111256558E+00 -0.276176587E-02
   H -0.113902479E+02  0.174216523E+01  0.119178597E+01
   H  0.111656812E+02 -0.169379336E+01 -0.116147902E+01
     4
 # iter = 34500  time[fs]=34.50000
   C -0.233442752E+01 -0.145743853E+00 -0.280019981E-01
   C  0.229968343E+01  0.116319072E+00 -0.133362516E-02
   H -0.117400929E+02  0.179576888E+01  0.122809360E+01
   H  0.115035757E+02 -0.174769141E+01 -0.119722120E+01
     4
 # iter = 35000  time[fs]=35.00000
   C -0.242036518E+01 -0.152286580E+00 -0.295998716E-01
   C  0.238277488E+01  0.121435054E+00  0.102313019E-03
   H -0.120905288E+02  0.184947642E+01  0.126447052E+01
   H  0.118420843E+02 -0.180169550E+01 -0.123303362E+01
     4
 # iter = 35500  time[fs]=35.50000
   C -0.250709174E+01 -0.158879350E+00 -0.312053312E-01
   C  0.246665338E+01  0.126601261E+00  0.154591952E-02
   H -0.124415226E+02  0.190328225E+01  0.130091295E+01
   H  0.121811728E+02 -0.185580006E+01 -0.126891253E+01
     4
 # iter = 36000  time[fs]=36.00000
   C -0.259455367E+01 -0.165519177E+00 -0.328182175E-01
   C  0.255126548E+01  0.131814707E+00  0.299703832E-02
   H -0.127930440E+02  0.195718122E+01  0.133741740E+01
   H  0.125208101E+02 -0.190999994E+01 -0.130485448E+01
     4
 # iter = 36500  time[fs]=36.50000
   C -0.268270227E+01 -0.172203311E+00 -0.344383528E-01
   C  0.263656258E+01  0.137072644E+00  0.445549438E-02
   H -0.131450649E+02  0.201116857E+01  0.137398065E+01
   H  0.128609671E+02 -0.196429040E+01 -0.134085630E+01
     4
 # iter = 37000  time[fs]=37.00000
   C -0.277149322E+01 -0.178929218E+00 -0.360655473E-01
   C  0.272250041E+01  0.142372534E+00  0.592109986E-02
   H -0.134975595E+02  0.206523992E+01  0.141059974E+01
   H  0.132016172E+02 -0.201866704E+01 -0.137691503E+01
     4
 # iter = 37500  time[fs]=37.50000
   C -0.286088602E+01 -0.185694558E+00 -0.376996038E-01
   C  0.280903854E+01  0.147712039E+00  0.739365883E-02
   H -0.138505040E+02  0.211939118E+01  0.144727191E+01
   H  0.135427357E+02 -0.207312577E+01 -0.141302795E+01
     4
 # iter = 38000  time[fs]=38.00000
   C -0.295084365E+01 -0.192497168E+00 -0.393403211E-01
   C  0.289614002E+01  0.153088994E+00  0.887297097E-02
   H -0.142038761E+02  0.217361858E+01  0.148399463E+01
   H  0.138842996E+02 -0.212766279E+01 -0.144919252E+01
     4
 # iter = 38500  time[fs]=38.50000
   C -0.304133219E+01 -0.199335047E+00 -0.409874971E-01
   C  0.298377099E+01  0.158501396E+00  0.103588344E-01
   H -0.145576553E+02  0.222791860E+01  0.152076551E+01
   H  0.142262878E+02 -0.218227456E+01 -0.148540637E+01
     4
 # iter = 39000  time[fs]=39.00000
   C -0.313232049E+01 -0.206206341E+00 -0.426409303E-01
   C  0.307190035E+01  0.163947388E+00  0.118510479E-01
   H -0.149118226E+02  0.228228796E+01  0.155758236E+01
   H  0.145686804E+02 -0.223695778E+01 -0.152166730E+01
     4
 # iter = 39500  time[fs]=39.50000
   C -0.322377992E+01 -0.213109330E+00 -0.443004220E-01
   C  0.316049952E+01  0.169425248E+00  0.133494124E-01
   H -0.152663601E+02  0.233672361E+01  0.159444312E+01
   H  0.149114589E+02 -0.229170937E+01 -0.155797324E+01
     4
 # iter = 40000  time[fs]=40.00000
   C -0.331568409E+01 -0.220042415E+00 -0.459657772E-01
   C  0.324954217E+01  0.174933374E+00  0.148537324E-01
   H -0.156212511E+02  0.239122268E+01  0.163134587E+01
   H  0.152546062E+02 -0.234652642E+01 -0.159432229E+01
     4
 # iter = 40500  time[fs]=40.50000
   C -0.340800864E+01 -0.227004108E+00 -0.476368052E-01
   C  0.333900400E+01  0.180470278E+00  0.163638167E-01
   H -0.159764802E+02  0.244578250E+01  0.166828881E+01
   H  0.155981061E+02 -0.240140624E+01 -0.163071262E+01
     4
 # iter = 41000  time[fs]=41.00000
   C -0.350073107E+01 -0.233993027E+00 -0.493133208E-01
   C  0.342886253E+01  0.186034570E+00  0.178794791E-01
   H -0.163320328E+02  0.250040057E+01  0.170527026E+01
   H  0.159419435E+02 -0.245634628E+01 -0.166714254E+01
     4
 # iter = 41500  time[fs]=41.50000
   C -0.359383055E+01 -0.241007877E+00 -0.509951441E-01
   C  0.351909697E+01  0.191624957E+00  0.194005388E-01
   H -0.166878953E+02  0.255507451E+01  0.174228863E+01
   H  0.162861044E+02 -0.251134415E+01 -0.170361047E+01
     4
 # iter = 42000  time[fs]=42.00000
   C -0.368728773E+01 -0.248047454E+00 -0.526821011E-01
   C  0.360968804E+01  0.197240230E+00  0.209268207E-01
   H -0.170440550E+02  0.260980213E+01  0.177934246E+01
   H  0.166305754E+02 -0.256639759E+01 -0.174011491E+01
     4
 # iter = 42500  time[fs]=42.50000
   C -0.378108468E+01 -0.255110631E+00 -0.543740238E-01
   C  0.370061784E+01  0.202879258E+00  0.224581557E-01
   H -0.174004997E+02  0.266458132E+01  0.181643033E+01
   H  0.169753441E+02 -0.262150449E+01 -0.177665445E+01
     4
 # iter = 43000  time[fs]=43.00000
   C -0.387520471E+01 -0.262196351E+00 -0.560707501E-01
   C  0.379186969E+01  0.208540982E+00  0.239943804E-01
   H -0.177572182E+02  0.271941014E+01  0.185355094E+01
   H  0.173203987E+02 -0.267666285E+01 -0.181322776E+01
     4
 # iter = 43500  time[fs]=43.50000
   C -0.396963226E+01 -0.269303626E+00 -0.577721240E-01
   C  0.388342810E+01  0.214224412E+00  0.255353377E-01
   H -0.181141999E+02  0.277428672E+01  0.189070305E+01
   H  0.176657282E+02 -0.273187076E+01 -0.184983358E+01
     4
 # iter = 44000  time[fs]=44.00000
   C -0.406435284E+01 -0.276431527E+00 -0.594779953E-01
   C  0.397527859E+01  0.219928615E+00  0.270808759E-01
   H -0.184714347E+02  0.282920931E+01  0.192788549E+01
   H  0.180113220E+02 -0.278712646E+01 -0.188647073E+01
     4
 # iter = 44500  time[fs]=44.50000
   C -0.415935290E+01 -0.283579185E+00 -0.611882197E-01
   C  0.406740766E+01  0.225652718E+00  0.286308495E-01
   H -0.188289132E+02  0.288417625E+01  0.196509714E+01
   H  0.183571705E+02 -0.284242823E+01 -0.192313809E+01
     4
 # iter = 45000  time[fs]=45.00000
   C -0.425461979E+01 -0.290745778E+00 -0.629026585E-01
   C  0.415980266E+01  0.231395899E+00  0.301851182E-01
   H -0.191866263E+02  0.293918598E+01  0.200233697E+01
   H  0.187032642E+02 -0.289777449E+01 -0.195983460E+01
     4
 # iter = 45500  time[fs]=45.50000
   C -0.435014164E+01 -0.297930538E+00 -0.646211783E-01
   C  0.425245178E+01  0.237157383E+00  0.317435476E-01
   H -0.195445656E+02  0.299423701E+01  0.203960399E+01
   H  0.190495942E+02 -0.295316370E+01 -0.199655924E+01
     4
 # iter = 46000  time[fs]=46.00000
   C -0.444590734E+01 -0.305132735E+00 -0.663436514E-01
   C  0.434534393E+01  0.242936441E+00  0.333060083E-01
   H -0.199027230E+02  0.304932793E+01  0.207689724E+01
   H  0.193961524E+02 -0.300859443E+01 -0.203331107E+01
     4
 # iter = 46500  time[fs]=46.50000
   C -0.454190647E+01 -0.312351687E+00 -0.680699548E-01
   C  0.443846870E+01  0.248732386E+00  0.348723761E-01
   H -0.202610910E+02  0.310445740E+01  0.211421586E+01
   H  0.197429306E+02 -0.306406530E+01 -0.207008917E+01
     4
 # iter = 47000  time[fs]=47.00000
   C -0.463812921E+01 -0.319586746E+00 -0.697999707E-01
   C  0.453181632E+01  0.254544567E+00  0.364425318E-01
   H -0.206196623E+02  0.315962415E+01  0.215155897E+01
   H  0.200899215E+02 -0.311957501E+01 -0.210689268E+01
     4
 # iter = 47500  time[fs]=47.50000
   C -0.473456636E+01 -0.326837300E+00 -0.715335860E-01
   C  0.462537759E+01  0.260372372E+00  0.380163608E-01
   H -0.209784301E+02  0.321482697E+01  0.218892579E+01
   H  0.204371179E+02 -0.317512231E+01 -0.214372078E+01
     4
 # iter = 48000  time[fs]=48.00000
   C -0.483120923E+01 -0.334102772E+00 -0.732706919E-01
   C  0.471914385E+01  0.266215218E+00  0.395937532E-01
   H -0.213373879E+02  0.327006470E+01  0.222631555E+01
   H  0.207845129E+02 -0.323070602E+01 -0.218057268E+01
     4
 # iter = 48500  time[fs]=48.50000
   C -0.492804963E+01 -0.341382616E+00 -0.750111843E-01
   C  0.481310695E+01  0.272072558E+00  0.411746033E-01
   H -0.216965294E+02  0.332533626E+01  0.226372751E+01
   H  0.211321002E+02 -0.328632502E+01 -0.221744765E+01
     4
 # iter = 49000  time[fs]=49.00000
   C -0.502507986E+01 -0.348676311E+00 -0.767549631E-01
   C  0.490725918E+01  0.277943869E+00  0.427588098E-01
   H -0.220558488E+02  0.338064059E+01  0.230116098E+01
   H  0.214798735E+02 -0.334197822E+01 -0.225434498E+01
     4
 # iter = 49500  time[fs]=49.50000
   C -0.512229261E+01 -0.355983367E+00 -0.785019321E-01
   C  0.500159328E+01  0.283828658E+00  0.443462753E-01
   H -0.224153404E+02  0.343597669E+01  0.233861531E+01
   H  0.218278270E+02 -0.339766460E+01 -0.229126398E+01
     4
 # iter = 50000  time[fs]=50.00000
   C -0.521968100E+01 -0.363303318E+00 -0.802519990E-01
   C  0.509610237E+01  0.289726456E+00  0.459369060E-01
   H -0.227749988E+02  0.349134362E+01  0.237608985E+01
   H  0.221759551E+02 -0.345338318E+01 -0.232820400E+01
     4
 # iter = 50500  time[fs]=50.50000
   C -0.531723851E+01 -0.370635720E+00 -0.820050751E-01
   C  0.519077994E+01  0.295636818E+00  0.475306122E-01
   H -0.231348190E+02  0.354674046E+01  0.241358401E+01
   H  0.225242525E+02 -0.350913301E+01 -0.236516443E+01
     4
 # iter = 51000  time[fs]=51.00000
   C -0.541495895E+01 -0.377980152E+00 -0.837610752E-01
   C  0.528561984E+01  0.301559319E+00  0.491273073E-01
   H -0.234947960E+02  0.360216634E+01  0.245109720E+01
   H  0.228727141E+02 -0.356491321E+01 -0.240214468E+01
     4
 # iter = 51500  time[fs]=51.50000
   C -0.551283647E+01 -0.385336214E+00 -0.855199175E-01
   C  0.538061623E+01  0.307493557E+00  0.507269082E-01
   H -0.238549252E+02  0.365762042E+01  0.248862887E+01
   H  0.232213349E+02 -0.362072290E+01 -0.243914417E+01
     4
 # iter = 52000  time[fs]=52.00000
   C -0.561086552E+01 -0.392703523E+00 -0.872815232E-01
   C  0.547576357E+01  0.313439149E+00  0.523293351E-01
   H -0.242152022E+02  0.371310192E+01  0.252617850E+01
   H  0.235701104E+02 -0.367656127E+01 -0.247616237E+01
     4
 # iter = 52500  time[fs]=52.50000
   C -0.570904083E+01 -0.400081717E+00 -0.890458165E-01
   C  0.557105660E+01  0.319395729E+00  0.539345110E-01
   H -0.245756226E+02  0.376861006E+01  0.256374558E+01
   H  0.239190361E+02 -0.373242752E+01 -0.251319876E+01
     4
 # iter = 53000  time[fs]=53.00000
   C -0.580735737E+01 -0.407470450E+00 -0.908127247E-01
   C  0.566649033E+01  0.325362949E+00  0.555423619E-01
   H -0.249361823E+02  0.382414412E+01  0.260132963E+01
   H  0.242681077E+02 -0.378832090E+01 -0.255025283E+01
     4
 # iter = 53500  time[fs]=53.50000
   C -0.590581040E+01 -0.414869391E+00 -0.925821777E-01
   C  0.576206000E+01  0.331340475E+00  0.571528167E-01
   H -0.252968775E+02  0.387970338E+01  0.263893017E+01
   H  0.246173211E+02 -0.384424068E+01 -0.258732411E+01
     4
 # iter = 54000  time[fs]=54.00000
   C -0.600439537E+01 -0.422278223E+00 -0.943541080E-01
   C  0.585776111E+01  0.337327991E+00  0.587658067E-01
   H -0.256577044E+02  0.393528718E+01  0.267654677E+01
   H  0.249666724E+02 -0.390018617E+01 -0.262441214E+01
     4
 # iter = 54500  time[fs]=54.50000
   C -0.610310796E+01 -0.429696647E+00 -0.961284507E-01
   C  0.595358933E+01  0.343325194E+00  0.603812661E-01
   H -0.260186594E+02  0.399089487E+01  0.271417900E+01
   H  0.253161579E+02 -0.395615668E+01 -0.266151648E+01
     4
 # iter = 55000  time[fs]=55.00000
   C -0.620194407E+01 -0.437124375E+00 -0.979051432E-01
   C  0.604954057E+01  0.349331793E+00  0.619991311E-01
   H -0.263797389E+02  0.404652582E+01  0.275182644E+01
   H  0.256657739E+02 -0.401215158E+01 -0.269863671E+01
     4
 # iter = 55500  time[fs]=55.50000
   C -0.630089975E+01 -0.444561129E+00 -0.996841253E-01
   C  0.614561091E+01  0.355347512E+00  0.636193406E-01
   H -0.267409398E+02  0.410217944E+01  0.278948870E+01
   H  0.260155169E+02 -0.406817025E+01 -0.273577241E+01
     4
 # iter = 56000  time[fs]=56.00000
   C -0.639997128E+01 -0.452006648E+00 -0.101465339E+00
   C  0.624179663E+01  0.361372084E+00  0.652418353E-01
   H -0.271022588E+02  0.415785515E+01  0.282716539E+01
   H  0.263653836E+02 -0.412421209E+01 -0.277292320E+01
     4
 # iter = 56500  time[fs]=56.50000
   C -0.649915507E+01 -0.459460678E+00 -0.103248728E+00
   C  0.633809415E+01  0.367405255E+00  0.668665584E-01
   H -0.274636928E+02  0.421355240E+01  0.286485617E+01
   H  0.267153709E+02 -0.418027652E+01 -0.281008869E+01
     4
 # iter = 57000  time[fs]=57.00000
   C -0.659844771E+01 -0.466922977E+00 -0.105034238E+00
   C  0.643450007E+01  0.373446783E+00  0.684934548E-01
   H -0.278252389E+02  0.426927065E+01  0.290256066E+01
   H  0.270654756E+02 -0.423636299E+01 -0.284726853E+01
     4
 # iter = 57500  time[fs]=57.50000
   C -0.669784592E+01 -0.474393314E+00 -0.106821818E+00
   C  0.653101113E+01  0.379496433E+00  0.701224715E-01
   H -0.281868943E+02  0.432500939E+01  0.294027854E+01
   H  0.274156948E+02 -0.429247097E+01 -0.288446237E+01
     4
 # iter = 58000  time[fs]=58.00000
   C -0.679734658E+01 -0.481871466E+00 -0.108611417E+00
   C  0.662762422E+01  0.385553981E+00  0.717535574E-01
   H -0.285486562E+02  0.438076813E+01  0.297800947E+01
   H  0.277660256E+02 -0.434859994E+01 -0.292166986E+01
     4
 # iter = 58500  time[fs]=58.50000
   C -0.689694669E+01 -0.489357220E+00 -0.110402987E+00
   C  0.672433635E+01  0.391619212E+00  0.733866630E-01
   H -0.289105220E+02  0.443654638E+01  0.301575315E+01
   H  0.281164653E+02 -0.440474941E+01 -0.295889068E+01
     4
 # iter = 59000  time[fs]=59.00000
   C -0.699664340E+01 -0.496850370E+00 -0.112196480E+00
   C  0.682114466E+01  0.397691920E+00  0.750217405E-01
   H -0.292724892E+02  0.449234369E+01  0.305350926E+01
   H  0.284670112E+02 -0.446091890E+01 -0.299612452E+01
     4
 # iter = 59500  time[fs]=59.50000
   C -0.709643395E+01 -0.504350720E+00 -0.113991852E+00
   C  0.691804642E+01  0.403771907E+00  0.766587438E-01
   H -0.296345553E+02  0.454815962E+01  0.309127752E+01
   H  0.288176607E+02 -0.451710795E+01 -0.303337108E+01
     4
 # iter = 60000  time[fs]=60.00000
   C -0.719631570E+01 -0.511858081E+00 -0.115789058E+00
   C  0.701503901E+01  0.409858981E+00  0.782976284E-01
   H -0.299967179E+02  0.460399373E+01  0.312905765E+01
   H  0.291684115E+02 -0.457331611E+01 -0.307063006E+01
     4
 # iter = 60500  time[fs]=60.50000
   C -0.729628614E+01 -0.519372270E+00 -0.117588057E+00
   C  0.711211989E+01  0.415952959E+00  0.799383511E-01
   H -0.303589748E+02  0.465984562E+01  0.316684937E+01
   H  0.295192611E+02 -0.462954294E+01 -0.310790118E+01
     4
 # iter = 61000  time[fs]=61.00000
   C -0.739634282E+01 -0.526893112E+00 -0.119388807E+00
   C  0.720928666E+01  0.422053665E+00  0.815808703E-01
   H -0.307213239E+02  0.471571487E+01  0.320465241E+01
   H  0.298702072E+02 -0.468578804E+01 -0.314518417E+01
     4
 # iter = 61500  time[fs]=61.50000
   C -0.749648344E+01 -0.534420439E+00 -0.121191270E+00
   C  0.730653699E+01  0.428160928E+00  0.832251455E-01
   H -0.310837629E+02  0.477160111E+01  0.324246653E+01
   H  0.302212476E+02 -0.474205100E+01 -0.318247876E+01
     4
 # iter = 62000  time[fs]=62.00000
   C -0.759670573E+01 -0.541954088E+00 -0.122995406E+00
   C  0.740386864E+01  0.434274585E+00  0.848711379E-01
   H -0.314462898E+02  0.482750395E+01  0.328029148E+01
   H  0.305723802E+02 -0.479833144E+01 -0.321978470E+01
     4
 # iter = 62500  time[fs]=62.50000
   C -0.769700756E+01 -0.549493903E+00 -0.124801178E+00
   C  0.750127949E+01  0.440394479E+00  0.865188096E-01
   H -0.318089027E+02  0.488342305E+01  0.331812701E+01
   H  0.309236029E+02 -0.485462896E+01 -0.325710174E+01
     4
 # iter = 63000  time[fs]=63.00000
   C -0.779738685E+01 -0.557039733E+00 -0.126608552E+00
   C  0.759876746E+01  0.446520457E+00  0.881681241E-01
   H -0.321715996E+02  0.493935804E+01  0.335597291E+01
   H  0.312749136E+02 -0.491094321E+01 -0.329442964E+01
     4
 # iter = 63500  time[fs]=63.50000
   C -0.789784160E+01 -0.564591432E+00 -0.128417491E+00
   C  0.769633056E+01  0.452652373E+00  0.898190458E-01
   H -0.325343787E+02  0.499530859E+01  0.339382894E+01
   H  0.316263106E+02 -0.496727384E+01 -0.333176818E+01
     4
 # iter = 64000  time[fs]=64.00000
   C -0.799836991E+01 -0.572148862E+00 -0.130227963E+00
   C  0.779396689E+01  0.458790085E+00  0.914715406E-01
   H -0.328972382E+02  0.505127437E+01  0.343169489E+01
   H  0.319777918E+02 -0.502362050E+01 -0.336911712E+01
     4
 # iter = 64500  time[fs]=64.50000
   C -0.809896992E+01 -0.579711885E+00 -0.132039935E+00
   C  0.789167460E+01  0.464933457E+00  0.931255752E-01
   H -0.332601763E+02  0.510725507E+01  0.346957056E+01
   H  0.323293556E+02 -0.507998287E+01 -0.340647626E+01
     4
 # iter = 65000  time[fs]=65.00000
   C -0.819963985E+01 -0.587280372E+00 -0.133853375E+00
   C  0.798945193E+01  0.471082357E+00  0.947811172E-01
   H -0.336231915E+02  0.516325037E+01  0.350745574E+01
   H  0.326810000E+02 -0.513636061E+01 -0.344384537E+01
     4
 # iter = 65500  time[fs]=65.50000
   C -0.830037799E+01 -0.594854197E+00 -0.135668253E+00
   C  0.808729715E+01  0.477236658E+00  0.964381355E-01
   H -0.339862820E+02  0.521925998E+01  0.354535023E+01
   H  0.330327235E+02 -0.519275342E+01 -0.348122426E+01
     4
 # iter = 66000  time[fs]=66.00000
   C -0.840118268E+01 -0.602433236E+00 -0.137484539E+00
   C  0.818520864E+01  0.483396237E+00  0.980965997E-01
   H -0.343494463E+02  0.527528360E+01  0.358325385E+01
   H  0.333845243E+02 -0.524916099E+01 -0.351861274E+01
     4
 # iter = 66500  time[fs]=66.50000
   C -0.850205233E+01 -0.610017374E+00 -0.139302204E+00
   C  0.828318478E+01  0.489560975E+00  0.997564804E-01
   H -0.347126829E+02  0.533132096E+01  0.362116640E+01
   H  0.337364010E+02 -0.530558304E+01 -0.355601060E+01
     4
 # iter = 67000  time[fs]=67.00000
   C -0.860298539E+01 -0.617606495E+00 -0.141121220E+00
   C  0.838122405E+01  0.495730757E+00  0.101417749E+00
   H -0.350759902E+02  0.538737179E+01  0.365908772E+01
   H  0.340883519E+02 -0.536201928E+01 -0.359341766E+01
     4
 # iter = 67500  time[fs]=67.50000
   C -0.870398038E+01 -0.625200490E+00 -0.142941560E+00
   C  0.847932497E+01  0.501905472E+00  0.103080378E+00
   H -0.354393669E+02  0.544343581E+01  0.369701762E+01
   H  0.344403755E+02 -0.541846942E+01 -0.363083374E+01
     4
 # iter = 68000  time[fs]=68.00000
   C -0.880503587E+01 -0.632799252E+00 -0.144763198E+00
   C  0.857748611E+01  0.508085012E+00  0.104744340E+00
   H -0.358028116E+02  0.549951278E+01  0.373495595E+01
   H  0.347924704E+02 -0.547493322E+01 -0.366825867E+01
     4
 # iter = 68500  time[fs]=68.50000
   C -0.890615045E+01 -0.640402677E+00 -0.146586109E+00
   C  0.867570608E+01  0.514269273E+00  0.106409610E+00
   H -0.361663229E+02  0.555560244E+01  0.377290253E+01
   H  0.351446351E+02 -0.553141039E+01 -0.370569227E+01
     4
 # iter = 69000  time[fs]=69.00000
   C -0.900732280E+01 -0.648010667E+00 -0.148410267E+00
   C  0.877398354E+01  0.520458154E+00  0.108076161E+00
   H -0.365298995E+02  0.561170455E+01  0.381085721E+01
   H  0.354968684E+02 -0.558790069E+01 -0.374313439E+01
     4
 # iter = 69500  time[fs]=69.50000
   C -0.910855161E+01 -0.655623123E+00 -0.150235648E+00
   C  0.887231721E+01  0.526651558E+00  0.109743969E+00
   H -0.368935401E+02  0.566781888E+01  0.384881983E+01
   H  0.358491688E+02 -0.564440388E+01 -0.378058486E+01
     4
 # iter = 70000  time[fs]=70.00000
   C -0.920983564E+01 -0.663239953E+00 -0.152062228E+00
   C  0.897070583E+01  0.532849390E+00  0.111413011E+00
   H -0.372572436E+02  0.572394520E+01  0.388679025E+01
   H  0.362015351E+02 -0.570091970E+01 -0.381804351E+01
     4
 # iter = 70500  time[fs]=70.50000
   C -0.931117365E+01 -0.670861065E+00 -0.153889986E+00
   C  0.906914819E+01  0.539051558E+00  0.113083262E+00
   H -0.376210086E+02  0.578008328E+01  0.392476831E+01
   H  0.365539660E+02 -0.575744794E+01 -0.385551022E+01
     4
 # iter = 71000  time[fs]=71.00000
   C -0.941256449E+01 -0.678486371E+00 -0.155718899E+00
   C  0.916764313E+01  0.545257974E+00  0.114754701E+00
   H -0.379848341E+02  0.583623292E+01  0.396275388E+01
   H  0.369064603E+02 -0.581398837E+01 -0.389298481E+01
     4
 # iter = 71500  time[fs]=71.50000
   C -0.951400701E+01 -0.686115786E+00 -0.157548945E+00
   C  0.926618951E+01  0.551468550E+00  0.116427305E+00
   H -0.383487189E+02  0.589239389E+01  0.400074682E+01
   H  0.372590168E+02 -0.587054076E+01 -0.393046716E+01
     4
 # iter = 72000  time[fs]=72.00000
   C -0.961550011E+01 -0.693749227E+00 -0.159380104E+00
   C  0.936478622E+01  0.557683204E+00  0.118101052E+00
   H -0.387126619E+02  0.594856599E+01  0.403874699E+01
   H  0.376116343E+02 -0.592710490E+01 -0.396795712E+01
     4
 # iter = 72500  time[fs]=72.50000
   C -0.971704272E+01 -0.701386614E+00 -0.161212354E+00
   C  0.946343222E+01  0.563901853E+00  0.119775923E+00
   H -0.390766620E+02  0.600474904E+01  0.407675427E+01
   H  0.379643118E+02 -0.598368058E+01 -0.400545455E+01
     4
 # iter = 73000  time[fs]=73.00000
   C -0.981863380E+01 -0.709027868E+00 -0.163045676E+00
   C  0.956212646E+01  0.570124421E+00  0.121451896E+00
   H -0.394407182E+02  0.606094282E+01  0.411476853E+01
   H  0.383170482E+02 -0.604026760E+01 -0.404295933E+01
     4
 # iter = 73500  time[fs]=73.50000
   C -0.992027236E+01 -0.716672915E+00 -0.164880052E+00
   C  0.966086795E+01  0.576350828E+00  0.123128951E+00
   H -0.398048294E+02  0.611714716E+01  0.415278964E+01
   H  0.386698423E+02 -0.609686576E+01 -0.408047132E+01
     4
 # iter = 74000  time[fs]=74.00000
   C -0.100219574E+02 -0.724321679E+00 -0.166715461E+00
   C  0.975965572E+01  0.582581003E+00  0.124807070E+00
   H -0.401689948E+02  0.617336186E+01  0.419081748E+01
   H  0.390226932E+02 -0.615347487E+01 -0.411799040E+01
     4
 # iter = 74500  time[fs]=74.50000
   C -0.101236880E+02 -0.731974090E+00 -0.168551886E+00
   C  0.985848882E+01  0.588814871E+00  0.126486234E+00
   H -0.405332133E+02  0.622958676E+01  0.422885194E+01
   H  0.393755998E+02 -0.621009474E+01 -0.415551644E+01
     4
 # iter = 75000  time[fs]=75.00000
   C -0.102254633E+02 -0.739630078E+00 -0.170389308E+00
   C  0.995736636E+01  0.595052363E+00  0.128166424E+00
   H -0.408974840E+02  0.628582167E+01  0.426689291E+01
   H  0.397285611E+02 -0.626672519E+01 -0.419304933E+01
     4
 # iter = 75500  time[fs]=75.50000
   C -0.103272823E+02 -0.747289575E+00 -0.172227711E+00
   C  0.100562874E+02  0.601293412E+00  0.129847623E+00
   H -0.412618059E+02  0.634206643E+01  0.430494026E+01
   H  0.400815763E+02 -0.632336604E+01 -0.423058896E+01
     4
 # iter = 76000  time[fs]=76.00000
   C -0.104291442E+02 -0.754952517E+00 -0.174067078E+00
   C  0.101552512E+02  0.607537949E+00  0.131529813E+00
   H -0.416261783E+02  0.639832087E+01  0.434299390E+01
   H  0.404346443E+02 -0.638001712E+01 -0.426813520E+01
     4
 # iter = 76500  time[fs]=76.50000
   C -0.105310481E+02 -0.762618839E+00 -0.175907391E+00
   C  0.102542568E+02  0.613785912E+00  0.133212978E+00
   H -0.419906002E+02  0.645458483E+01  0.438105372E+01
   H  0.407877643E+02 -0.643667825E+01 -0.430568795E+01
     4
 # iter = 77000  time[fs]=77.00000
   C -0.106329933E+02 -0.770288479E+00 -0.177748635E+00
   C  0.103533034E+02  0.620037237E+00  0.134897100E+00
   H -0.423550708E+02  0.651085815E+01  0.441911962E+01
   H  0.411409354E+02 -0.649334927E+01 -0.434324710E+01
     4
 # iter = 77500  time[fs]=77.50000
   C -0.107349789E+02 -0.777961377E+00 -0.179590795E+00
   C  0.104523903E+02  0.626291863E+00  0.136582165E+00
   H -0.427195892E+02  0.656714068E+01  0.445719148E+01
   H  0.414941568E+02 -0.655003002E+01 -0.438081254E+01
     4
 # iter = 78000  time[fs]=78.00000
   C -0.108370042E+02 -0.785637474E+00 -0.181433854E+00
   C  0.105515166E+02  0.632549731E+00  0.138268155E+00
   H -0.430841547E+02  0.662343227E+01  0.449526923E+01
   H  0.418474275E+02 -0.660672035E+01 -0.441838417E+01
     4
 # iter = 78500  time[fs]=78.50000
   C -0.109390684E+02 -0.793316712E+00 -0.183277798E+00
   C  0.106506817E+02  0.638810782E+00  0.139955057E+00
   H -0.434487665E+02  0.667973277E+01  0.453335276E+01
   H  0.422007468E+02 -0.666342009E+01 -0.445596190E+01
     4
 # iter = 79000  time[fs]=79.00000
   C -0.110411708E+02 -0.800999036E+00 -0.185122613E+00
   C  0.107498849E+02  0.645074962E+00  0.141642854E+00
   H -0.438134238E+02  0.673604203E+01  0.457144197E+01
   H  0.425541138E+02 -0.672012910E+01 -0.449354563E+01
     4
 # iter = 79500  time[fs]=79.50000
   C -0.111433107E+02 -0.808684392E+00 -0.186968283E+00
   C  0.108491253E+02  0.651342214E+00  0.143331533E+00
   H -0.441781259E+02  0.679235993E+01  0.460953678E+01
   H  0.429075279E+02 -0.677684724E+01 -0.453113525E+01
     4
 # iter = 80000  time[fs]=80.00000
   C -0.112454875E+02 -0.816372727E+00 -0.188814796E+00
   C  0.109484023E+02  0.657612485E+00  0.145021078E+00
   H -0.445428721E+02  0.684868632E+01  0.464763710E+01
   H  0.432609881E+02 -0.683357435E+01 -0.456873068E+01
