     4
 # iter = 25000  time[fs]=25.00000
   C -0.942391698E+00 -0.146012487E-01 -0.569799468E-01
   C  0.103717176E+01 -0.218390092E-01  0.134982055E-01
   H -0.520183341E+01 -0.505314071E+00  0.555072573E+00
   H  0.530304188E+01  0.628324590E+00 -0.366467207E+00
     4
 # iter = 25500  time[fs]=25.50000
   C -0.986158928E+00 -0.132719801E-01 -0.615123229E-01
   C  0.108323741E+01 -0.241904827E-01  0.149689107E-01
   H -0.552904725E+01 -0.536723485E+00  0.589486319E+00
   H  0.561997579E+01  0.668708553E+00 -0.392119547E+00
     4
 # iter = 26000  time[fs]=26.00000
   C -0.103456893E+01 -0.119093656E-01 -0.662345458E-01
   C  0.113394454E+01 -0.265821589E-01  0.166200224E-01
   H -0.585891315E+01 -0.568407202E+00  0.624221199E+00
   H  0.593957716E+01  0.709449100E+00 -0.417979737E+00
     4
 # iter = 26500  time[fs]=26.50000
   C -0.108720944E+01 -0.105102610E-01 -0.711345654E-01
   C  0.118888029E+01 -0.290165723E-01  0.184407333E-01
   H -0.619113769E+01 -0.600334932E+00  0.659241233E+00
   H  0.626155993E+01  0.750508624E+00 -0.444026711E+00
     4
 # iter = 27000  time[fs]=27.00000
   C -0.114369127E+01 -0.907285147E-02 -0.762002004E-01
   C  0.124765506E+01 -0.314950052E-01  0.204198768E-01
   H -0.652547319E+01 -0.632481230E+00  0.694516325E+00
   H  0.658568127E+01  0.791855295E+00 -0.470242550E+00
     4
 # iter = 27500  time[fs]=27.50000
   C -0.120365351E+01 -0.759638784E-02 -0.814194740E-01
   C  0.130990767E+01 -0.340177399E-01  0.225463157E-01
   H -0.686170870E+01 -0.664824510E+00  0.730021027E+00
   H  0.691173337E+01  0.833461916E+00 -0.496611879E+00
     4
 # iter = 28000  time[fs]=28.00000
   C -0.126676586E+01 -0.608093558E-02 -0.867808601E-01
   C  0.137530768E+01 -0.365842985E-01  0.248092252E-01
   H -0.719966316E+01 -0.697346288E+00  0.765733613E+00
   H  0.723953704E+01  0.875305062E+00 -0.523121390E+00
     4
 # iter = 28500  time[fs]=28.50000
   C -0.133272892E+01 -0.452715708E-02 -0.922734455E-01
   C  0.144355560E+01 -0.391936536E-01  0.271982844E-01
   H -0.753918000E+01 -0.730030613E+00  0.801635379E+00
   H  0.756893672E+01  0.917364395E+00 -0.549759487E+00
     4
 # iter = 29000  time[fs]=29.00000
   C -0.140127315E+01 -0.293613219E-02 -0.978870237E-01
   C  0.151438184E+01 -0.418444001E-01  0.297037915E-01
   H -0.788012296E+01 -0.762863616E+00  0.837710093E+00
   H  0.789979651E+01  0.959622147E+00 -0.576515994E+00
     4
 # iter = 29500  time[fs]=29.50000
   C -0.147215695E+01 -0.130921651E-02 -0.103612137E+00
   C  0.158754484E+01 -0.445348916E-01  0.323167225E-01
   H -0.822237272E+01 -0.795833160E+00  0.873943578E+00
   H  0.823199704E+01  0.100206269E+01 -0.603381929E+00
     4
 # iter = 30000  time[fs]=30.00000
   C -0.154516447E+01  0.352066873E-03 -0.109440083E+00
   C  0.166282875E+01 -0.472633440E-01  0.350287477E-01
   H -0.856582426E+01 -0.828928563E+00  0.910323368E+00
   H  0.856543289E+01  0.104467221E+01 -0.630349324E+00
     4
 # iter = 30500  time[fs]=30.50000
   C -0.162010312E+01  0.204610795E-02 -0.115362887E+00
   C  0.174004106E+01 -0.500279122E-01  0.378322214E-01
   H -0.891038461E+01 -0.862140367E+00  0.946838443E+00
   H  0.890001050E+01  0.108743843E+01 -0.657411071E+00
     4
 # iter = 31000  time[fs]=31.00000
   C -0.169680123E+01  0.377126808E-02 -0.121373275E+00
   C  0.181901014E+01 -0.528267450E-01  0.407201524E-01
   H -0.925597115E+01 -0.895460158E+00  0.983479009E+00
   H  0.923564649E+01  0.113035038E+01 -0.684560800E+00
     4
 # iter = 31500  time[fs]=31.50000
   C -0.177510571E+01  0.552592105E-02 -0.127464618E+00
   C  0.189958297E+01 -0.556580231E-01  0.436861647E-01
   H -0.960251007E+01 -0.928880418E+00  0.102023632E+01
   H  0.957226623E+01  0.117339824E+01 -0.711792783E+00
     4
 # iter = 32000  time[fs]=32.00000
   C -0.185487997E+01  0.730848110E-02 -0.133630889E+00
   C  0.198162305E+01 -0.585199853E-01  0.467244526E-01
   H -0.994993524E+01 -0.962394397E+00  0.105710253E+01
   H  0.990980265E+01  0.121657313E+01 -0.739101845E+00
     4
 # iter = 32500  time[fs]=32.50000
   C -0.193600198E+01  0.911742120E-02 -0.139866607E+00
   C  0.206500842E+01 -0.614109443E-01  0.498297339E-01
   H -0.102981871E+02 -0.995996016E+00  0.109407057E+01
   H  0.102481953E+02  0.125986707E+01 -0.766483294E+00
     4
 # iter = 33000  time[fs]=33.00000
   C -0.201836259E+01  0.109512842E-01 -0.146166791E+00
   C  0.214963001E+01 -0.643292964E-01  0.529972038E-01
   H -0.106472119E+02 -0.102967977E+01  0.113113407E+01
   H  0.105873894E+02  0.130327278E+01 -0.793932864E+00
     4
 # iter = 33500  time[fs]=33.50000
   C -0.210186398E+01  0.128086890E-01 -0.152526911E+00
   C  0.223539008E+01 -0.672735257E-01  0.562224905E-01
   H -0.109969609E+02 -0.106344068E+01  0.116828722E+01
   H  0.109273353E+02  0.134678367E+01 -0.821446661E+00
     4
 # iter = 34000  time[fs]=34.00000
   C -0.218641832E+01  0.146883326E-01 -0.158942843E+00
   C  0.232220089E+01 -0.702422057E-01  0.595016136E-01
   H -0.113473899E+02 -0.109727419E+01  0.120552475E+01
   H  0.112679878E+02  0.139039371E+01 -0.849021123E+00
     4
 # iter = 34500  time[fs]=34.50000
   C -0.227194662E+01  0.165889907E-01 -0.165410833E+00
   C  0.240998350E+01 -0.732339977E-01  0.628309462E-01
   H -0.116984585E+02 -0.113117616E+01  0.124284185E+01
   H  0.116093057E+02  0.143409738E+01 -0.876652982E+00
     4
 # iter = 35000  time[fs]=35.00000
   C -0.235837766E+01  0.185095151E-01 -0.171927455E+00
   C  0.249866679E+01 -0.762476483E-01  0.662071797E-01
   H -0.120501297E+02 -0.116514278E+01  0.128023411E+01
   H  0.119512510E+02  0.147788960E+01 -0.904339230E+00
     4
 # iter = 35500  time[fs]=35.50000
   C -0.244564710E+01  0.204488317E-01 -0.178489581E+00
   C  0.258818649E+01 -0.792819856E-01  0.696272922E-01
   H -0.124023699E+02 -0.119917057E+01  0.131769750E+01
   H  0.122937893E+02  0.152176574E+01 -0.932077095E+00
     4
 # iter = 36000  time[fs]=36.00000
   C -0.253369672E+01  0.224059362E-01 -0.185094351E+00
   C  0.267848443E+01 -0.823359147E-01  0.730885196E-01
   H -0.127551479E+02 -0.123325633E+01  0.135522828E+01
   H  0.126368884E+02  0.156572147E+01 -0.959864014E+00
     4
 # iter = 36500  time[fs]=36.50000
   C -0.262247367E+01  0.243798908E-01 -0.191739145E+00
   C  0.276950785E+01 -0.854084135E-01  0.765883306E-01
   H -0.131084352E+02 -0.126739708E+01  0.139282303E+01
   H  0.129805191E+02  0.160975285E+01 -0.987697614E+00
     4
 # iter = 37000  time[fs]=37.00000
   C -0.271192995E+01  0.263698196E-01 -0.198421559E+00
   C  0.286120881E+01 -0.884985279E-01  0.801244029E-01
   H -0.134622053E+02 -0.130159010E+01  0.143047856E+01
   H  0.133246543E+02  0.165385618E+01 -0.101557569E+01
     4
 # iter = 37500  time[fs]=37.50000
   C -0.280202181E+01  0.283749050E-01 -0.205139386E+00
   C  0.295354361E+01 -0.916053670E-01  0.836946034E-01
   H -0.138164340E+02 -0.133583284E+01  0.146819195E+01
   H  0.136692686E+02  0.169802805E+01 -0.104349620E+01
     4
 # iter = 38000  time[fs]=38.00000
   C -0.289270931E+01  0.303943836E-01 -0.211890596E+00
   C  0.304647240E+01 -0.947280991E-01  0.872969692E-01
   H -0.141710985E+02 -0.137012295E+01  0.150596045E+01
   H  0.140143389E+02  0.174226530E+01 -0.107145722E+01
     4
 # iter = 38500  time[fs]=38.50000
   C -0.298395595E+01  0.324275422E-01 -0.218673315E+00
   C  0.313995870E+01 -0.978659469E-01  0.909296916E-01
   H -0.145261780E+02 -0.140445824E+01  0.154378154E+01
   H  0.143598434E+02  0.178656495E+01 -0.109945699E+01
     4
 # iter = 39000  time[fs]=39.00000
   C -0.307572826E+01  0.344737143E-01 -0.225485817E+00
   C  0.323396912E+01 -0.101018184E+00  0.945911014E-01
   H -0.148816528E+02 -0.143883668E+01  0.158165284E+01
   H  0.147057620E+02  0.183092426E+01 -0.112749383E+01
     4
 # iter = 39500  time[fs]=39.50000
   C -0.316799552E+01  0.365322767E-01 -0.232326505E+00
   C  0.332847299E+01 -0.104184131E+00  0.982796556E-01
   H -0.152375050E+02 -0.147325636E+01  0.161957216E+01
   H  0.150520758E+02  0.187534065E+01 -0.115556619E+01
     4
 # iter = 40000  time[fs]=40.00000
   C -0.326072948E+01  0.386026463E-01 -0.239193900E+00
   C  0.342344211E+01 -0.107363153E+00  0.101993926E+00
   H -0.155937174E+02 -0.150771550E+01  0.165753742E+01
   H  0.153987674E+02  0.191981170E+01 -0.118367260E+01
     4
 # iter = 40500  time[fs]=40.50000
   C -0.335390410E+01  0.406842772E-01 -0.246086631E+00
   C  0.351885049E+01 -0.110554652E+00  0.105732588E+00
   H -0.159502742E+02 -0.154221243E+01  0.169554669E+01
   H  0.157458204E+02  0.196433515E+01 -0.121181169E+01
     4
 # iter = 41000  time[fs]=41.00000
   C -0.344749537E+01  0.427766575E-01 -0.253003425E+00
   C  0.361467415E+01 -0.113758071E+00  0.109494413E+00
   H -0.163071607E+02 -0.157674560E+01  0.173359817E+01
   H  0.160932192E+02  0.200890887E+01 -0.123998218E+01
     4
 # iter = 41500  time[fs]=41.50000
   C -0.354148106E+01  0.448793076E-01 -0.259943100E+00
   C  0.371089092E+01 -0.116972886E+00  0.113278259E+00
   H -0.166643630E+02 -0.161131354E+01  0.177169015E+01
   H  0.164409496E+02  0.205353088E+01 -0.126818285E+01
     4
 # iter = 42000  time[fs]=42.00000
   C -0.363584061E+01  0.469917769E-01 -0.266904553E+00
   C  0.380748028E+01 -0.120198605E+00  0.117083059E+00
   H -0.170218679E+02 -0.164591487E+01  0.180982103E+01
   H  0.167889979E+02  0.209819929E+01 -0.129641256E+01
     4
 # iter = 42500  time[fs]=42.50000
   C -0.373055494E+01  0.491136423E-01 -0.273886756E+00
   C  0.390442319E+01 -0.123434765E+00  0.120907824E+00
   H -0.173796634E+02 -0.168054828E+01  0.184798931E+01
   H  0.171373515E+02  0.214291233E+01 -0.132467022E+01
     4
 # iter = 43000  time[fs]=43.00000
   C -0.382560633E+01  0.512445059E-01 -0.280888752E+00
   C  0.400170197E+01 -0.126680930E+00  0.124751627E+00
   H -0.177377377E+02 -0.171521257E+01  0.188619357E+01
   H  0.174859983E+02  0.218766832E+01 -0.135295481E+01
     4
 # iter = 43500  time[fs]=43.50000
   C -0.392097829E+01  0.533839933E-01 -0.287909642E+00
   C  0.409930016E+01 -0.129936691E+00  0.128613603E+00
   H -0.180960802E+02 -0.174990657E+01  0.192443248E+01
   H  0.178349271E+02  0.223246570E+01 -0.138126538E+01
     4
 # iter = 44000  time[fs]=44.00000
   C -0.401665547E+01  0.555317518E-01 -0.294948589E+00
   C  0.419720245E+01 -0.133201662E+00  0.132492941E+00
   H -0.184546806E+02 -0.178462920E+01  0.196270475E+01
   H  0.181841271E+02  0.227730298E+01 -0.140960100E+01
     4
 # iter = 44500  time[fs]=44.50000
   C -0.411262354E+01  0.576874489E-01 -0.302004805E+00
   C  0.429539455E+01 -0.136475479E+00  0.136388882E+00
   H -0.188135292E+02 -0.181937943E+01  0.200100921E+01
   H  0.185335884E+02  0.232217873E+01 -0.143796081E+01
     4
 # iter = 45000  time[fs]=45.00000
   C -0.420886913E+01  0.598507709E-01 -0.309077552E+00
   C  0.439386311E+01 -0.139757797E+00  0.140300716E+00
   H -0.191726168E+02 -0.185415628E+01  0.203934471E+01
   H  0.188833014E+02  0.236709162E+01 -0.146634399E+01
     4
 # iter = 45500  time[fs]=45.50000
   C -0.430537970E+01  0.620214215E-01 -0.316166139E+00
   C  0.449259565E+01 -0.143048292E+00  0.144227773E+00
   H -0.195319349E+02 -0.188895882E+01  0.207771018E+01
   H  0.192332571E+02  0.241204038E+01 -0.149474975E+01
     4
 # iter = 46000  time[fs]=46.00000
   C -0.440214356E+01  0.641991206E-01 -0.323269912E+00
   C  0.459158046E+01 -0.146346656E+00  0.148169425E+00
   H -0.198914752E+02 -0.192378618E+01  0.211610461E+01
   H  0.195834470E+02  0.245702380E+01 -0.152317737E+01
     4
 # iter = 46500  time[fs]=46.50000
   C -0.449914970E+01  0.663836036E-01 -0.330388260E+00
   C  0.469080660E+01 -0.149652598E+00  0.152125081E+00
   H -0.202512301E+02 -0.195863752E+01  0.215452702E+01
   H  0.199338629E+02  0.250204075E+01 -0.155162612E+01
     4
 # iter = 47000  time[fs]=47.00000
   C -0.459638780E+01  0.685746195E-01 -0.337520602E+00
   C  0.479026378E+01 -0.152965843E+00  0.156094182E+00
   H -0.206111921E+02 -0.199351206E+01  0.219297651E+01
   H  0.202844972E+02  0.254709013E+01 -0.158009535E+01
     4
 # iter = 47500  time[fs]=47.50000
   C -0.469384819E+01  0.707719307E-01 -0.344666396E+00
   C  0.488994232E+01 -0.156286129E+00  0.160076203E+00
   H -0.209713542E+02 -0.202840905E+01  0.223145218E+01
   H  0.206353425E+02  0.259217090E+01 -0.160858441E+01
     4
 # iter = 48000  time[fs]=48.00000
   C -0.479152172E+01  0.729753121E-01 -0.351825124E+00
   C  0.498983313E+01 -0.159613209E+00  0.164070648E+00
   H -0.213317099E+02 -0.206332775E+01  0.226995322E+01
   H  0.209863920E+02  0.263728208E+01 -0.163709268E+01
     4
 # iter = 48500  time[fs]=48.50000
   C -0.488939983E+01  0.751845497E-01 -0.358996302E+00
   C  0.508992766E+01 -0.162946847E+00  0.168077048E+00
   H -0.216922528E+02 -0.209826751E+01  0.230847882E+01
   H  0.213376389E+02  0.268242272E+01 -0.166561960E+01
     4
 # iter = 49000  time[fs]=49.00000
   C -0.498747440E+01  0.773994406E-01 -0.366179468E+00
   C  0.519021781E+01 -0.166286819E+00  0.172094959E+00
   H -0.220529769E+02 -0.213322765E+01  0.234702824E+01
   H  0.216890771E+02  0.272759194E+01 -0.169416459E+01
     4
 # iter = 49500  time[fs]=49.50000
   C -0.508573779E+01  0.796197917E-01 -0.373374187E+00
   C  0.529069597E+01 -0.169632913E+00  0.176123961E+00
   H -0.224138764E+02 -0.216820757E+01  0.238560074E+01
   H  0.220407005E+02  0.277278886E+01 -0.172272714E+01
     4
 # iter = 50000  time[fs]=50.00000
   C -0.518418278E+01  0.818454196E-01 -0.380580046E+00
   C  0.539135495E+01 -0.172984927E+00  0.180163656E+00
   H -0.227749460E+02 -0.220320666E+01  0.242419564E+01
   H  0.223925033E+02  0.281801267E+01 -0.175130672E+01
     4
 # iter = 50500  time[fs]=50.50000
   C -0.528280256E+01  0.840761496E-01 -0.387796653E+00
   C  0.549218794E+01 -0.176342667E+00  0.184213667E+00
   H -0.231361804E+02 -0.223822437E+01  0.246281229E+01
   H  0.227444802E+02  0.286326259E+01 -0.177990287E+01
     4
 # iter = 51000  time[fs]=51.00000
   C -0.538159065E+01  0.863118152E-01 -0.395023635E+00
   C  0.559318849E+01 -0.179705950E+00  0.188273636E+00
   H -0.234975745E+02 -0.227326015E+01  0.250145005E+01
   H  0.230966259E+02  0.290853787E+01 -0.180851510E+01
     4
 # iter = 51500  time[fs]=51.50000
   C -0.548054094E+01  0.885522580E-01 -0.402260641E+00
   C  0.569435051E+01 -0.183074601E+00  0.192343221E+00
   H -0.238591238E+02 -0.230831349E+01  0.254010831E+01
   H  0.234489354E+02  0.295383779E+01 -0.183714298E+01
     4
 # iter = 52000  time[fs]=52.00000
   C -0.557964762E+01  0.907973266E-01 -0.409507332E+00
   C  0.579566821E+01 -0.186448452E+00  0.196422101E+00
   H -0.242208235E+02 -0.234338388E+01  0.257878651E+01
   H  0.238014040E+02  0.299916166E+01 -0.186578607E+01
     4
 # iter = 52500  time[fs]=52.50000
   C -0.567890519E+01  0.930468768E-01 -0.416763391E+00
   C  0.589713612E+01 -0.189827344E+00  0.200509966E+00
   H -0.245826694E+02 -0.237847085E+01  0.261748409E+01
   H  0.241540271E+02  0.304450882E+01 -0.189444396E+01
     4
 # iter = 53000  time[fs]=53.00000
   C -0.577830843E+01  0.953007707E-01 -0.424028512E+00
   C  0.599874900E+01 -0.193211124E+00  0.204606523E+00
   H -0.249446573E+02 -0.241357394E+01  0.265620051E+01
   H  0.245068002E+02  0.308987865E+01 -0.192311627E+01
     4
 # iter = 53500  time[fs]=53.50000
   C -0.587785236E+01  0.975588765E-01 -0.431302405E+00
   C  0.610050193E+01 -0.196599647E+00  0.208711494E+00
   H -0.253067832E+02 -0.244869273E+01  0.269493528E+01
   H  0.248597193E+02  0.313527053E+01 -0.195180261E+01
     4
 # iter = 54000  time[fs]=54.00000
   C -0.597753226E+01  0.998210685E-01 -0.438584794E+00
   C  0.620239017E+01 -0.199992772E+00  0.212824612E+00
   H -0.256690432E+02 -0.248382678E+01  0.273368789E+01
   H  0.252127802E+02  0.318068387E+01 -0.198050262E+01
     4
 # iter = 54500  time[fs]=54.50000
   C -0.607734363E+01  0.102087226E+00 -0.445875415E+00
   C  0.630440926E+01 -0.203390367E+00  0.216945623E+00
   H -0.260314338E+02 -0.251897570E+01  0.277245789E+01
   H  0.255659792E+02  0.322611813E+01 -0.200921595E+01
     4
 # iter = 55000  time[fs]=55.00000
   C -0.617728218E+01  0.104357234E+00 -0.453174015E+00
   C  0.640655493E+01 -0.206792304E+00  0.221074284E+00
   H -0.263939514E+02 -0.255413910E+01  0.281124482E+01
   H  0.259193126E+02  0.327157277E+01 -0.203794226E+01
     4
 # iter = 55500  time[fs]=55.50000
   C -0.627734384E+01  0.106630981E+00 -0.460480353E+00
   C  0.650882310E+01 -0.210198459E+00  0.225210364E+00
   H -0.267565925E+02 -0.258931661E+01  0.285004824E+01
   H  0.262727767E+02  0.331704725E+01 -0.206668123E+01
     4
 # iter = 56000  time[fs]=56.00000
   C -0.637752471E+01  0.108908363E+00 -0.467794199E+00
   C  0.661120989E+01 -0.213608715E+00  0.229353641E+00
   H -0.271193541E+02 -0.262450787E+01  0.288886775E+01
   H  0.266263682E+02  0.336254110E+01 -0.209543254E+01
     4
 # iter = 56500  time[fs]=56.50000
   C -0.647782106E+01  0.111189276E+00 -0.475115334E+00
   C  0.671371160E+01 -0.217022960E+00  0.233503902E+00
   H -0.274822328E+02 -0.265971252E+01  0.292770294E+01
   H  0.269800837E+02  0.340805382E+01 -0.212419590E+01
     4
 # iter = 57000  time[fs]=57.00000
   C -0.657822936E+01  0.113473625E+00 -0.482443545E+00
   C  0.681632469E+01 -0.220441085E+00  0.237660946E+00
   H -0.278452258E+02 -0.269493026E+01  0.296655342E+01
   H  0.273339202E+02  0.345358496E+01 -0.215297102E+01
     4
 # iter = 57500  time[fs]=57.50000
   C -0.667874620E+01  0.115761315E+00 -0.489778631E+00
   C  0.691904579E+01 -0.223862986E+00  0.241824578E+00
   H -0.282083301E+02 -0.273016074E+01  0.300541882E+01
   H  0.276878746E+02  0.349913407E+01 -0.218175762E+01
     4
 # iter = 58000  time[fs]=58.00000
   C -0.677936834E+01  0.118052257E+00 -0.497120397E+00
   C  0.702187165E+01 -0.227288564E+00  0.245994611E+00
   H -0.285715430E+02 -0.276540367E+01  0.304429878E+01
   H  0.280419439E+02  0.354470072E+01 -0.221055542E+01
     4
 # iter = 58500  time[fs]=58.50000
   C -0.688009267E+01  0.120346364E+00 -0.504468659E+00
   C  0.712479919E+01 -0.230717722E+00  0.250170867E+00
   H -0.289348618E+02 -0.280065875E+01  0.308319296E+01
   H  0.283961253E+02  0.359028450E+01 -0.223936417E+01
     4
 # iter = 59000  time[fs]=59.00000
   C -0.698091623E+01  0.122643554E+00 -0.511823238E+00
   C  0.722782543E+01 -0.234150368E+00  0.254353174E+00
   H -0.292982839E+02 -0.283592569E+01  0.312210102E+01
   H  0.287504162E+02  0.363588500E+01 -0.226818362E+01
     4
 # iter = 59500  time[fs]=59.50000
   C -0.708183616E+01  0.124943746E+00 -0.519183963E+00
   C  0.733094756E+01 -0.237586412E+00  0.258541369E+00
   H -0.296618067E+02 -0.287120422E+01  0.316102265E+01
   H  0.291048138E+02  0.368150185E+01 -0.229701352E+01
     4
 # iter = 60000  time[fs]=60.00000
   C -0.718284973E+01  0.127246864E+00 -0.526550670E+00
   C  0.743416283E+01 -0.241025771E+00  0.262735293E+00
   H -0.300254280E+02 -0.290649407E+01  0.319995752E+01
   H  0.294593157E+02  0.372713467E+01 -0.232585365E+01
     4
 # iter = 60500  time[fs]=60.50000
   C -0.728395433E+01  0.129552835E+00 -0.533923201E+00
   C  0.753746866E+01 -0.244468360E+00  0.266934794E+00
   H -0.303891454E+02 -0.294179498E+01  0.323890534E+01
   H  0.298139195E+02  0.377278310E+01 -0.235470376E+01
     4
 # iter = 61000  time[fs]=61.00000
   C -0.738514744E+01  0.131861586E+00 -0.541301403E+00
   C  0.764086253E+01 -0.247914101E+00  0.271139727E+00
   H -0.307529566E+02 -0.297710670E+01  0.327786582E+01
   H  0.301686227E+02  0.381844678E+01 -0.238356366E+01
     4
 # iter = 61500  time[fs]=61.50000
   C -0.748642665E+01  0.134173049E+00 -0.548685131E+00
   C  0.774434205E+01 -0.251362917E+00  0.275349951E+00
   H -0.311168596E+02 -0.301242899E+01  0.331683869E+01
   H  0.305234230E+02  0.386412540E+01 -0.241243311E+01
     4
 # iter = 62000  time[fs]=62.00000
   C -0.758778965E+01  0.136487158E+00 -0.556074245E+00
   C  0.784790490E+01 -0.254814734E+00  0.279565332E+00
   H -0.314808522E+02 -0.304776162E+01  0.335582365E+01
   H  0.308783184E+02  0.390981862E+01 -0.244131193E+01
     4
 # iter = 62500  time[fs]=62.50000
   C -0.768923420E+01  0.138803850E+00 -0.563468608E+00
   C  0.795154887E+01 -0.258269482E+00  0.283785738E+00
   H -0.318449323E+02 -0.308310437E+01  0.339482047E+01
   H  0.312333067E+02  0.395552612E+01 -0.247019990E+01
     4
 # iter = 63000  time[fs]=63.00000
   C -0.779075817E+01  0.141123063E+00 -0.570868091E+00
   C  0.805527182E+01 -0.261727090E+00  0.288011046E+00
   H -0.322090981E+02 -0.311845701E+01  0.343382887E+01
   H  0.315883857E+02  0.400124760E+01 -0.249909684E+01
     4
 # iter = 63500  time[fs]=63.50000
   C -0.789235949E+01  0.143444737E+00 -0.578272569E+00
   C  0.815907172E+01 -0.265187494E+00  0.292241134E+00
   H -0.325733477E+02 -0.315381934E+01  0.347284862E+01
   H  0.319435536E+02  0.404698277E+01 -0.252800256E+01
     4
 # iter = 64000  time[fs]=64.00000
   C -0.799403619E+01  0.145768816E+00 -0.585681919E+00
   C  0.826294657E+01 -0.268650628E+00  0.296475886E+00
   H -0.329376793E+02 -0.318919115E+01  0.351187947E+01
   H  0.322988083E+02  0.409273134E+01 -0.255691688E+01
     4
 # iter = 64500  time[fs]=64.50000
   C -0.809578635E+01  0.148095243E+00 -0.593096025E+00
   C  0.836689448E+01 -0.272116431E+00  0.300715189E+00
   H -0.333020910E+02 -0.322457224E+01  0.355092120E+01
   H  0.326541481E+02  0.413849303E+01 -0.258583963E+01
     4
 # iter = 65000  time[fs]=65.00000
   C -0.819760815E+01  0.150423966E+00 -0.600514775E+00
   C  0.847091363E+01 -0.275584843E+00  0.304958937E+00
   H -0.336665812E+02 -0.325996243E+01  0.358997358E+01
   H  0.330095712E+02  0.418426758E+01 -0.261477063E+01
     4
 # iter = 65500  time[fs]=65.50000
   C -0.829949980E+01  0.152754932E+00 -0.607938059E+00
   C  0.857500225E+01 -0.279055805E+00  0.309207024E+00
   H -0.340311482E+02 -0.329536152E+01  0.362903640E+01
   H  0.333650757E+02  0.423005472E+01 -0.264370972E+01
     4
 # iter = 66000  time[fs]=66.00000
   C -0.840145960E+01  0.155088092E+00 -0.615365773E+00
   C  0.867915863E+01 -0.282529263E+00  0.313459349E+00
   H -0.343957905E+02 -0.333076934E+01  0.366810945E+01
   H  0.337206600E+02  0.427585420E+01 -0.267265675E+01
     4
 # iter = 66500  time[fs]=66.50000
   C -0.850348590E+01  0.157423397E+00 -0.622797815E+00
   C  0.878338114E+01 -0.286005162E+00  0.317715815E+00
   H -0.347605064E+02 -0.336618571E+01  0.370719251E+01
   H  0.340763225E+02  0.432166578E+01 -0.270161155E+01
     4
 # iter = 67000  time[fs]=67.00000
   C -0.860557712E+01  0.159760801E+00 -0.630234087E+00
   C  0.888766820E+01 -0.289483449E+00  0.321976329E+00
   H -0.351252944E+02 -0.340161046E+01  0.374628540E+01
   H  0.344320615E+02  0.436748922E+01 -0.273057398E+01
     4
 # iter = 67500  time[fs]=67.50000
   C -0.870773171E+01  0.162100258E+00 -0.637674495E+00
   C  0.899201828E+01 -0.292964073E+00  0.326240798E+00
   H -0.354901532E+02 -0.343704344E+01  0.378538792E+01
   H  0.347878756E+02  0.441332429E+01 -0.275954388E+01
     4
 # iter = 68000  time[fs]=68.00000
   C -0.880994821E+01  0.164441724E+00 -0.645118946E+00
   C  0.909642990E+01 -0.296446985E+00  0.330509135E+00
   H -0.358550813E+02 -0.347248447E+01  0.382449989E+01
   H  0.351437632E+02  0.445917077E+01 -0.278852112E+01
     4
 # iter = 68500  time[fs]=68.50000
   C -0.891222517E+01  0.166785157E+00 -0.652567351E+00
   C  0.920090165E+01 -0.299932138E+00  0.334781254E+00
   H -0.362200772E+02 -0.350793340E+01  0.386362112E+01
   H  0.354997229E+02  0.450502843E+01 -0.281750557E+01
     4
 # iter = 69000  time[fs]=69.00000
   C -0.901456122E+01  0.169130516E+00 -0.660019626E+00
   C  0.930543214E+01 -0.303419486E+00  0.339057074E+00
   H -0.365851398E+02 -0.354339008E+01  0.390275144E+01
   H  0.358557532E+02  0.455089707E+01 -0.284649707E+01
     4
 # iter = 69500  time[fs]=69.50000
   C -0.911695501E+01  0.171477760E+00 -0.667475687E+00
   C  0.941002004E+01 -0.306908982E+00  0.343336515E+00
   H -0.369502676E+02 -0.357885438E+01  0.394189068E+01
   H  0.362118528E+02  0.459677647E+01 -0.287549551E+01
     4
 # iter = 70000  time[fs]=70.00000
   C -0.921940526E+01  0.173826852E+00 -0.674935453E+00
   C  0.951466407E+01 -0.310400585E+00  0.347619499E+00
   H -0.373154595E+02 -0.361432613E+01  0.398103866E+01
   H  0.365680204E+02  0.464266645E+01 -0.290450076E+01
     4
 # iter = 70500  time[fs]=70.50000
   C -0.932191072E+01  0.176177753E+00 -0.682398846E+00
   C  0.961936298E+01 -0.313894251E+00  0.351905952E+00
   H -0.376807141E+02 -0.364980521E+01  0.402019524E+01
   H  0.369242547E+02  0.468856681E+01 -0.293351270E+01
     4
 # iter = 71000  time[fs]=71.00000
   C -0.942447017E+01  0.178530427E+00 -0.689865791E+00
   C  0.972411558E+01 -0.317389941E+00  0.356195801E+00
   H -0.380460304E+02 -0.368529148E+01  0.405936025E+01
   H  0.372805544E+02  0.473447735E+01 -0.296253120E+01
     4
 # iter = 71500  time[fs]=71.50000
   C -0.952708245E+01  0.180884840E+00 -0.697336215E+00
   C  0.982892068E+01 -0.320887613E+00  0.360488976E+00
   H -0.384114072E+02 -0.372078482E+01  0.409853354E+01
   H  0.376369182E+02  0.478039789E+01 -0.299155614E+01
     4
 # iter = 72000  time[fs]=72.00000
   C -0.962974642E+01  0.183240956E+00 -0.704810047E+00
   C  0.993377717E+01 -0.324387230E+00  0.364785409E+00
   H -0.387768432E+02 -0.375628508E+01  0.413771496E+01
   H  0.379933451E+02  0.482632826E+01 -0.302058742E+01
     4
 # iter = 72500  time[fs]=72.50000
   C -0.973246098E+01  0.185598742E+00 -0.712287217E+00
   C  0.100386840E+02 -0.327888754E+00  0.369085033E+00
   H -0.391423376E+02 -0.379179216E+01  0.417690436E+01
   H  0.383498339E+02  0.487226827E+01 -0.304962493E+01
     4
 # iter = 73000  time[fs]=73.00000
   C -0.983522506E+01  0.187958166E+00 -0.719767659E+00
   C  0.101436400E+02 -0.331392148E+00  0.373387785E+00
   H -0.395078891E+02 -0.382730592E+01  0.421610161E+01
   H  0.387063834E+02  0.491821777E+01 -0.307866854E+01
     4
 # iter = 73500  time[fs]=73.50000
   C -0.993803765E+01  0.190319196E+00 -0.727251308E+00
   C  0.102486442E+02 -0.334897378E+00  0.377693603E+00
   H -0.398734967E+02 -0.386282625E+01  0.425530657E+01
   H  0.390629925E+02  0.496417658E+01 -0.310771817E+01
     4
 # iter = 74000  time[fs]=74.00000
   C -0.100408977E+02  0.192681803E+00 -0.734738101E+00
   C  0.103536956E+02 -0.338404408E+00  0.382002425E+00
   H -0.402391596E+02 -0.389835304E+01  0.429451911E+01
   H  0.394196602E+02  0.501014455E+01 -0.313677371E+01
     4
 # iter = 74500  time[fs]=74.50000
   C -0.101438043E+02  0.195045956E+00 -0.742227976E+00
   C  0.104587933E+02 -0.341913206E+00  0.386314195E+00
   H -0.406048765E+02 -0.393388618E+01  0.433373908E+01
   H  0.397763854E+02  0.505612152E+01 -0.316583505E+01
     4
 # iter = 75000  time[fs]=75.00000
   C -0.102467565E+02  0.197411627E+00 -0.749720875E+00
   C  0.105639363E+02 -0.345423739E+00  0.390628853E+00
   H -0.409706468E+02 -0.396942556E+01  0.437296638E+01
   H  0.401331672E+02  0.510210732E+01 -0.319490210E+01
     4
 # iter = 75500  time[fs]=75.50000
   C -0.103497534E+02  0.199778787E+00 -0.757216740E+00
   C  0.106691236E+02 -0.348935975E+00  0.394946346E+00
   H -0.413364692E+02 -0.400497106E+01  0.441220087E+01
   H  0.404900045E+02  0.514810183E+01 -0.322397477E+01
     4
 # iter = 76000  time[fs]=76.00000
   C -0.104527940E+02  0.202147409E+00 -0.764715515E+00
   C  0.107743545E+02 -0.352449883E+00  0.399266619E+00
   H -0.417023431E+02 -0.404052259E+01  0.445144243E+01
   H  0.408468964E+02  0.519410489E+01 -0.325305296E+01
     4
 # iter = 76500  time[fs]=76.50000
   C -0.105558776E+02  0.204517467E+00 -0.772217144E+00
   C  0.108796281E+02 -0.355965434E+00  0.403589620E+00
   H -0.420682675E+02 -0.407608005E+01  0.449069095E+01
   H  0.412038420E+02  0.524011635E+01 -0.328213658E+01
     4
 # iter = 77000  time[fs]=77.00000
   C -0.106590032E+02  0.206888935E+00 -0.779721576E+00
   C  0.109849435E+02 -0.359482598E+00  0.407915299E+00
   H -0.424342416E+02 -0.411164335E+01  0.452994631E+01
   H  0.415608404E+02  0.528613609E+01 -0.331122555E+01
     4
 # iter = 77500  time[fs]=77.50000
   C -0.107621701E+02  0.209261787E+00 -0.787228758E+00
   C  0.110902998E+02 -0.363001347E+00  0.412243605E+00
   H -0.428002644E+02 -0.414721237E+01  0.456920839E+01
   H  0.419178906E+02  0.533216396E+01 -0.334031978E+01
     4
 # iter = 78000  time[fs]=78.00000
   C -0.108653775E+02  0.211636000E+00 -0.794738640E+00
   C  0.111956965E+02 -0.366521653E+00  0.416574491E+00
   H -0.431663352E+02 -0.418278704E+01  0.460847710E+01
   H  0.422749918E+02  0.537819983E+01 -0.336941918E+01
     4
 # iter = 78500  time[fs]=78.50000
   C -0.109686246E+02  0.214011549E+00 -0.802251174E+00
   C  0.113011326E+02 -0.370043489E+00  0.420907911E+00
   H -0.435324533E+02 -0.421836725E+01  0.464775232E+01
   H  0.426321431E+02  0.542424359E+01 -0.339852367E+01
     4
 # iter = 79000  time[fs]=79.00000
   C -0.110719107E+02  0.216388411E+00 -0.809766312E+00
   C  0.114066074E+02 -0.373566829E+00  0.425243818E+00
   H -0.438986178E+02 -0.425395293E+01  0.468703396E+01
   H  0.429893438E+02  0.547029509E+01 -0.342763317E+01
     4
 # iter = 79500  time[fs]=79.50000
   C -0.111752351E+02  0.218766563E+00 -0.817284007E+00
   C  0.115121202E+02 -0.377091648E+00  0.429582167E+00
   H -0.442648279E+02 -0.428954398E+01  0.472632190E+01
   H  0.433465931E+02  0.551635423E+01 -0.345674761E+01
     4
 # iter = 80000  time[fs]=80.00000
   C -0.112785970E+02  0.221145984E+00 -0.824804215E+00
   C  0.116176704E+02 -0.380617920E+00  0.433922918E+00
   H -0.446310829E+02 -0.432514032E+01  0.476561605E+01
   H  0.437038901E+02  0.556242087E+01 -0.348586691E+01
