     4
 # iter = 25000  time[fs]=25.00000
   C -0.974568591E+00  0.702107017E-01 -0.378810657E-01
   C  0.980059134E+00 -0.369542993E-02 -0.964362983E-03
   H -0.523500207E+01 -0.387633732E+00 -0.133318316E+00
   H  0.524700498E+01 -0.287790190E+00  0.401525108E+00
     4
 # iter = 25500  time[fs]=25.50000
   C -0.101902188E+01  0.743654939E-01 -0.386188631E-01
   C  0.102158437E+01 -0.212454421E-02 -0.242870769E-02
   H -0.556593086E+01 -0.413335734E+00 -0.142034009E+00
   H  0.556430519E+01 -0.303009390E+00  0.425105481E+00
     4
 # iter = 26000  time[fs]=26.00000
   C -0.106778378E+01  0.787030378E-01 -0.394359785E-01
   C  0.106741811E+01 -0.704614700E-03 -0.382682610E-02
   H -0.589958389E+01 -0.439267087E+00 -0.150818306E+00
   H  0.588433104E+01 -0.318380787E+00  0.448911559E+00
     4
 # iter = 26500  time[fs]=26.50000
   C -0.112048482E+01  0.832058631E-01 -0.403212821E-01
   C  0.111719015E+01  0.578273170E-03 -0.516837968E-02
   H -0.623565740E+01 -0.465402298E+00 -0.159663948E+00
   H  0.620678736E+01 -0.333887202E+00  0.472918461E+00
     4
 # iter = 27000  time[fs]=27.00000
   C -0.117677489E+01  0.878579624E-01 -0.412651208E-01
   C  0.117054989E+01  0.173714708E-02 -0.646179161E-02
   H -0.657389527E+01 -0.491720029E+00 -0.168564756E+00
   H  0.653142400E+01 -0.349514218E+00  0.497105251E+00
     4
 # iter = 27500  time[fs]=27.50000
   C -0.123632799E+01  0.926448140E-01 -0.422592064E-01
   C  0.122717100E+01  0.278400532E-02 -0.771430955E-02
   H -0.691407961E+01 -0.518202218E+00 -0.177515429E+00
   H  0.685802714E+01 -0.365249615E+00  0.521454141E+00
     4
 # iter = 28000  time[fs]=28.00000
   C -0.129884441E+01  0.975533431E-01 -0.432964709E-01
   C  0.128675352E+01  0.372976593E-02 -0.893211253E-02
   H -0.725602356E+01 -0.544833430E+00 -0.186511390E+00
   H  0.718641267E+01 -0.381082947E+00  0.545949887E+00
     4
 # iter = 28500  time[fs]=28.50000
   C -0.136405123E+01  0.102571841E+00 -0.443709131E-01
   C  0.134902440E+01  0.458427838E-02 -0.101204360E-01
   H -0.759956573E+01 -0.571600363E+00 -0.195548662E+00
   H  0.751642093E+01 -0.397005213E+00  0.570579323E+00
     4
 # iter = 29000  time[fs]=29.00000
   C -0.143170157E+01  0.107689864E+00 -0.454774496E-01
   C  0.141373667E+01  0.535637442E-02 -0.112836991E-01
   H -0.794456573E+01 -0.598491462E+00 -0.204623767E+00
   H  0.784791262E+01 -0.413008600E+00  0.595330996E+00
     4
 # iter = 29500  time[fs]=29.50000
   C -0.150157322E+01  0.112898112E+00 -0.466117772E-01
   C  0.148066807E+01  0.605394128E-02 -0.124256242E-01
   H -0.829090079E+01 -0.625496623E+00 -0.213733646E+00
   H  0.818076549E+01 -0.429086286E+00  0.620194883E+00
     4
 # iter = 30000  time[fs]=30.00000
   C -0.157346674E+01  0.118188319E+00 -0.477702519E-01
   C  0.154961916E+01  0.668400512E-02 -0.135493451E-01
   H -0.863846288E+01 -0.652606954E+00 -0.222875598E+00
   H  0.851487167E+01 -0.445232278E+00  0.645162158E+00
     4
 # iter = 30500  time[fs]=30.50000
   C -0.164720351E+01  0.123553138E+00 -0.489497834E-01
   C  0.162041130E+01  0.725281699E-02 -0.146575011E-01
   H -0.898715649E+01 -0.679814585E+00 -0.232047224E+00
   H  0.885013555E+01 -0.461441280E+00  0.670225007E+00
     4
 # iter = 31000  time[fs]=31.00000
   C -0.172262363E+01  0.128986033E+00 -0.501477452E-01
   C  0.169288464E+01  0.776593621E-02 -0.157523176E-01
   H -0.933689674E+01 -0.707112517E+00 -0.241246384E+00
   H  0.918647196E+01 -0.477708593E+00  0.695376481E+00
     4
 # iter = 31500  time[fs]=31.50000
   C -0.179958403E+01  0.134481189E+00 -0.513618995E-01
   C  0.176689615E+01  0.822830863E-02 -0.168356745E-01
   H -0.968760792E+01 -0.734494494E+00 -0.250471162E+00
   H  0.952380473E+01 -0.494030025E+00  0.720610370E+00
     4
 # iter = 32000  time[fs]=32.00000
   C -0.187795661E+01  0.140033421E+00 -0.525903338E-01
   C  0.184231776E+01  0.864433815E-02 -0.179091636E-01
   H -0.100392222E+02 -0.761954901E+00 -0.259719836E+00
   H  0.986206549E+01 -0.510401822E+00  0.745921099E+00
     4
 # iter = 32500  time[fs]=32.50000
   C -0.195762659E+01  0.145638099E+00 -0.538314084E-01
   C  0.191903474E+01  0.901795109E-02 -0.189741357E-01
   H -0.103916785E+02 -0.789488676E+00 -0.268990852E+00
   H  0.102011926E+02 -0.526820609E+00  0.771303650E+00
     4
 # iter = 33000  time[fs]=33.00000
   C -0.203849097E+01  0.151291083E+00 -0.550837127E-01
   C  0.199694415E+01  0.935265350E-02 -0.200317403E-01
   H -0.107449218E+02 -0.817091243E+00 -0.278282802E+00
   H  0.105411303E+02 -0.543283340E+00  0.796753482E+00
     4
 # iter = 33500  time[fs]=33.50000
   C -0.212045720E+01  0.156988658E+00 -0.563460289E-01
   C  0.207595350E+01  0.965158176E-02 -0.210829587E-01
   H -0.110989022E+02 -0.844758445E+00 -0.287594408E+00
   H  0.108818282E+02 -0.559787256E+00  0.822266477E+00
     4
 # iter = 34000  time[fs]=34.00000
   C -0.220344198E+01  0.162727492E+00 -0.576173020E-01
   C  0.215597953E+01  0.991754698E-02 -0.221286304E-01
   H -0.114535744E+02 -0.872486498E+00 -0.296924507E+00
   H  0.112232401E+02 -0.576329851E+00  0.847838889E+00
     4
 # iter = 34500  time[fs]=34.50000
   C -0.228737018E+01  0.168504579E+00 -0.588966148E-01
   C  0.223694720E+01  0.101530739E-01 -0.231694763E-01
   H -0.118088971E+02 -0.900271947E+00 -0.306272035E+00
   H  0.115653241E+02 -0.592908841E+00  0.873467295E+00
     4
 # iter = 35000  time[fs]=35.00000
   C -0.237217395E+01  0.174317210E+00 -0.601831670E-01
   C  0.231878868E+01  0.103604348E-01 -0.242061168E-01
   H -0.121648326E+02 -0.928111624E+00 -0.315636018E+00
   H  0.119080419E+02 -0.609522141E+00  0.899148566E+00
     4
 # iter = 35500  time[fs]=35.50000
   C -0.245779187E+01  0.180162935E+00 -0.614762583E-01
   C  0.240144262E+01  0.105416792E-01 -0.252390874E-01
   H -0.125213463E+02 -0.956002624E+00 -0.325015562E+00
   H  0.122513582E+02 -0.626167839E+00  0.924879827E+00
     4
 # iter = 36000  time[fs]=36.00000
   C -0.254416820E+01  0.186039531E+00 -0.627752735E-01
   C  0.248485334E+01  0.106986597E-01 -0.262688517E-01
   H -0.128784066E+02 -0.983942268E+00 -0.334409842E+00
   H  0.125952407E+02 -0.642844178E+00  0.950658436E+00
     4
 # iter = 36500  time[fs]=36.50000
   C -0.263125234E+01  0.191944979E+00 -0.640796702E-01
   C  0.256897028E+01  0.108330542E-01 -0.272958120E-01
   H -0.132359842E+02 -0.101192809E+01 -0.343818101E+00
   H  0.129396595E+02 -0.659549541E+00  0.976481954E+00
     4
 # iter = 37000  time[fs]=37.00000
   C -0.271899817E+01  0.197877442E+00 -0.653889693E-01
   C  0.265374739E+01  0.109463861E-01 -0.283203184E-01
   H -0.135940523E+02 -0.103995780E+01 -0.353239635E+00
   H  0.132845870E+02 -0.676282438E+00  0.100234813E+01
     4
 # iter = 37500  time[fs]=37.50000
   C -0.280736363E+01  0.203835243E+00 -0.667027457E-01
   C  0.273914265E+01  0.110400409E-01 -0.293426763E-01
   H -0.139525858E+02 -0.106802929E+01 -0.362673795E+00
   H  0.136299979E+02 -0.693041488E+00  0.102825487E+01
     4
 # iter = 38000  time[fs]=38.00000
   C -0.289631029E+01  0.209816849E+00 -0.680206213E-01
   C  0.282511768E+01  0.111152816E-01 -0.303631527E-01
   H -0.143115619E+02 -0.109614058E+01 -0.372119977E+00
   H  0.139758683E+02 -0.709825414E+00  0.105420026E+01
     4
 # iter = 38500  time[fs]=38.50000
   C -0.298580293E+01  0.215820853E+00 -0.693422592E-01
   C  0.291163730E+01  0.111732619E-01 -0.313819815E-01
   H -0.146709590E+02 -0.112428986E+01 -0.381577620E+00
   H  0.143221765E+02 -0.726633029E+00  0.108018247E+01
     4
 # iter = 39000  time[fs]=39.00000
   C -0.307580925E+01  0.221845968E+00 -0.706673576E-01
   C  0.299866926E+01  0.112150372E-01 -0.323993683E-01
   H -0.150307574E+02 -0.115247541E+01 -0.391046201E+00
   H  0.146689020E+02 -0.743463228E+00  0.110619985E+01
     4
 # iter = 39500  time[fs]=39.50000
   C -0.316629955E+01  0.227891007E+00 -0.719956461E-01
   C  0.308618391E+01  0.112415756E-01 -0.334154938E-01
   H -0.153909385E+02 -0.118069564E+01 -0.400525232E+00
   H  0.150160258E+02 -0.760314985E+00  0.113225082E+01
     4
 # iter = 40000  time[fs]=40.00000
   C -0.325724651E+01  0.233954877E+00 -0.733268814E-01
   C  0.317415396E+01  0.112537659E-01 -0.344305176E-01
   H -0.157514849E+02 -0.120894907E+01 -0.410014257E+00
   H  0.153635300E+02 -0.777187340E+00  0.115833394E+01
     4
 # iter = 40500  time[fs]=40.50000
   C -0.334862489E+01  0.240036568E+00 -0.746608444E-01
   C  0.326255422E+01  0.112524264E-01 -0.354445805E-01
   H -0.161123807E+02 -0.123723431E+01 -0.419512851E+00
   H  0.157113981E+02 -0.794079396E+00  0.118444781E+01
     4
 # iter = 41000  time[fs]=41.00000
   C -0.344041141E+01  0.246135149E+00 -0.759973369E-01
   C  0.335136144E+01  0.112383113E-01 -0.364578072E-01
   H -0.164736107E+02 -0.126555005E+01 -0.429020614E+00
   H  0.160596146E+02 -0.810990314E+00  0.121059118E+01
     4
 # iter = 41500  time[fs]=41.50000
   C -0.353258452E+01  0.252249754E+00 -0.773361796E-01
   C  0.344055410E+01  0.112121169E-01 -0.374703081E-01
   H -0.168351608E+02 -0.129389505E+01 -0.438537170E+00
   H  0.164081648E+02 -0.827919307E+00  0.123676284E+01
     4
 # iter = 42000  time[fs]=42.00000
   C -0.362512421E+01  0.258379583E+00 -0.786772095E-01
   C  0.353011225E+01  0.111744872E-01 -0.384821814E-01
   H -0.171970177E+02 -0.132226818E+01 -0.448062167E+00
   H  0.167570351E+02 -0.844865636E+00  0.126296164E+01
     4
 # iter = 42500  time[fs]=42.50000
   C -0.371801196E+01  0.264523889E+00 -0.800202785E-01
   C  0.362001738E+01  0.111260191E-01 -0.394935141E-01
   H -0.175591690E+02 -0.135066833E+01 -0.457595273E+00
   H  0.171062126E+02 -0.861828608E+00  0.128918655E+01
     4
 # iter = 43000  time[fs]=43.00000
   C -0.381123053E+01  0.270681980E+00 -0.813652516E-01
   C  0.371025229E+01  0.110672660E-01 -0.405043840E-01
   H -0.179216029E+02 -0.137909450E+01 -0.467136176E+00
   H  0.174556852E+02 -0.878807569E+00  0.131543654E+01
     4
 # iter = 43500  time[fs]=43.50000
   C -0.390476385E+01  0.276853210E+00 -0.827120055E-01
   C  0.380080095E+01  0.109987424E-01 -0.415148602E-01
   H -0.182843084E+02 -0.140754570E+01 -0.476684582E+00
   H  0.178054415E+02 -0.895801904E+00  0.134171068E+01
     4
 # iter = 44000  time[fs]=44.00000
   C -0.399859697E+01  0.283036974E+00 -0.840604272E-01
   C  0.389164843E+01  0.109209268E-01 -0.425250043E-01
   H -0.186472751E+02 -0.143602103E+01 -0.486240211E+00
   H  0.181554707E+02 -0.912811032E+00  0.136800808E+01
     4
 # iter = 44500  time[fs]=44.50000
   C -0.409271593E+01  0.289232711E+00 -0.854104133E-01
   C  0.398278080E+01  0.108342653E-01 -0.435348716E-01
   H -0.190104932E+02 -0.146451962E+01 -0.495802800E+00
   H  0.185057627E+02 -0.929834404E+00  0.139432788E+01
     4
 # iter = 45000  time[fs]=45.00000
   C -0.418710767E+01  0.295439891E+00 -0.867618687E-01
   C  0.407418502E+01  0.107391741E-01 -0.445445113E-01
   H -0.193739533E+02 -0.149304066E+01 -0.505372102E+00
   H  0.188563078E+02 -0.946871503E+00  0.142066930E+01
     4
 # iter = 45500  time[fs]=45.50000
   C -0.428175997E+01  0.301658021E+00 -0.881147061E-01
   C  0.416584892E+01  0.106360420E-01 -0.455539675E-01
   H -0.197376468E+02 -0.152158337E+01 -0.514947879E+00
   H  0.192070970E+02 -0.963921838E+00  0.144703157E+01
     4
 # iter = 46000  time[fs]=46.00000
   C -0.437666138E+01  0.307886637E+00 -0.894688448E-01
   C  0.425776106E+01  0.105252326E-01 -0.465632796E-01
   H -0.201015654E+02 -0.155014702E+01 -0.524529909E+00
   H  0.195581217E+02 -0.980984944E+00  0.147341399E+01
     4
 # iter = 46500  time[fs]=46.50000
   C -0.447180118E+01  0.314125304E+00 -0.908242104E-01
   C  0.434991074E+01  0.104070867E-01 -0.475724830E-01
   H -0.204657010E+02 -0.157873089E+01 -0.534117980E+00
   H  0.199093736E+02 -0.998060380E+00  0.149981586E+01
     4
 # iter = 47000  time[fs]=47.00000
   C -0.456716927E+01  0.320373611E+00 -0.921807341E-01
   C  0.444228789E+01  0.102819238E-01 -0.485816094E-01
   H -0.208300464E+02 -0.160733434E+01 -0.543711889E+00
   H  0.202608451E+02 -0.101514773E+01  0.152623655E+01
     4
 # iter = 47500  time[fs]=47.50000
   C -0.466275616E+01  0.326631173E+00 -0.935383524E-01
   C  0.453488305E+01  0.101500438E-01 -0.495906872E-01
   H -0.211945943E+02 -0.163595673E+01 -0.553311445E+00
   H  0.206125287E+02 -0.103224659E+01  0.155267543E+01
     4
 # iter = 48000  time[fs]=48.00000
   C -0.475855295E+01  0.332897626E+00 -0.948970062E-01
   C  0.462768731E+01  0.100117286E-01 -0.505997418E-01
   H -0.215593381E+02 -0.166459746E+01 -0.562916466E+00
   H  0.209644175E+02 -0.104935659E+01  0.157913193E+01
     4
 # iter = 48500  time[fs]=48.50000
   C -0.485455120E+01  0.339172629E+00 -0.962566406E-01
   C  0.472069230E+01  0.986724332E-02 -0.516087961E-01
   H -0.219242713E+02 -0.169325596E+01 -0.572526778E+00
   H  0.213165047E+02 -0.106647737E+01  0.160560548E+01
     4
 # iter = 49000  time[fs]=49.00000
   C -0.495074301E+01  0.345455855E+00 -0.976172048E-01
   C  0.481389010E+01  0.971683791E-02 -0.526178705E-01
   H -0.222893878E+02 -0.172193167E+01 -0.582142216E+00
   H  0.216687841E+02 -0.108360858E+01  0.163209555E+01
     4
 # iter = 49500  time[fs]=49.50000
   C -0.504712086E+01  0.351747001E+00 -0.989786513E-01
   C  0.490727323E+01  0.956074786E-02 -0.536269836E-01
   H -0.226546818E+02 -0.175062408E+01 -0.591762622E+00
   H  0.220212497E+02 -0.110074990E+01  0.165860165E+01
     4
 # iter = 50000  time[fs]=50.00000
   C -0.514367770E+01  0.358045775E+00 -0.100340936E+00
   C  0.500083464E+01  0.939919545E-02 -0.546361517E-01
   H -0.230201478E+02 -0.177933269E+01 -0.601387844E+00
   H  0.223738955E+02 -0.111790102E+01  0.168512328E+01
     4
 # iter = 50500  time[fs]=50.50000
   C -0.524040682E+01  0.364351903E+00 -0.101704017E+00
   C  0.509456767E+01  0.923239067E-02 -0.556453896E-01
   H -0.233857804E+02 -0.180805702E+01 -0.611017741E+00
   H  0.227267162E+02 -0.113506164E+01  0.171165998E+01
     4
 # iter = 51000  time[fs]=51.00000
   C -0.533730188E+01  0.370665125E+00 -0.103067857E+00
   C  0.518846597E+01  0.906053207E-02 -0.566547105E-01
   H -0.237515747E+02 -0.183679662E+01 -0.620652173E+00
   H  0.230797065E+02 -0.115223147E+01  0.173821131E+01
     4
 # iter = 51500  time[fs]=51.50000
   C -0.543435689E+01  0.376985195E+00 -0.104432418E+00
   C  0.528252357E+01  0.888380756E-02 -0.576641263E-01
   H -0.241175259E+02 -0.186555105E+01 -0.630291010E+00
   H  0.234328613E+02 -0.116941025E+01  0.176477685E+01
     4
 # iter = 52000  time[fs]=52.00000
   C -0.553156615E+01  0.383311877E+00 -0.105797668E+00
   C  0.537673480E+01  0.870239512E-02 -0.586736475E-01
   H -0.244836292E+02 -0.189431989E+01 -0.639934125E+00
   H  0.237861759E+02 -0.118659772E+01  0.179135620E+01
     4
 # iter = 52500  time[fs]=52.50000
   C -0.562892426E+01  0.389644950E+00 -0.107163575E+00
   C  0.547109425E+01  0.851646349E-02 -0.596832836E-01
   H -0.248498803E+02 -0.192310275E+01 -0.649581397E+00
   H  0.241396457E+02 -0.120379362E+01  0.181794896E+01
     4
 # iter = 53000  time[fs]=53.00000
   C -0.572642607E+01  0.395984201E+00 -0.108530109E+00
   C  0.556559681E+01  0.832617278E-02 -0.606930429E-01
   H -0.252162749E+02 -0.195189924E+01 -0.659232713E+00
   H  0.244932661E+02 -0.122099772E+01  0.184455477E+01
     4
 # iter = 53500  time[fs]=53.50000
   C -0.582406671E+01  0.402329429E+00 -0.109897242E+00
   C  0.566023762E+01  0.813167500E-02 -0.617029330E-01
   H -0.255828091E+02 -0.198070899E+01 -0.668887959E+00
   H  0.248470332E+02 -0.123820980E+01  0.187117327E+01
     4
 # iter = 54000  time[fs]=54.00000
   C -0.592184154E+01  0.408680441E+00 -0.111264948E+00
   C  0.575501204E+01  0.793311464E-02 -0.627129606E-01
   H -0.259494789E+02 -0.200953166E+01 -0.678547031E+00
   H  0.252009427E+02 -0.125542962E+01  0.189780411E+01
     4
 # iter = 54500  time[fs]=54.50000
   C -0.601974613E+01  0.415037055E+00 -0.112633202E+00
   C  0.584991567E+01  0.773062909E-02 -0.637231314E-01
   H -0.263162807E+02 -0.203836689E+01 -0.688209826E+00
   H  0.255549908E+02 -0.127265699E+01  0.192444698E+01
     4
 # iter = 55000  time[fs]=55.00000
   C -0.611777628E+01  0.421399095E+00 -0.114001980E+00
   C  0.594494431E+01  0.752434912E-02 -0.647334507E-01
   H -0.266832107E+02 -0.206721437E+01 -0.697876247E+00
   H  0.259091738E+02 -0.128989170E+01  0.195110155E+01
     4
 # iter = 55500  time[fs]=55.50000
   C -0.621592796E+01  0.427766395E+00 -0.115371262E+00
   C  0.604009396E+01  0.731439928E-02 -0.657439231E-01
   H -0.270502658E+02 -0.209607379E+01 -0.707546198E+00
   H  0.262634881E+02 -0.130713356E+01  0.197776752E+01
     4
 # iter = 56000  time[fs]=56.00000
   C -0.631419735E+01  0.434138796E+00 -0.116741025E+00
   C  0.613536079E+01  0.710089827E-02 -0.667545526E-01
   H -0.274174424E+02 -0.212494483E+01 -0.717219590E+00
   H  0.266179302E+02 -0.132438239E+01  0.200444461E+01
     4
 # iter = 56500  time[fs]=56.50000
   C -0.641258078E+01  0.440516145E+00 -0.118111252E+00
   C  0.623074116E+01  0.688395930E-02 -0.677653426E-01
   H -0.277847375E+02 -0.215382721E+01 -0.726896335E+00
   H  0.269724970E+02 -0.134163799E+01  0.203113252E+01
     4
 # iter = 57000  time[fs]=57.00000
   C -0.651107478E+01  0.446898296E+00 -0.119481922E+00
   C  0.632623159E+01  0.666369042E-02 -0.687762962E-01
   H -0.281521481E+02 -0.218272065E+01 -0.736576349E+00
   H  0.273271851E+02 -0.135890021E+01  0.205783100E+01
     4
 # iter = 57500  time[fs]=57.50000
   C -0.660967598E+01  0.453285111E+00 -0.120853019E+00
   C  0.642182876E+01  0.644019480E-02 -0.697874160E-01
   H -0.285196712E+02 -0.221162489E+01 -0.746259552E+00
   H  0.276819915E+02 -0.137616887E+01  0.208453978E+01
     4
 # iter = 58000  time[fs]=58.00000
   C -0.670838121E+01  0.459676456E+00 -0.122224526E+00
   C  0.651752946E+01  0.621357106E-02 -0.707987041E-01
   H -0.288873039E+02 -0.224053966E+01 -0.755945867E+00
   H  0.280369133E+02 -0.139344382E+01  0.211125861E+01
     4
 # iter = 58500  time[fs]=58.50000
   C -0.680718740E+01  0.466072202E+00 -0.123596427E+00
   C  0.661333067E+01  0.598391347E-02 -0.718101625E-01
   H -0.292550436E+02 -0.226946471E+01 -0.765635217E+00
   H  0.283919477E+02 -0.141072491E+01  0.213798725E+01
     4
 # iter = 59000  time[fs]=59.00000
   C -0.690609162E+01  0.472472228E+00 -0.124968708E+00
   C  0.670922945E+01  0.575131224E-02 -0.728217926E-01
   H -0.296228877E+02 -0.229839979E+01 -0.775327531E+00
   H  0.287470918E+02 -0.142801198E+01  0.216472547E+01
     4
 # iter = 59500  time[fs]=59.50000
   C -0.700509107E+01  0.478876415E+00 -0.126341354E+00
   C  0.680522303E+01  0.551585370E-02 -0.738335958E-01
   H -0.299908336E+02 -0.232734469E+01 -0.785022738E+00
   H  0.291023432E+02 -0.144530489E+01  0.219147304E+01
     4
 # iter = 60000  time[fs]=60.00000
   C -0.710418307E+01  0.485284651E+00 -0.127714352E+00
   C  0.690130870E+01  0.527762057E-02 -0.748455729E-01
   H -0.303588790E+02 -0.235629917E+01 -0.794720773E+00
   H  0.294576991E+02 -0.146260351E+01  0.221822975E+01
     4
 # iter = 60500  time[fs]=60.50000
   C -0.720336502E+01  0.491696827E+00 -0.129087689E+00
   C  0.699748391E+01  0.503669212E-02 -0.758577248E-01
   H -0.307270214E+02 -0.238526302E+01 -0.804421569E+00
   H  0.298131573E+02 -0.147990770E+01  0.224499538E+01
     4
 # iter = 61000  time[fs]=61.00000
   C -0.730263446E+01  0.498112838E+00 -0.130461352E+00
   C  0.709374619E+01  0.479314436E-02 -0.768700520E-01
   H -0.310952586E+02 -0.241423602E+01 -0.814125063E+00
   H  0.301687152E+02 -0.149721734E+01  0.227176974E+01
     4
 # iter = 61500  time[fs]=61.50000
   C -0.740198900E+01  0.504532586E+00 -0.131835331E+00
   C  0.719009317E+01  0.454705021E-02 -0.778825547E-01
   H -0.314635884E+02 -0.244321798E+01 -0.823831196E+00
   H  0.305243707E+02 -0.151453229E+01  0.229855263E+01
     4
 # iter = 62000  time[fs]=62.00000
   C -0.750142637E+01  0.510955973E+00 -0.133209615E+00
   C  0.728652257E+01  0.429847968E-02 -0.788952332E-01
   H -0.318320088E+02 -0.247220869E+01 -0.833539909E+00
   H  0.308801215E+02 -0.153185245E+01  0.232534386E+01
     4
 # iter = 62500  time[fs]=62.50000
   C -0.760094437E+01  0.517382907E+00 -0.134584192E+00
   C  0.738303221E+01  0.404749999E-02 -0.799080874E-01
   H -0.322005176E+02 -0.250120797E+01 -0.843251144E+00
   H  0.312359654E+02 -0.154917769E+01  0.235214325E+01
     4
 # iter = 63000  time[fs]=63.00000
   C -0.770054088E+01  0.523813298E+00 -0.135959054E+00
   C  0.747961998E+01  0.379417574E-02 -0.809211172E-01
   H -0.325691129E+02 -0.253021563E+01 -0.852964847E+00
   H  0.315919005E+02 -0.156650790E+01  0.237895062E+01
     4
 # iter = 63500  time[fs]=63.50000
   C -0.780021389E+01  0.530247061E+00 -0.137334190E+00
   C  0.757628386E+01  0.353856903E-02 -0.819343222E-01
   H -0.329377928E+02 -0.255923149E+01 -0.862680965E+00
   H  0.319479247E+02 -0.158384298E+01  0.240576581E+01
     4
 # iter = 64000  time[fs]=64.00000
   C -0.789996142E+01  0.536684113E+00 -0.138709591E+00
   C  0.767302191E+01  0.328073958E-02 -0.829477021E-01
   H -0.333065554E+02 -0.258825539E+01 -0.872399447E+00
   H  0.323040361E+02 -0.160118282E+01  0.243258864E+01
     4
 # iter = 64500  time[fs]=64.50000
   C -0.799978161E+01  0.543124374E+00 -0.140085248E+00
   C  0.776983224E+01  0.302074486E-02 -0.839612563E-01
   H -0.336753991E+02 -0.261728716E+01 -0.882120242E+00
   H  0.326602327E+02 -0.161852731E+01  0.245941895E+01
     4
 # iter = 65000  time[fs]=65.00000
   C -0.809967263E+01  0.549567767E+00 -0.141461154E+00
   C  0.786671306E+01  0.275864020E-02 -0.849749842E-01
   H -0.340443219E+02 -0.264632663E+01 -0.891843303E+00
   H  0.330165129E+02 -0.163587637E+01  0.248625659E+01
     4
 # iter = 65500  time[fs]=65.50000
   C -0.819963274E+01  0.556014217E+00 -0.142837301E+00
   C  0.796366261E+01  0.249447887E-02 -0.859888850E-01
   H -0.344133224E+02 -0.267537365E+01 -0.901568583E+00
   H  0.333728748E+02 -0.165322989E+01  0.251310141E+01
     4
 # iter = 66000  time[fs]=66.00000
   C -0.829966025E+01  0.562463654E+00 -0.144213680E+00
   C  0.806067923E+01  0.222831221E-02 -0.870029580E-01
   H -0.347823987E+02 -0.270442806E+01 -0.911296036E+00
   H  0.337293168E+02 -0.167058778E+01  0.253995327E+01
     4
 # iter = 66500  time[fs]=66.50000
   C -0.839975355E+01  0.568916007E+00 -0.145590285E+00
   C  0.815776130E+01  0.196018970E-02 -0.880172024E-01
   H -0.351515495E+02 -0.273348972E+01 -0.921025619E+00
   H  0.340858372E+02 -0.168794996E+01  0.256681201E+01
     4
 # iter = 67000  time[fs]=67.00000
   C -0.849991106E+01  0.575371211E+00 -0.146967108E+00
   C  0.825490724E+01  0.169015905E-02 -0.890316171E-01
   H -0.355207731E+02 -0.276255848E+01 -0.930757289E+00
   H  0.344424343E+02 -0.170531633E+01  0.259367751E+01
     4
 # iter = 67500  time[fs]=67.50000
   C -0.860013126E+01  0.581829199E+00 -0.148344143E+00
   C  0.835211556E+01  0.141826630E-02 -0.900462011E-01
   H -0.358900680E+02 -0.279163422E+01 -0.940491004E+00
   H  0.347991067E+02 -0.172268682E+01  0.262054964E+01
     4
 # iter = 68000  time[fs]=68.00000
   C -0.870041270E+01  0.588289911E+00 -0.149721384E+00
   C  0.844938480E+01  0.114455586E-02 -0.910609535E-01
   H -0.362594330E+02 -0.282071678E+01 -0.950226725E+00
   H  0.351558529E+02 -0.174006134E+01  0.264742825E+01
     4
 # iter = 68500  time[fs]=68.50000
   C -0.880075396E+01  0.594753285E+00 -0.151098824E+00
   C  0.854671355E+01  0.869070618E-03 -0.920758731E-01
   H -0.366288664E+02 -0.284980604E+01 -0.959964413E+00
   H  0.355126713E+02 -0.175743981E+01  0.267431323E+01
     4
 # iter = 69000  time[fs]=69.00000
   C -0.890115368E+01  0.601219263E+00 -0.152476458E+00
   C  0.864410045E+01  0.591852000E-03 -0.930909588E-01
   H -0.369983671E+02 -0.287890188E+01 -0.969704029E+00
   H  0.358695607E+02 -0.177482215E+01  0.270120445E+01
     4
 # iter = 69500  time[fs]=69.50000
   C -0.900161053E+01  0.607687788E+00 -0.153854279E+00
   C  0.874154419E+01  0.312940020E-03 -0.941062094E-01
   H -0.373679337E+02 -0.290800416E+01 -0.979445537E+00
   H  0.362265195E+02 -0.179220830E+01  0.272810180E+01
     4
 # iter = 70000  time[fs]=70.00000
   C -0.910212325E+01  0.614158806E+00 -0.155232283E+00
   C  0.883904349E+01  0.323733568E-04 -0.951216238E-01
   H -0.377375649E+02 -0.293711278E+01 -0.989188902E+00
   H  0.365835465E+02 -0.180959817E+01  0.275500516E+01
     4
 # iter = 70500  time[fs]=70.50000
   C -0.920269060E+01  0.620632264E+00 -0.156610465E+00
   C  0.893659713E+01 -0.249810595E-03 -0.961372006E-01
   H -0.381072594E+02 -0.296622760E+01 -0.998934088E+00
   H  0.369406403E+02 -0.182699170E+01  0.278191442E+01
     4
 # iter = 71000  time[fs]=71.00000
   C -0.930331137E+01  0.627108111E+00 -0.157988818E+00
   C  0.903420392E+01 -0.533575665E-03 -0.971529386E-01
   H -0.384770162E+02 -0.299534853E+01 -0.100868106E+01
   H  0.372977998E+02 -0.184438882E+01  0.280882946E+01
     4
 # iter = 71500  time[fs]=71.50000
   C -0.940398443E+01  0.633586296E+00 -0.159367339E+00
   C  0.913186271E+01 -0.818886859E-03 -0.981688366E-01
   H -0.388468340E+02 -0.302447544E+01 -0.101842979E+01
   H  0.376550236E+02 -0.186178947E+01  0.283575020E+01
     4
 # iter = 72000  time[fs]=72.00000
   C -0.950470863E+01  0.640066772E+00 -0.160746023E+00
   C  0.922957237E+01 -0.110571031E-02 -0.991848932E-01
   H -0.392167117E+02 -0.305360823E+01 -0.102818024E+01
   H  0.380123106E+02 -0.187919357E+01  0.286267651E+01
     4
 # iter = 72500  time[fs]=72.50000
   C -0.960548291E+01  0.646549491E+00 -0.162124865E+00
   C  0.932733184E+01 -0.139401322E-02 -0.100201107E+00
   H -0.395866481E+02 -0.308274680E+01 -0.103793239E+01
   H  0.383696597E+02 -0.189660106E+01  0.288960830E+01
     4
 # iter = 73000  time[fs]=73.00000
   C -0.970630620E+01  0.653034408E+00 -0.163503861E+00
   C  0.942514005E+01 -0.168376384E-02 -0.101217477E+00
   H -0.399566423E+02 -0.311189104E+01 -0.104768619E+01
   H  0.387270696E+02 -0.191401189E+01  0.291654547E+01
     4
 # iter = 73500  time[fs]=73.50000
   C -0.980717750E+01  0.659521480E+00 -0.164883007E+00
   C  0.952299600E+01 -0.197493139E-02 -0.102234002E+00
   H -0.403266932E+02 -0.314104086E+01 -0.105744163E+01
   H  0.390845394E+02 -0.193142599E+01  0.294348794E+01
     4
 # iter = 74000  time[fs]=74.00000
   C -0.990809580E+01  0.666010663E+00 -0.166262300E+00
   C  0.962089871E+01 -0.226748607E-02 -0.103250680E+00
   H -0.406967996E+02 -0.317019615E+01 -0.106719867E+01
   H  0.394420679E+02 -0.194884331E+01  0.297043560E+01
     4
 # iter = 74500  time[fs]=74.50000
   C -0.100090602E+02  0.672501917E+00 -0.167641734E+00
   C  0.971884721E+01 -0.256139896E-02 -0.104267510E+00
   H -0.410669608E+02 -0.319935683E+01 -0.107695729E+01
   H  0.397996541E+02 -0.196626378E+01  0.299738836E+01
     4
 # iter = 75000  time[fs]=75.00000
   C -0.101100696E+02  0.678995200E+00 -0.169021307E+00
   C  0.981684058E+01 -0.285664205E-02 -0.105284490E+00
   H -0.414371757E+02 -0.322852280E+01 -0.108671746E+01
   H  0.401572970E+02 -0.198368736E+01  0.302434614E+01
     4
 # iter = 75500  time[fs]=75.50000
   C -0.102111233E+02  0.685490474E+00 -0.170401014E+00
   C  0.991487793E+01 -0.315318815E-02 -0.106301620E+00
   H -0.418074433E+02 -0.325769398E+01 -0.109647915E+01
   H  0.405149955E+02 -0.200111400E+01  0.305130886E+01
     4
 # iter = 76000  time[fs]=76.00000
   C -0.103122204E+02  0.691987701E+00 -0.171780853E+00
   C  0.100129584E+02 -0.345101088E-02 -0.107318898E+00
   H -0.421777627E+02 -0.328687026E+01 -0.110624233E+01
   H  0.408727489E+02 -0.201854362E+01  0.307827642E+01
     4
 # iter = 76500  time[fs]=76.50000
   C -0.104133599E+02  0.698486844E+00 -0.173160821E+00
   C  0.101110811E+02 -0.375008465E-02 -0.108336322E+00
   H -0.425481332E+02 -0.331605158E+01 -0.111600699E+01
   H  0.412305560E+02 -0.203597620E+01  0.310524875E+01
     4
 # iter = 77000  time[fs]=77.00000
   C -0.105145411E+02  0.704987866E+00 -0.174540913E+00
   C  0.102092452E+02 -0.405038460E-02 -0.109353892E+00
   H -0.429185537E+02 -0.334523785E+01 -0.112577309E+01
   H  0.415884160E+02 -0.205341167E+01  0.313222577E+01
     4
 # iter = 77500  time[fs]=77.50000
   C -0.106157631E+02  0.711490734E+00 -0.175921127E+00
   C  0.103074500E+02 -0.435188661E-02 -0.110371605E+00
   H -0.432890234E+02 -0.337442898E+01 -0.113554062E+01
   H  0.419463280E+02 -0.207085000E+01  0.315920740E+01
     4
 # iter = 78000  time[fs]=78.00000
   C -0.107170252E+02  0.717995413E+00 -0.177301460E+00
   C  0.104056946E+02 -0.465456723E-02 -0.111389461E+00
   H -0.436595416E+02 -0.340362490E+01 -0.114530955E+01
   H  0.423042911E+02 -0.208829112E+01  0.318619357E+01
     4
 # iter = 78500  time[fs]=78.50000
   C -0.108183267E+02  0.724501869E+00 -0.178681909E+00
   C  0.105039783E+02 -0.495840370E-02 -0.112407458E+00
   H -0.440301074E+02 -0.343282553E+01 -0.115507985E+01
   H  0.426623046E+02 -0.210573501E+01  0.321318420E+01
     4
 # iter = 79000  time[fs]=79.00000
   C -0.109196667E+02  0.731010072E+00 -0.180062471E+00
   C  0.106023004E+02 -0.526337388E-02 -0.113425595E+00
   H -0.444007201E+02 -0.346203080E+01 -0.116485151E+01
   H  0.430203675E+02 -0.212318160E+01  0.324017922E+01
     4
 # iter = 79500  time[fs]=79.50000
   C -0.110210446E+02  0.737519989E+00 -0.181443143E+00
   C  0.107006601E+02 -0.556945627E-02 -0.114443871E+00
   H -0.447713788E+02 -0.349124063E+01 -0.117462450E+01
   H  0.433784790E+02 -0.214063086E+01  0.326717856E+01
     4
 # iter = 80000  time[fs]=80.00000
   C -0.111224597E+02  0.744031591E+00 -0.182823924E+00
   C  0.107990568E+02 -0.587662994E-02 -0.115462283E+00
   H -0.451420828E+02 -0.352045494E+01 -0.118439880E+01
   H  0.437366385E+02 -0.215808274E+01  0.329418215E+01
