     4
 # iter = 25000  time[fs]=25.00000
   C -0.994998277E+00  0.104532082E-01  0.124891237E-01
   C  0.976290294E+00 -0.145419446E-01 -0.171958962E-01
   H -0.537803356E+01 -0.422762840E+00 -0.540413565E+00
   H  0.526408862E+01 -0.214280678E+00  0.230041791E+00
     4
 # iter = 25500  time[fs]=25.50000
   C -0.104012437E+01  0.126463352E-01  0.149792463E-01
   C  0.101605756E+01 -0.137303597E-01 -0.175791501E-01
   H -0.570555148E+01 -0.446685532E+00 -0.572814037E+00
   H  0.558056346E+01 -0.225660166E+00  0.246970754E+00
     4
 # iter = 26000  time[fs]=26.00000
   C -0.108806579E+01  0.149031677E-01  0.175398222E-01
   C  0.105856585E+01 -0.129306760E-01 -0.180154808E-01
   H -0.603787892E+01 -0.470997429E+00 -0.605725736E+00
   H  0.590273947E+01 -0.237272100E+00  0.264202426E+00
     4
 # iter = 26500  time[fs]=26.50000
   C -0.113859457E+01  0.172180437E-01  0.201662182E-01
   C  0.110359606E+01 -0.121429724E-01 -0.185022075E-01
   H -0.637449621E+01 -0.495655655E+00 -0.639093228E+00
   H  0.622999047E+01 -0.249090466E+00  0.281704802E+00
     4
 # iter = 27000  time[fs]=27.00000
   C -0.119149778E+01  0.195858966E-01  0.228540890E-01
   C  0.115094278E+01 -0.113670524E-01 -0.190366364E-01
   H -0.671495916E+01 -0.520623817E+00 -0.672869307E+00
   H  0.656178230E+01 -0.261093216E+00  0.299450494E+00
     4
 # iter = 27500  time[fs]=27.50000
   C -0.124657848E+01  0.220021855E-01  0.255993618E-01
   C  0.120041543E+01 -0.106025378E-01 -0.196161031E-01
   H -0.705888578E+01 -0.545870789E+00 -0.707013492E+00
   H  0.689765650E+01 -0.273261523E+00  0.317415921E+00
     4
 # iter = 28000  time[fs]=28.00000
   C -0.130365584E+01  0.244628368E-01  0.283982264E-01
   C  0.125183863E+01 -0.984893720E-02 -0.202380070E-01
   H -0.740594568E+01 -0.571369770E+00 -0.741490842E+00
   H  0.723721736E+01 -0.285579202E+00  0.335580658E+00
     4
 # iter = 28500  time[fs]=28.50000
   C -0.136256472E+01  0.269641930E-01  0.312471278E-01
   C  0.130505190E+01 -0.910569473E-02 -0.208998387E-01
   H -0.775585150E+01 -0.597097536E+00 -0.776271014E+00
   H  0.758012139E+01 -0.298032256E+00  0.353926910E+00
     4
 # iter = 29000  time[fs]=29.00000
   C -0.142315484E+01  0.295029664E-01  0.341427567E-01
   C  0.135990901E+01 -0.837222477E-02 -0.215991988E-01
   H -0.810835206E+01 -0.623033845E+00 -0.811327510E+00
   H  0.792606892E+01 -0.310608506E+00  0.372439096E+00
     4
 # iter = 29500  time[fs]=29.50000
   C -0.148528981E+01  0.320761995E-01  0.370820404E-01
   C  0.141627710E+01 -0.764793580E-02 -0.223338101E-01
   H -0.846322672E+01 -0.649160957E+00 -0.846637071E+00
   H  0.827479723E+01 -0.323297296E+00  0.391103504E+00
     4
 # iter = 30000  time[fs]=30.00000
   C -0.154884608E+01  0.346812282E-01  0.400621307E-01
   C  0.147403565E+01 -0.693224646E-02 -0.231015240E-01
   H -0.882028078E+01 -0.675463248E+00 -0.882179177E+00
   H  0.862607486E+01 -0.336089258E+00  0.409908010E+00
     4
 # iter = 30500  time[fs]=30.50000
   C -0.161371178E+01  0.373156498E-01  0.430803918E-01
   C  0.153307549E+01 -0.622459586E-02 -0.239003229E-01
   H -0.917934170E+01 -0.701926892E+00 -0.917935646E+00
   H  0.897969706E+01 -0.348976117E+00  0.428841846E+00
     4
 # iter = 31000  time[fs]=31.00000
   C -0.167978568E+01  0.399772941E-01  0.461343873E-01
   C  0.159329775E+01 -0.552444999E-02 -0.247283184E-01
   H -0.954025595E+01 -0.728539600E+00 -0.953890298E+00
   H  0.933548193E+01 -0.361950528E+00  0.447895415E+00
     4
 # iter = 31500  time[fs]=31.50000
   C -0.174697615E+01  0.426641983E-01  0.492218662E-01
   C  0.165461290E+01 -0.483130517E-02 -0.255837485E-01
   H -0.990288639E+01 -0.755290407E+00 -0.990028674E+00
   H  0.969326725E+01 -0.375005946E+00  0.467060121E+00
     4
 # iter = 32000  time[fs]=32.00000
   C -0.181520018E+01  0.453745838E-01  0.523407501E-01
   C  0.171693978E+01 -0.414468956E-02 -0.264649719E-01
   H -0.102671101E+02 -0.782169486E+00 -0.102633781E+01
   H  0.100529078E+02 -0.388136518E+00  0.486328247E+00
     4
 # iter = 32500  time[fs]=32.50000
   C -0.188438255E+01  0.481068369E-01  0.554891202E-01
   C  0.178020481E+01 -0.346416338E-02 -0.273704622E-01
   H -0.106328165E+02 -0.809168004E+00 -0.106280604E+01
   H  0.104142731E+02 -0.401336987E+00  0.505692833E+00
     4
 # iter = 33000  time[fs]=33.00000
   C -0.195445498E+01  0.508594902E-01  0.586652043E-01
   C  0.184434122E+01 -0.278931813E-02 -0.282988009E-01
   H -0.109999058E+02 -0.836277993E+00 -0.109942282E+01
   H  0.107772456E+02 -0.414602618E+00  0.525147587E+00
     4
 # iter = 33500  time[fs]=33.50000
   C -0.202535543E+01  0.536312077E-01  0.618673656E-01
   C  0.190928829E+01 -0.211977542E-02 -0.292486707E-01
   H -0.113682876E+02 -0.863492240E+00 -0.113617862E+01
   H  0.111417190E+02 -0.427929131E+00  0.544686800E+00
     4
 # iter = 34000  time[fs]=34.00000
   C -0.209702747E+01  0.564207705E-01  0.650940911E-01
   C  0.197499078E+01 -0.145518528E-02 -0.302188484E-01
   H -0.117378801E+02 -0.890804198E+00 -0.117306476E+01
   H  0.115075970E+02 -0.441312645E+00  0.564305282E+00
     4
 # iter = 34500  time[fs]=34.50000
   C -0.216941967E+01  0.592270646E-01  0.683439815E-01
   C  0.204139835E+01 -0.795224442E-03 -0.312081982E-01
   H -0.121086085E+02 -0.918207907E+00 -0.121007334E+01
   H  0.118747920E+02 -0.454749632E+00  0.583998294E+00
     4
 # iter = 35000  time[fs]=35.00000
   C -0.224248510E+01  0.620490702E-01  0.716157419E-01
   C  0.210846505E+01 -0.139594467E-03 -0.322156653E-01
   H -0.124804048E+02 -0.945697928E+00 -0.124719716E+01
   H  0.122432240E+02 -0.468236876E+00  0.603761507E+00
     4
 # iter = 35500  time[fs]=35.50000
   C -0.231618088E+01  0.648858520E-01  0.749081724E-01
   C  0.217614889E+01  0.511980067E-03 -0.332402694E-01
   H -0.128532067E+02 -0.973269282E+00 -0.128442960E+01
   H  0.126128201E+02 -0.481771435E+00  0.623590950E+00
     4
 # iter = 36000  time[fs]=36.00000
   C -0.239046772E+01  0.677365508E-01  0.782201607E-01
   C  0.224441141E+01  0.115975335E-02 -0.342810993E-01
   H -0.132269570E+02 -0.100091740E+01 -0.132176461E+01
   H  0.129835134E+02 -0.495350615E+00  0.643482973E+00
     4
 # iter = 36500  time[fs]=36.50000
   C -0.246530965E+01  0.706003758E-01  0.815506742E-01
   C  0.231321735E+01  0.180396006E-02 -0.353373071E-01
   H -0.136016032E+02 -0.102863809E+01 -0.135919661E+01
   H  0.133552424E+02 -0.508971942E+00  0.663434219E+00
     4
 # iter = 37000  time[fs]=37.00000
   C -0.254067359E+01  0.734765982E-01  0.848987537E-01
   C  0.238253432E+01  0.244481691E-02 -0.364081038E-01
   H -0.139770970E+02 -0.105642749E+01 -0.139672046E+01
   H  0.137279506E+02 -0.522633137E+00  0.683441587E+00
     4
 # iter = 37500  time[fs]=37.50000
   C -0.261652913E+01  0.763645450E-01  0.882635070E-01
   C  0.245233255E+01  0.308252418E-02 -0.374927538E-01
   H -0.143533937E+02 -0.108428201E+01 -0.143433140E+01
   H  0.141015860E+02 -0.536332100E+00  0.703502210E+00
     4
 # iter = 38000  time[fs]=38.00000
   C -0.269284825E+01  0.792635937E-01  0.916441032E-01
   C  0.252258459E+01  0.371726709E-02 -0.385905715E-01
   H -0.147304521E+02 -0.111219836E+01 -0.147202505E+01
   H  0.144761004E+02 -0.550066888E+00  0.723613432E+00
     4
 # iter = 38500  time[fs]=38.50000
   C -0.276960511E+01  0.821731679E-01  0.950397681E-01
   C  0.259326511E+01  0.434921703E-02 -0.397009166E-01
   H -0.151082339E+02 -0.114017347E+01 -0.150979733E+01
   H  0.148514492E+02 -0.563835703E+00  0.743772790E+00
     4
 # iter = 39000  time[fs]=39.00000
   C -0.284677582E+01  0.850927329E-01  0.984497792E-01
   C  0.266435072E+01  0.497853279E-02 -0.408231912E-01
   H -0.154867036E+02 -0.116820450E+01 -0.154764445E+01
   H  0.152275910E+02 -0.577636877E+00  0.763977992E+00
     4
 # iter = 39500  time[fs]=39.50000
   C -0.292433826E+01  0.880217919E-01  0.101873461E+00
   C  0.273581976E+01  0.560536155E-02 -0.419568361E-01
   H -0.158658282E+02 -0.119628881E+01 -0.158556290E+01
   H  0.156044876E+02 -0.591468858E+00  0.784226905E+00
     4
 # iter = 40000  time[fs]=40.00000
   C -0.300227195E+01  0.909598827E-01  0.105310184E+00
   C  0.280765215E+01  0.622983993E-02 -0.431013278E-01
   H -0.162455772E+02 -0.122442393E+01 -0.162354939E+01
   H  0.159821030E+02 -0.605330203E+00  0.804517539E+00
     4
 # iter = 40500  time[fs]=40.50000
   C -0.308055788E+01  0.939065747E-01  0.108759355E+00
   C  0.287982927E+01  0.685209480E-02 -0.442561758E-01
   H -0.166259217E+02 -0.125260757E+01 -0.166160085E+01
   H  0.163604041E+02 -0.619219567E+00  0.824848035E+00
     4
 # iter = 41000  time[fs]=41.00000
   C -0.315917835E+01  0.968614662E-01  0.112220422E+00
   C  0.295233380E+01  0.747224415E-02 -0.454209203E-01
   H -0.170068351E+02 -0.128083757E+01 -0.169971442E+01
   H  0.167393598E+02 -0.633135693E+00  0.845216654E+00
     4
 # iter = 41500  time[fs]=41.50000
   C -0.323811693E+01  0.998241819E-01  0.115692865E+00
   C  0.302514963E+01  0.809039778E-02 -0.465951295E-01
   H -0.173882923E+02 -0.130911193E+01 -0.173788742E+01
   H  0.171189410E+02 -0.647077406E+00  0.865621767E+00
     4
 # iter = 42000  time[fs]=42.00000
   C -0.331735828E+01  0.102794371E+00  0.119176196E+00
   C  0.309826174E+01  0.870665800E-02 -0.477783976E-01
   H -0.177702699E+02 -0.133742875E+01 -0.177611734E+01
   H  0.174991204E+02 -0.661043605E+00  0.886061847E+00
     4
 # iter = 42500  time[fs]=42.50000
   C -0.339688809E+01  0.105771704E+00  0.122669957E+00
   C  0.317165612E+01  0.932112023E-02 -0.489703432E-01
   H -0.181527460E+02 -0.136578629E+01 -0.181440182E+01
   H  0.178798727E+02 -0.675033259E+00  0.906535458E+00
     4
 # iter = 43000  time[fs]=43.00000
   C -0.347669300E+01  0.108755874E+00  0.126173716E+00
   C  0.324531967E+01  0.993387354E-02 -0.501706071E-01
   H -0.185356998E+02 -0.139418286E+01 -0.185273864E+01
   H  0.182611739E+02 -0.689045398E+00  0.927041252E+00
     4
 # iter = 43500  time[fs]=43.50000
   C -0.355676051E+01  0.111746591E+00  0.129687067E+00
   C  0.331924014E+01  0.105450012E-01 -0.513788509E-01
   H -0.189191121E+02 -0.142261692E+01 -0.189112572E+01
   H  0.186430015E+02 -0.703079112E+00  0.947577957E+00
     4
 # iter = 44000  time[fs]=44.00000
   C -0.363707889E+01  0.114743583E+00  0.133209627E+00
   C  0.339340607E+01  0.111545810E-01 -0.525947553E-01
   H -0.193029646E+02 -0.145108699E+01 -0.192956109E+01
   H  0.190253344E+02 -0.717133543E+00  0.968144377E+00
     4
 # iter = 44500  time[fs]=44.50000
   C -0.371763718E+01  0.117746594E+00  0.136741034E+00
   C  0.346780670E+01  0.117626859E-01 -0.538180192E-01
   H -0.196872399E+02 -0.147959167E+01 -0.196804289E+01
   H  0.194081527E+02 -0.731207883E+00  0.988739380E+00
     4
 # iter = 45000  time[fs]=45.00000
   C -0.379842506E+01  0.120755384E+00  0.140280947E+00
   C  0.354243193E+01  0.123693842E-01 -0.550483578E-01
   H -0.200719220E+02 -0.150812968E+01 -0.200656939E+01
   H  0.197914375E+02 -0.745301371E+00  0.100936190E+01
     4
 # iter = 45500  time[fs]=45.50000
   C -0.387943285E+01  0.123769724E+00  0.143829042E+00
   C  0.361727228E+01  0.129747400E-01 -0.562855021E-01
   H -0.204569955E+02 -0.153669975E+01 -0.204513892E+01
   H  0.201751711E+02 -0.759413287E+00  0.103001093E+01
     4
 # iter = 46000  time[fs]=46.00000
   C -0.396065143E+01  0.126789401E+00  0.147385016E+00
   C  0.369231883E+01  0.135788135E-01 -0.575291974E-01
   H -0.208424458E+02 -0.156530074E+01 -0.208374991E+01
   H  0.205593368E+02 -0.773542950E+00  0.105068551E+01
     4
 # iter = 46500  time[fs]=46.50000
   C -0.404207222E+01  0.129814212E+00  0.150948577E+00
   C  0.376756317E+01  0.141816613E-01 -0.587792025E-01
   H -0.212282594E+02 -0.159393151E+01 -0.212240090E+01
   H  0.209439188E+02 -0.787689717E+00  0.107138473E+01
     4
 # iter = 47000  time[fs]=47.00000
   C -0.412368714E+01  0.132843966E+00  0.154519452E+00
   C  0.384299738E+01  0.147833366E-01 -0.600352886E-01
   H -0.216144231E+02 -0.162259104E+01 -0.216109047E+01
   H  0.213289020E+02 -0.801852977E+00  0.109210774E+01
     4
 # iter = 47500  time[fs]=47.50000
   C -0.420548856E+01  0.135878481E+00  0.158097382E+00
   C  0.391861399E+01  0.153838895E-01 -0.612972390E-01
   H -0.220009247E+02 -0.165127832E+01 -0.219981729E+01
   H  0.217142722E+02 -0.816032153E+00  0.111285373E+01
     4
 # iter = 48000  time[fs]=48.00000
   C -0.428746925E+01  0.138917586E+00  0.161682119E+00
   C  0.399440594E+01  0.159833671E-01 -0.625648476E-01
   H -0.223877526E+02 -0.167999240E+01 -0.223858009E+01
   H  0.221000160E+02 -0.830226697E+00  0.113362192E+01
     4
 # iter = 48500  time[fs]=48.50000
   C -0.436962242E+01  0.141961118E+00  0.165273428E+00
   C  0.407036656E+01  0.165818141E-01 -0.638379189E-01
   H -0.227748955E+02 -0.170873239E+01 -0.227737768E+01
   H  0.224861204E+02 -0.844436086E+00  0.115441157E+01
     4
 # iter = 49000  time[fs]=49.00000
   C -0.445194161E+01  0.145008921E+00  0.168871087E+00
   C  0.414648954E+01  0.171792725E-01 -0.651162668E-01
   H -0.231623430E+02 -0.173749743E+01 -0.231620892E+01
   H  0.228725735E+02 -0.858659826E+00  0.117522198E+01
     4
 # iter = 49500  time[fs]=49.50000
   C -0.453442072E+01  0.148060850E+00  0.172474884E+00
   C  0.422276889E+01  0.177757819E-01 -0.663997143E-01
   H -0.235500850E+02 -0.176628671E+01 -0.235507270E+01
   H  0.232593635E+02 -0.872897447E+00  0.119605249E+01
     4
 # iter = 50000  time[fs]=50.00000
   C -0.461705395E+01  0.151116765E+00  0.176084616E+00
   C  0.429919896E+01  0.183713799E-01 -0.676880930E-01
   H -0.239381120E+02 -0.179509945E+01 -0.239396800E+01
   H  0.236464796E+02 -0.887148498E+00  0.121690246E+01
     4
 # iter = 50500  time[fs]=50.50000
   C -0.469983583E+01  0.154176534E+00  0.179700092E+00
   C  0.437577436E+01  0.189661021E-01 -0.689812423E-01
   H -0.243264149E+02 -0.182393492E+01 -0.243289382E+01
   H  0.240339111E+02 -0.901412553E+00  0.123777128E+01
     4
 # iter = 51000  time[fs]=51.00000
   C -0.478276114E+01  0.157240029E+00  0.183321127E+00
   C  0.445249001E+01  0.195599820E-01 -0.702790091E-01
   H -0.247149850E+02 -0.185279241E+01 -0.247184923E+01
   H  0.244216482E+02 -0.915689204E+00  0.125865838E+01
     4
 # iter = 51500  time[fs]=51.50000
   C -0.486582493E+01  0.160307131E+00  0.186947547E+00
   C  0.452934104E+01  0.201530516E-01 -0.715812473E-01
   H -0.251038141E+02 -0.188167125E+01 -0.251083332E+01
   H  0.248096812E+02 -0.929978063E+00  0.127956320E+01
     4
 # iter = 52000  time[fs]=52.00000
   C -0.494902249E+01  0.163377726E+00  0.190579184E+00
   C  0.460632286E+01  0.207453410E-01 -0.728878177E-01
   H -0.254928941E+02 -0.191057079E+01 -0.254984523E+01
   H  0.251980011E+02 -0.944278758E+00  0.130048522E+01
     4
 # iter = 52500  time[fs]=52.50000
   C -0.503234934E+01  0.166451702E+00  0.194215880E+00
   C  0.468343108E+01  0.213368790E-01 -0.741985868E-01
   H -0.258822177E+02 -0.193949043E+01 -0.258888414E+01
   H  0.255865992E+02 -0.958590935E+00  0.132142393E+01
     4
 # iter = 53000  time[fs]=53.00000
   C -0.511580122E+01  0.169528957E+00  0.197857480E+00
   C  0.476066153E+01  0.219276928E-01 -0.755134276E-01
   H -0.262717775E+02 -0.196842957E+01 -0.262794926E+01
   H  0.259754672E+02 -0.972914254E+00  0.134237885E+01
     4
 # iter = 53500  time[fs]=53.50000
   C -0.519937407E+01  0.172609390E+00  0.201503840E+00
   C  0.483801022E+01  0.225178083E-01 -0.768322182E-01
   H -0.266615666E+02 -0.199738766E+01 -0.266703984E+01
   H  0.263645971E+02 -0.987248390E+00  0.136334951E+01
     4
 # iter = 54000  time[fs]=54.00000
   C -0.528306400E+01  0.175692907E+00  0.205154820E+00
   C  0.491547337E+01  0.231072501E-01 -0.781548421E-01
   H -0.270515785E+02 -0.202636415E+01 -0.270615515E+01
   H  0.267539813E+02 -0.100159303E+01  0.138433548E+01
     4
 # iter = 54500  time[fs]=54.50000
   C -0.536686732E+01  0.178779414E+00  0.208810286E+00
   C  0.499304736E+01  0.236960417E-01 -0.794811878E-01
   H -0.274418068E+02 -0.205535852E+01 -0.274529451E+01
   H  0.271436127E+02 -0.101594789E+01  0.140533632E+01
     4
 # iter = 55000  time[fs]=55.00000
   C -0.545078051E+01  0.181868827E+00  0.212470109E+00
   C  0.507072873E+01  0.242842052E-01 -0.808111483E-01
   H -0.278322455E+02 -0.208437030E+01 -0.278445726E+01
   H  0.275334841E+02 -0.103031266E+01  0.142635163E+01
     4
 # iter = 55500  time[fs]=55.50000
   C -0.553480019E+01  0.184961060E+00  0.216134167E+00
   C  0.514851418E+01  0.248717621E-01 -0.821446213E-01
   H -0.282228886E+02 -0.211339899E+01 -0.282364275E+01
   H  0.279235889E+02 -0.104468709E+01  0.144738101E+01
     4
 # iter = 56000  time[fs]=56.00000
   C -0.561892313E+01  0.188056034E+00  0.219802342E+00
   C  0.522640057E+01  0.254587325E-01 -0.834815084E-01
   H -0.286137307E+02 -0.214244414E+01 -0.286285038E+01
   H  0.283139207E+02 -0.105907091E+01  0.146842410E+01
     4
 # iter = 56500  time[fs]=56.50000
   C -0.570314625E+01  0.191153672E+00  0.223474520E+00
   C  0.530438486E+01  0.260451358E-01 -0.848217153E-01
   H -0.290047664E+02 -0.217150532E+01 -0.290207955E+01
   H  0.287044733E+02 -0.107346386E+01  0.148948053E+01
     4
 # iter = 57000  time[fs]=57.00000
   C -0.578746661E+01  0.194253900E+00  0.227150594E+00
   C  0.538246418E+01  0.266309904E-01 -0.861651516E-01
   H -0.293959905E+02 -0.220058210E+01 -0.294132971E+01
   H  0.290952408E+02 -0.108786570E+01  0.151054995E+01
     4
 # iter = 57500  time[fs]=57.50000
   C -0.587188136E+01  0.197356648E+00  0.230830459E+00
   C  0.546063575E+01  0.272163139E-01 -0.875117302E-01
   H -0.297873981E+02 -0.222967409E+01 -0.298060031E+01
   H  0.294862175E+02 -0.110227621E+01  0.153163203E+01
     4
 # iter = 58000  time[fs]=58.00000
   C -0.595638782E+01  0.200461847E+00  0.234514015E+00
   C  0.553889693E+01  0.278011233E-01 -0.888613677E-01
   H -0.301789844E+02 -0.225878089E+01 -0.301989083E+01
   H  0.298773981E+02 -0.111669515E+01  0.155272645E+01
     4
 # iter = 58500  time[fs]=58.50000
   C -0.604098337E+01  0.203569433E+00  0.238201165E+00
   C  0.561724518E+01  0.283854345E-01 -0.902139836E-01
   H -0.305707449E+02 -0.228790212E+01 -0.305920077E+01
   H  0.302687771E+02 -0.113112232E+01  0.157383290E+01
     4
 # iter = 59000  time[fs]=59.00000
   C -0.612566553E+01  0.206679343E+00  0.241891816E+00
   C  0.569567806E+01  0.289692630E-01 -0.915695007E-01
   H -0.309626751E+02 -0.231703744E+01 -0.309852964E+01
   H  0.306603496E+02 -0.114555750E+01  0.159495108E+01
     4
 # iter = 59500  time[fs]=59.50000
   C -0.621043191E+01  0.209791516E+00  0.245585879E+00
   C  0.577419324E+01  0.295526235E-01 -0.929278446E-01
   H -0.313547708E+02 -0.234618648E+01 -0.313787698E+01
   H  0.310521107E+02 -0.116000050E+01  0.161608070E+01
     4
 # iter = 60000  time[fs]=60.00000
   C -0.629528021E+01  0.212905894E+00  0.249283269E+00
   C  0.585278846E+01  0.301355302E-01 -0.942889436E-01
   H -0.317470279E+02 -0.237534892E+01 -0.317724235E+01
   H  0.314440557E+02 -0.117445112E+01  0.163722149E+01
     4
 # iter = 60500  time[fs]=60.50000
   C -0.638020824E+01  0.216022422E+00  0.252983902E+00
   C  0.593146158E+01  0.307179965E-01 -0.956527288E-01
   H -0.321394424E+02 -0.240452443E+01 -0.321662530E+01
   H  0.318361802E+02 -0.118890917E+01  0.165837319E+01
     4
 # iter = 61000  time[fs]=61.00000
   C -0.646521386E+01  0.219141046E+00  0.256687698E+00
   C  0.601021051E+01  0.313000354E-01 -0.970191338E-01
   H -0.325320107E+02 -0.243371271E+01 -0.325602542E+01
   H  0.322284797E+02 -0.120337449E+01  0.167953553E+01
     4
 # iter = 61500  time[fs]=61.50000
   C -0.655029504E+01  0.222261714E+00  0.260394582E+00
   C  0.608903327E+01  0.318816594E-01 -0.983880944E-01
   H -0.329247289E+02 -0.246291345E+01 -0.329544231E+01
   H  0.326209500E+02 -0.121784689E+01  0.170070826E+01
     4
 # iter = 62000  time[fs]=62.00000
   C -0.663544983E+01  0.225384377E+00  0.264104477E+00
   C  0.616792794E+01  0.324628804E-01 -0.997595488E-01
   H -0.333175937E+02 -0.249212636E+01 -0.333487558E+01
   H  0.330135871E+02 -0.123232622E+01  0.172189115E+01
     4
 # iter = 62500  time[fs]=62.50000
   C -0.672067633E+01  0.228508985E+00  0.267817314E+00
   C  0.624689267E+01  0.330437097E-01 -0.101133437E+00
   H -0.337106015E+02 -0.252135116E+01 -0.337432485E+01
   H  0.334063872E+02 -0.124681230E+01  0.174308396E+01
     4
 # iter = 63000  time[fs]=63.00000
   C -0.680597273E+01  0.231635492E+00  0.271533022E+00
   C  0.632592568E+01  0.336241586E-01 -0.102509703E+00
   H -0.341037491E+02 -0.255058759E+01 -0.341378976E+01
   H  0.337993463E+02 -0.126130499E+01  0.176428647E+01
     4
 # iter = 63500  time[fs]=63.50000
   C -0.689133727E+01  0.234763854E+00  0.275251535E+00
   C  0.640502527E+01  0.342042374E-01 -0.103888289E+00
   H -0.344970333E+02 -0.257983537E+01 -0.345326995E+01
   H  0.341924609E+02 -0.127580413E+01  0.178549846E+01
     4
 # iter = 64000  time[fs]=64.00000
   C -0.697676828E+01  0.237894028E+00  0.278972788E+00
   C  0.648418979E+01  0.347839563E-01 -0.105269143E+00
   H -0.348904510E+02 -0.260909427E+01 -0.349276510E+01
   H  0.345857275E+02 -0.129030959E+01  0.180671973E+01
     4
 # iter = 64500  time[fs]=64.50000
   C -0.706226412E+01  0.241025971E+00  0.282696719E+00
   C  0.656341763E+01  0.353633252E-01 -0.106652212E+00
   H -0.352839992E+02 -0.263836402E+01 -0.353227487E+01
   H  0.349791426E+02 -0.130482121E+01  0.182795007E+01
     4
 # iter = 65000  time[fs]=65.00000
   C -0.714782323E+01  0.244159644E+00  0.286423268E+00
   C  0.664270728E+01  0.359423534E-01 -0.108037447E+00
   H -0.356776751E+02 -0.266764441E+01 -0.357179894E+01
   H  0.353727030E+02 -0.131933887E+01  0.184918928E+01
     4
 # iter = 65500  time[fs]=65.50000
   C -0.723344409E+01  0.247295006E+00  0.290152377E+00
   C  0.672205724E+01  0.365210499E-01 -0.109424798E+00
   H -0.360714758E+02 -0.269693520E+01 -0.361133701E+01
   H  0.357664055E+02 -0.133386243E+01  0.187043718E+01
     4
 # iter = 66000  time[fs]=66.00000
   C -0.731912524E+01  0.250432021E+00  0.293883988E+00
   C  0.680146610E+01  0.370994235E-01 -0.110814220E+00
   H -0.364653988E+02 -0.272623616E+01 -0.365088877E+01
   H  0.361602469E+02 -0.134839177E+01  0.189169358E+01
     4
 # iter = 66500  time[fs]=66.50000
   C -0.740486527E+01  0.253570652E+00  0.297618049E+00
   C  0.688093247E+01  0.376774826E-01 -0.112205666E+00
   H -0.368594413E+02 -0.275554708E+01 -0.369045395E+01
   H  0.365542244E+02 -0.136292676E+01  0.191295831E+01
     4
 # iter = 67000  time[fs]=67.00000
   C -0.749066282E+01  0.256710863E+00  0.301354505E+00
   C  0.696045502E+01  0.382552352E-01 -0.113599093E+00
   H -0.372536008E+02 -0.278486776E+01 -0.373003226E+01
   H  0.369483349E+02 -0.137746728E+01  0.193423118E+01
     4
 # iter = 67500  time[fs]=67.50000
   C -0.757651657E+01  0.259852621E+00  0.305093305E+00
   C  0.704003245E+01  0.388326891E-01 -0.114994458E+00
   H -0.376478750E+02 -0.281419799E+01 -0.376962343E+01
   H  0.373425758E+02 -0.139201323E+01  0.195551204E+01
     4
 # iter = 68000  time[fs]=68.00000
   C -0.766242524E+01  0.262995892E+00  0.308834401E+00
   C  0.711966354E+01  0.394098518E-01 -0.116391720E+00
   H -0.380422614E+02 -0.284353758E+01 -0.380922719E+01
   H  0.377369442E+02 -0.140656448E+01  0.197680072E+01
     4
 # iter = 68500  time[fs]=68.50000
   C -0.774838761E+01  0.266140644E+00  0.312577743E+00
   C  0.719934706E+01  0.399867307E-01 -0.117790839E+00
   H -0.384367577E+02 -0.287288634E+01 -0.384884330E+01
   H  0.381314376E+02 -0.142112093E+01  0.199809706E+01
     4
 # iter = 69000  time[fs]=69.00000
   C -0.783440249E+01  0.269286846E+00  0.316323286E+00
   C  0.727908186E+01  0.405633326E-01 -0.119191776E+00
   H -0.388313617E+02 -0.290224408E+01 -0.388847151E+01
   H  0.385260535E+02 -0.143568247E+01  0.201940092E+01
     4
 # iter = 69500  time[fs]=69.50000
   C -0.792046872E+01  0.272434468E+00  0.320070984E+00
   C  0.735886682E+01  0.411396644E-01 -0.120594494E+00
   H -0.392260712E+02 -0.293161062E+01 -0.392811157E+01
   H  0.389207893E+02 -0.145024901E+01  0.204071214E+01
     4
 # iter = 70000  time[fs]=70.00000
   C -0.800658518E+01  0.275583481E+00  0.323820793E+00
   C  0.743870083E+01  0.417157325E-01 -0.121998956E+00
   H -0.396208842E+02 -0.296098580E+01 -0.396776326E+01
   H  0.393156426E+02 -0.146482044E+01  0.206203057E+01
     4
 # iter = 70500  time[fs]=70.50000
   C -0.809275079E+01  0.278733856E+00  0.327572672E+00
   C  0.751858284E+01  0.422915432E-01 -0.123405128E+00
   H -0.400157985E+02 -0.299036945E+01 -0.400742634E+01
   H  0.397106111E+02 -0.147939666E+01  0.208335609E+01
     4
 # iter = 71000  time[fs]=71.00000
   C -0.817896452E+01  0.281885566E+00  0.331326578E+00
   C  0.759851183E+01  0.428671027E-01 -0.124812974E+00
   H -0.404108122E+02 -0.301976139E+01 -0.404710060E+01
   H  0.401056926E+02 -0.149397759E+01  0.210468855E+01
     4
 # iter = 71500  time[fs]=71.50000
   C -0.826522533E+01  0.285038585E+00  0.335082472E+00
   C  0.767848681E+01  0.434424168E-01 -0.126222463E+00
   H -0.408059235E+02 -0.304916148E+01 -0.408678583E+01
   H  0.405008848E+02 -0.150856313E+01  0.212602782E+01
     4
 # iter = 72000  time[fs]=72.00000
   C -0.835153226E+01  0.288192886E+00  0.338840315E+00
   C  0.775850682E+01  0.440174912E-01 -0.127633560E+00
   H -0.412011303E+02 -0.307856956E+01 -0.412648182E+01
   H  0.408961857E+02 -0.152315320E+01  0.214737377E+01
     4
 # iter = 72500  time[fs]=72.50000
   C -0.843788435E+01  0.291348444E+00  0.342600070E+00
   C  0.783857092E+01  0.445923315E-01 -0.129046235E+00
   H -0.415964310E+02 -0.310798548E+01 -0.416618836E+01
   H  0.412915931E+02 -0.153774771E+01  0.216872629E+01
     4
 # iter = 73000  time[fs]=73.00000
   C -0.852428066E+01  0.294505236E+00  0.346361698E+00
   C  0.791867821E+01  0.451669429E-01 -0.130460458E+00
   H -0.419918237E+02 -0.313740908E+01 -0.420590526E+01
   H  0.416871051E+02 -0.155234657E+01  0.219008524E+01
     4
 # iter = 73500  time[fs]=73.50000
   C -0.861072032E+01  0.297663236E+00  0.350125166E+00
   C  0.799882782E+01  0.457413306E-01 -0.131876199E+00
   H -0.423873067E+02 -0.316684024E+01 -0.424563234E+01
   H  0.420827196E+02 -0.156694970E+01  0.221145051E+01
     4
 # iter = 74000  time[fs]=74.00000
   C -0.869720243E+01  0.300822423E+00  0.353890437E+00
   C  0.807901889E+01  0.463154995E-01 -0.133293430E+00
   H -0.427828783E+02 -0.319627882E+01 -0.428536940E+01
   H  0.424784348E+02 -0.158155704E+01  0.223282199E+01
     4
 # iter = 74500  time[fs]=74.50000
   C -0.878372617E+01  0.303982774E+00  0.357657480E+00
   C  0.815925059E+01  0.468894546E-01 -0.134712121E+00
   H -0.431785371E+02 -0.322572467E+01 -0.432511626E+01
   H  0.428742489E+02 -0.159616849E+01  0.225419956E+01
     4
 # iter = 75000  time[fs]=75.00000
   C -0.887029071E+01  0.307144267E+00  0.361426259E+00
   C  0.823952213E+01  0.474632005E-01 -0.136132246E+00
   H -0.435742812E+02 -0.325517767E+01 -0.436487276E+01
   H  0.432701599E+02 -0.161078399E+01  0.227558311E+01
     4
 # iter = 75500  time[fs]=75.50000
   C -0.895689524E+01  0.310306880E+00  0.365196745E+00
   C  0.831983273E+01  0.480367418E-01 -0.137553779E+00
   H -0.439701093E+02 -0.328463770E+01 -0.440463871E+01
   H  0.436661663E+02 -0.162540346E+01  0.229697255E+01
     4
 # iter = 76000  time[fs]=76.00000
   C -0.904353901E+01  0.313470594E+00  0.368968906E+00
   C  0.840018163E+01  0.486100828E-01 -0.138976694E+00
   H -0.443660198E+02 -0.331410462E+01 -0.444441395E+01
   H  0.440622662E+02 -0.164002683E+01  0.231836776E+01
     4
 # iter = 76500  time[fs]=76.50000
   C -0.913022126E+01  0.316635388E+00  0.372742711E+00
   C  0.848056810E+01  0.491832278E-01 -0.140400966E+00
   H -0.447620113E+02 -0.334357832E+01 -0.448419833E+01
   H  0.444584579E+02 -0.165465404E+01  0.233976865E+01
     4
 # iter = 77000  time[fs]=77.00000
   C -0.921694125E+01  0.319801243E+00  0.376518132E+00
   C  0.856099141E+01  0.497561809E-01 -0.141826570E+00
   H -0.451580823E+02 -0.337305868E+01 -0.452399167E+01
   H  0.448547400E+02 -0.166928501E+01  0.236117511E+01
     4
 # iter = 77500  time[fs]=77.50000
   C -0.930369827E+01  0.322968140E+00  0.380295139E+00
   C  0.864145089E+01  0.503289462E-01 -0.143253483E+00
   H -0.455542315E+02 -0.340254559E+01 -0.456379384E+01
   H  0.452511108E+02 -0.168391969E+01  0.238258706E+01
     4
 # iter = 78000  time[fs]=78.00000
   C -0.939049164E+01  0.326136060E+00  0.384073705E+00
   C  0.872194584E+01  0.509015275E-01 -0.144681681E+00
   H -0.459504575E+02 -0.343203893E+01 -0.460360467E+01
   H  0.456475688E+02 -0.169855800E+01  0.240400439E+01
     4
 # iter = 78500  time[fs]=78.50000
   C -0.947732068E+01  0.329304986E+00  0.387853803E+00
   C  0.880247562E+01  0.514739287E-01 -0.146111143E+00
   H -0.463467590E+02 -0.346153860E+01 -0.464342403E+01
   H  0.460441124E+02 -0.171319989E+01  0.242542703E+01
     4
 # iter = 79000  time[fs]=79.00000
   C -0.956418474E+01  0.332474899E+00  0.391635406E+00
   C  0.888303958E+01  0.520461534E-01 -0.147541845E+00
   H -0.467431348E+02 -0.349104448E+01 -0.468325176E+01
   H  0.464407403E+02 -0.172784529E+01  0.244685488E+01
     4
 # iter = 79500  time[fs]=79.50000
   C -0.965108317E+01  0.335645783E+00  0.395418488E+00
   C  0.896363710E+01  0.526182051E-01 -0.148973768E+00
   H -0.471395835E+02 -0.352055649E+01 -0.472308774E+01
   H  0.468374509E+02 -0.174249416E+01  0.246828785E+01
     4
 # iter = 80000  time[fs]=80.00000
   C -0.973801537E+01  0.338817621E+00  0.399203025E+00
   C  0.904426758E+01  0.531900873E-01 -0.150406889E+00
   H -0.475361040E+02 -0.355007451E+01 -0.476293183E+01
   H  0.472342430E+02 -0.175714642E+01  0.248972587E+01
