     4
 # iter = 25000  time[fs]=25.00000
   C -0.993228522E+00 -0.665449323E-03 -0.339570307E-01
   C  0.987277120E+00 -0.255401070E-01  0.204365832E-01
   H -0.519064642E+01  0.665084447E+00  0.329629859E+00
   H  0.531838006E+01 -0.685393249E+00  0.227175160E+00
     4
 # iter = 25500  time[fs]=25.50000
   C -0.103960725E+01 -0.232830273E-02 -0.354791216E-01
   C  0.103097579E+01 -0.229227128E-01  0.206301560E-01
   H -0.552391539E+01  0.709361800E+00  0.352164326E+00
   H  0.563472633E+01 -0.724775963E+00  0.240721806E+00
     4
 # iter = 26000  time[fs]=26.00000
   C -0.108899226E+01 -0.399217648E-02 -0.371189562E-01
   C  0.107770161E+01 -0.203098171E-01  0.208890121E-01
   H -0.586276721E+01  0.754437515E+00  0.375099932E+00
   H  0.595640504E+01 -0.764890812E+00  0.254496840E+00
     4
 # iter = 26500  time[fs]=26.50000
   C -0.114113045E+01 -0.566280151E-02 -0.388644630E-01
   C  0.112719598E+01 -0.176946359E-01  0.212069427E-01
   H -0.620656296E+01  0.800220074E+00  0.398390703E+00
   H  0.628284329E+01 -0.805658917E+00  0.268475880E+00
     4
 # iter = 27000  time[fs]=27.00000
   C -0.119578602E+01 -0.734467753E-02 -0.407049961E-01
   C  0.117921889E+01 -0.150718430E-01  0.215782665E-01
   H -0.655476179E+01  0.846632260E+00  0.421997926E+00
   H  0.661355060E+01 -0.847012977E+00  0.282638065E+00
     4
 # iter = 27500  time[fs]=27.50000
   C -0.125274166E+01 -0.904123261E-02 -0.426311706E-01
   C  0.123354983E+01 -0.124373557E-01  0.219978347E-01
   H -0.690690277E+01  0.893608419E+00  0.445888728E+00
   H  0.694810461E+01 -0.888895193E+00  0.296965434E+00
     4
 # iter = 28000  time[fs]=28.00000
   C -0.131179866E+01 -0.107549927E-01 -0.446347113E-01
   C  0.128998761E+01 -0.978812522E-02  0.224610125E-01
   H -0.726259049E+01  0.941092331E+00  0.470034981E+00
   H  0.728613957E+01 -0.931255620E+00  0.311442433E+00
     4
 # iter = 28500  time[fs]=28.50000
   C -0.137277638E+01 -0.124877431E-01 -0.467083168E-01
   C  0.134834967E+01 -0.712194554E-02  0.229636466E-01
   H -0.762148369E+01  0.989035531E+00  0.494412446E+00
   H  0.762733713E+01 -0.974050843E+00  0.326055521E+00
     4
 # iter = 29000  time[fs]=29.00000
   C -0.143551120E+01 -0.142406727E-01 -0.488455375E-01
   C  0.140847095E+01 -0.443728646E-02  0.235020270E-01
   H -0.798328611E+01  0.103739599E+01  0.519000104E+00
   H  0.797141878E+01 -0.101724292E+01  0.340792844E+00
     4
 # iter = 29500  time[fs]=29.50000
   C -0.149985536E+01 -0.160144982E-01 -0.510406679E-01
   C  0.147020251E+01 -0.173315268E-02  0.240728447E-01
   H -0.834773924E+01  0.108613703E+01  0.543779616E+00
   H  0.831813969E+01 -0.106079854E+01  0.355643982E+00
     4
 # iter = 30000  time[fs]=30.00000
   C -0.156567559E+01 -0.178095679E-01 -0.532886516E-01
   C  0.153341021E+01  0.991032987E-03  0.246731513E-01
   H -0.871461630E+01  0.113522650E+01  0.568734893E+00
   H  0.866728375E+01 -0.110468827E+01  0.370599725E+00
     4
 # iter = 30500  time[fs]=30.50000
   C -0.163285177E+01 -0.196259468E-01 -0.555849981E-01
   C  0.159797324E+01  0.373552464E-02  0.253003192E-01
   H -0.908371744E+01  0.118463605E+01  0.593851752E+00
   H  0.901865932E+01 -0.114888605E+01  0.385651906E+00
     4
 # iter = 31000  time[fs]=31.00000
   C -0.170127568E+01 -0.214634852E-01 -0.579257111E-01
   C  0.166378285E+01  0.650032975E-02  0.259520058E-01
   H -0.945486574E+01  0.123434060E+01  0.619117626E+00
   H  0.937209581E+01 -0.119336867E+01  0.400793246E+00
     4
 # iter = 31500  time[fs]=31.50000
   C -0.177084975E+01 -0.233218735E-01 -0.603072257E-01
   C  0.173074106E+01  0.928527001E-02  0.266261201E-01
   H -0.982790393E+01  0.128431781E+01  0.644521333E+00
   H  0.972744081E+01 -0.123811537E+01  0.416017239E+00
     4
 # iter = 32000  time[fs]=32.00000
   C -0.184148594E+01 -0.252006859E-01 -0.627263540E-01
   C  0.179875955E+01  0.120900296E-01  0.273207935E-01
   H -0.102026916E+02  0.133454777E+01  0.670052883E+00
   H  0.100845577E+02 -0.128310756E+01  0.431318045E+00
     4
 # iter = 32500  time[fs]=32.50000
   C -0.191310476E+01 -0.270994138E-01 -0.651802387E-01
   C  0.186775856E+01  0.149141927E-01  0.280343535E-01
   H -0.105791032E+02  0.138501259E+01  0.695703315E+00
   H  0.104433234E+02 -0.132832848E+01  0.446690405E+00
     4
 # iter = 33000  time[fs]=33.00000
   C -0.198563431E+01 -0.290174928E-01 -0.676663119E-01
   C  0.193766605E+01  0.177572735E-01  0.287653004E-01
   H -0.109570254E+02  0.143569622E+01  0.721464564E+00
   H  0.108036270E+02 -0.137376300E+01  0.462129568E+00
     4
 # iter = 33500  time[fs]=33.50000
   C -0.205900947E+01 -0.309543230E-01 -0.701822609E-01
   C  0.200841677E+01  0.206187385E-01  0.295122870E-01
   H -0.113363566E+02  0.148658415E+01  0.747329346E+00
   H  0.111653681E+02 -0.141939742E+01  0.477631231E+00
     4
 # iter = 34000  time[fs]=34.00000
   C -0.213317119E+01 -0.329092844E-01 -0.727259970E-01
   C  0.207995158E+01  0.234980246E-01  0.302741008E-01
   H -0.117170044E+02  0.153766323E+01  0.773291060E+00
   H  0.115284554E+02 -0.146521928E+01  0.493191483E+00
     4
 # iter = 34500  time[fs]=34.50000
   C -0.220806581E+01 -0.348817491E-01 -0.752956299E-01
   C  0.215221677E+01  0.263945524E-01  0.310496480E-01
   H -0.120988851E+02  0.158892156E+01  0.799343708E+00
   H  0.118928059E+02 -0.151121723E+01  0.508806759E+00
     4
 # iter = 35000  time[fs]=35.00000
   C -0.228364450E+01 -0.368710904E-01 -0.778894445E-01
   C  0.222516349E+01  0.293077367E-01  0.318379406E-01
   H -0.124819227E+02  0.164034825E+01  0.825481824E+00
   H  0.122583438E+02 -0.155738090E+01  0.524473805E+00
     4
 # iter = 35500  time[fs]=35.50000
   C -0.235986273E+01 -0.388766890E-01 -0.805058813E-01
   C  0.229874719E+01  0.322369940E-01  0.326380834E-01
   H -0.128660476E+02  0.169193339E+01  0.851700413E+00
   H  0.126249997E+02 -0.160370082E+01  0.540189639E+00
     4
 # iter = 36000  time[fs]=36.00000
   C -0.243667986E+01 -0.408979382E-01 -0.831435191E-01
   C  0.237292723E+01  0.351817483E-01  0.334492646E-01
   H -0.132511965E+02  0.174366790E+01  0.877994902E+00
   H  0.129927101E+02 -0.165016826E+01  0.555951526E+00
     4
 # iter = 36500  time[fs]=36.50000
   C -0.251405867E+01 -0.429342473E-01 -0.858010596E-01
   C  0.244766642E+01  0.381414353E-01  0.342707458E-01
   H -0.136373109E+02  0.179554344E+01  0.904361088E+00
   H  0.133614165E+02 -0.169677521E+01  0.571756948E+00
     4
 # iter = 37000  time[fs]=37.00000
   C -0.259196508E+01 -0.449850436E-01 -0.884773149E-01
   C  0.252293072E+01  0.411155056E-01  0.351018544E-01
   H -0.140243375E+02  0.184755235E+01  0.930795107E+00
   H  0.137310652E+02 -0.174351428E+01  0.587603586E+00
     4
 # iter = 37500  time[fs]=37.50000
   C -0.267036781E+01 -0.470497747E-01 -0.911711951E-01
   C  0.259868885E+01  0.441034264E-01  0.359419765E-01
   H -0.144122269E+02  0.189968756E+01  0.957293391E+00
   H  0.141016063E+02 -0.179037864E+01  0.603489297E+00
     4
 # iter = 38000  time[fs]=38.00000
   C -0.274923807E+01 -0.491279087E-01 -0.938816992E-01
   C  0.267491209E+01  0.471046831E-01  0.367905507E-01
   H -0.148009337E+02  0.195194254E+01  0.983852647E+00
   H  0.144729940E+02 -0.183736196E+01  0.619412096E+00
     4
 # iter = 38500  time[fs]=38.50000
   C -0.282854936E+01 -0.512189350E-01 -0.966079052E-01
   C  0.275157397E+01  0.501187801E-01  0.376470626E-01
   H -0.151904159E+02  0.200431126E+01  0.101046982E+01
   H  0.148451858E+02 -0.188445840E+01  0.635370145E+00
     4
 # iter = 39000  time[fs]=39.00000
   C -0.290827723E+01 -0.533223640E-01 -0.993489628E-01
   C  0.282865008E+01  0.531452410E-01  0.385110401E-01
   H -0.155806345E+02  0.205678812E+01  0.103714209E+01
   H  0.152181420E+02 -0.193166251E+01  0.651361737E+00
     4
 # iter = 39500  time[fs]=39.50000
   C -0.298839908E+01 -0.554377274E-01 -0.102104086E+00
   C  0.290611788E+01  0.561836086E-01  0.393820491E-01
   H -0.159715534E+02  0.210936790E+01  0.106386681E+01
   H  0.155918261E+02 -0.197896922E+01  0.667385283E+00
     4
 # iter = 40000  time[fs]=40.00000
   C -0.306889401E+01 -0.575645773E-01 -0.104872549E+00
   C  0.298395652E+01  0.592334451E-01  0.402596897E-01
   H -0.163631390E+02  0.216204578E+01  0.109064155E+01
   H  0.159662038E+02 -0.202637380E+01  0.683439302E+00
     4
 # iter = 40500  time[fs]=40.50000
   C -0.314974262E+01 -0.597024861E-01 -0.107653675E+00
   C  0.306214665E+01  0.622943313E-01  0.411435931E-01
   H -0.167553600E+02  0.221481724E+01  0.111746402E+01
   H  0.163412432E+02 -0.207387186E+01  0.699522413E+00
     4
 # iter = 41000  time[fs]=41.00000
   C -0.323092692E+01 -0.618510454E-01 -0.110446840E+00
   C  0.314067033E+01  0.653658665E-01  0.420334183E-01
   H -0.171481874E+02  0.226767807E+01  0.114433208E+01
   H  0.167169146E+02 -0.212145928E+01  0.715633325E+00
     4
 # iter = 41500  time[fs]=41.50000
   C -0.331243020E+01 -0.640098655E-01 -0.113251461E+00
   C  0.321951091E+01  0.684476674E-01  0.429288500E-01
   H -0.175415939E+02  0.232062434E+01  0.117124374E+01
   H  0.170931902E+02 -0.216913219E+01  0.731770829E+00
     4
 # iter = 42000  time[fs]=42.00000
   C -0.339423689E+01 -0.661785748E-01 -0.116066996E+00
   C  0.329865285E+01  0.715393682E-01  0.438295955E-01
   H -0.179355540E+02  0.237365236E+01  0.119819714E+01
   H  0.174700438E+02 -0.221688698E+01  0.747933792E+00
     4
 # iter = 42500  time[fs]=42.50000
   C -0.347633247E+01 -0.683568188E-01 -0.118892938E+00
   C  0.337808170E+01  0.746406191E-01  0.447353835E-01
   H -0.183300438E+02  0.242675868E+01  0.122519053E+01
   H  0.178474510E+02 -0.226472025E+01  0.764121152E+00
     4
 # iter = 43000  time[fs]=43.00000
   C -0.355870340E+01 -0.705442593E-01 -0.121728815E+00
   C  0.345778397E+01  0.777510865E-01  0.456459615E-01
   H -0.187250411E+02  0.247994006E+01  0.125222226E+01
   H  0.182253888E+02 -0.231262883E+01  0.780331910E+00
     4
 # iter = 43500  time[fs]=43.50000
   C -0.364133702E+01 -0.727405737E-01 -0.124574185E+00
   C  0.353774704E+01  0.808704515E-01  0.465610945E-01
   H -0.191205248E+02  0.253319345E+01  0.127929078E+01
   H  0.186038357E+02 -0.236060970E+01  0.796565127E+00
     4
 # iter = 44000  time[fs]=44.00000
   C -0.372422149E+01 -0.749454545E-01 -0.127428634E+00
   C  0.361795912E+01  0.839984097E-01  0.474805637E-01
   H -0.195164752E+02  0.258651599E+01  0.130639464E+01
   H  0.189827713E+02 -0.240866003E+01  0.812819918E+00
     4
 # iter = 44500  time[fs]=44.50000
   C -0.380734571E+01 -0.771586082E-01 -0.130291773E+00
   C  0.369840917E+01  0.871346704E-01  0.484041644E-01
   H -0.199128737E+02  0.263990498E+01  0.133353248E+01
   H  0.193621765E+02 -0.245677717E+01  0.829095448E+00
     4
 # iter = 45000  time[fs]=45.00000
   C -0.389069928E+01 -0.793797545E-01 -0.133163239E+00
   C  0.377908682E+01  0.902789558E-01  0.493317056E-01
   H -0.203097027E+02  0.269335786E+01  0.136070299E+01
   H  0.197420332E+02 -0.250495860E+01  0.845390931E+00
     4
 # iter = 45500  time[fs]=45.50000
   C -0.397427243E+01 -0.816086261E-01 -0.136042689E+00
   C  0.385998235E+01  0.934310007E-01  0.502630085E-01
   H -0.207069459E+02  0.274687223E+01  0.138790495E+01
   H  0.201223244E+02 -0.255320192E+01  0.861705622E+00
     4
 # iter = 46000  time[fs]=46.00000
   C -0.405805596E+01 -0.838449677E-01 -0.138929799E+00
   C  0.394108661E+01  0.965905516E-01  0.511979056E-01
   H -0.211045876E+02  0.280044583E+01  0.141513721E+01
   H  0.205030340E+02 -0.260150490E+01  0.878038817E+00
     4
 # iter = 46500  time[fs]=46.50000
   C -0.414204125E+01 -0.860885355E-01 -0.141824267E+00
   C  0.402239100E+01  0.997573660E-01  0.521362398E-01
   H -0.215026130E+02  0.285407650E+01  0.144239868E+01
   H  0.208841467E+02 -0.264986540E+01  0.894389851E+00
     4
 # iter = 47000  time[fs]=47.00000
   C -0.422622014E+01 -0.883390965E-01 -0.144725806E+00
   C  0.410388743E+01  0.102931212E+00  0.530778636E-01
   H -0.219010082E+02  0.290776220E+01  0.146968832E+01
   H  0.212656480E+02 -0.269828140E+01  0.910758092E+00
     4
 # iter = 47500  time[fs]=47.50000
   C -0.431058495E+01 -0.905964279E-01 -0.147634146E+00
   C  0.418556826E+01  0.106111869E+00  0.540226383E-01
   H -0.222997599E+02  0.296150101E+01  0.149700515E+01
   H  0.216475243E+02 -0.274675098E+01  0.927142940E+00
     4
 # iter = 48000  time[fs]=48.00000
   C -0.439512845E+01 -0.928603168E-01 -0.150549030E+00
   C  0.426742628E+01  0.109299123E+00  0.549704334E-01
   H -0.226988558E+02  0.301529109E+01  0.152434823E+01
   H  0.220297625E+02 -0.279527232E+01  0.943543829E+00
     4
 # iter = 48500  time[fs]=48.50000
   C -0.447984379E+01 -0.951305594E-01 -0.153470218E+00
   C  0.434945467E+01  0.112492773E+00  0.559211259E-01
   H -0.230982838E+02  0.306913071E+01  0.155171668E+01
   H  0.224123504E+02 -0.284384369E+01  0.959960216E+00
     4
 # iter = 49000  time[fs]=49.00000
   C -0.456472449E+01 -0.974069610E-01 -0.156397481E+00
   C  0.443164701E+01  0.115692623E+00  0.568746000E-01
   H -0.234980326E+02  0.312301821E+01  0.157910967E+01
   H  0.227952761E+02 -0.289246345E+01  0.976391590E+00
     4
 # iter = 49500  time[fs]=49.50000
   C -0.464976442E+01 -0.996893347E-01 -0.159330601E+00
   C  0.451399720E+01  0.118898488E+00  0.578307463E-01
   H -0.238980917E+02  0.317695202E+01  0.160652638E+01
   H  0.231785286E+02 -0.294113003E+01  0.992837460E+00
     4
 # iter = 50000  time[fs]=50.00000
   C -0.473495778E+01 -0.101977502E+00 -0.162269373E+00
   C  0.459649948E+01  0.122110189E+00  0.587894614E-01
   H -0.242984506E+02  0.323093064E+01  0.163396606E+01
   H  0.235620973E+02 -0.298984193E+01  0.100929736E+01
     4
 # iter = 50500  time[fs]=50.50000
   C -0.482029907E+01 -0.104271291E+00 -0.165213602E+00
   C  0.467914836E+01  0.125327555E+00  0.597506477E-01
   H -0.246990998E+02  0.328495265E+01  0.166142797E+01
   H  0.239459719E+02 -0.303859773E+01  0.102577085E+01
     4
 # iter = 51000  time[fs]=51.00000
   C -0.490578306E+01 -0.106570538E+00 -0.168163102E+00
   C  0.476193867E+01  0.128550422E+00  0.607142126E-01
   H -0.251000300E+02  0.333901669E+01  0.168891144E+01
   H  0.243301429E+02 -0.308739608E+01  0.104225750E+01
     4
 # iter = 51500  time[fs]=51.50000
   C -0.499140480E+01 -0.108875086E+00 -0.171117697E+00
   C  0.484486547E+01  0.131778633E+00  0.616800685E-01
   H -0.255012323E+02  0.339312147E+01  0.171641579E+01
   H  0.247146011E+02 -0.313623567E+01  0.105875692E+01
     4
 # iter = 52000  time[fs]=52.00000
   C -0.507715957E+01 -0.111184784E+00 -0.174077219E+00
   C  0.492792408E+01  0.135012036E+00  0.626481325E-01
   H -0.259026983E+02  0.344726573E+01  0.174394039E+01
   H  0.250993376E+02 -0.318511528E+01  0.107526871E+01
     4
 # iter = 52500  time[fs]=52.50000
   C -0.516304289E+01 -0.113499485E+00 -0.177041508E+00
   C  0.501111005E+01  0.138250487E+00  0.636183257E-01
   H -0.263044200E+02  0.350144830E+01  0.177148465E+01
   H  0.254843441E+02 -0.323403371E+01  0.109179250E+01
     4
 # iter = 53000  time[fs]=53.00000
   C -0.524905050E+01 -0.115819052E+00 -0.180010412E+00
   C  0.509441914E+01  0.141493846E+00  0.645905734E-01
   H -0.267063897E+02  0.355566806E+01  0.179904797E+01
   H  0.258696125E+02 -0.328298984E+01  0.110832795E+01
     4
 # iter = 53500  time[fs]=53.50000
   C -0.533517832E+01 -0.118143351E+00 -0.182983786E+00
   C  0.517784732E+01  0.144741979E+00  0.655648045E-01
   H -0.271086000E+02  0.360992391E+01  0.182662982E+01
   H  0.262551353E+02 -0.333198258E+01  0.112487471E+01
     4
 # iter = 54000  time[fs]=54.00000
   C -0.542142250E+01 -0.120472252E+00 -0.185961491E+00
   C  0.526139073E+01  0.147994757E+00  0.665409513E-01
   H -0.275110439E+02  0.366421482E+01  0.185422966E+01
   H  0.266409049E+02 -0.338101088E+01  0.114143246E+01
     4
 # iter = 54500  time[fs]=54.50000
   C -0.550777932E+01 -0.122805633E+00 -0.188943394E+00
   C  0.534504571E+01  0.151252058E+00  0.675189496E-01
   H -0.279137148E+02  0.371853980E+01  0.188184699E+01
   H  0.270269145E+02 -0.343007376E+01  0.115800090E+01
     4
 # iter = 55000  time[fs]=55.00000
   C -0.559424527E+01 -0.125143375E+00 -0.191929370E+00
   C  0.542880876E+01  0.154513760E+00  0.684987380E-01
   H -0.283166060E+02  0.377289789E+01  0.190948131E+01
   H  0.274131572E+02 -0.347917026E+01  0.117457972E+01
     4
 # iter = 55500  time[fs]=55.50000
   C -0.568081698E+01 -0.127485362E+00 -0.194919297E+00
   C  0.551267654E+01  0.157779751E+00  0.694802583E-01
   H -0.287197116E+02  0.382728819E+01  0.193713217E+01
   H  0.277996266E+02 -0.352829947E+01  0.119116864E+01
     4
 # iter = 56000  time[fs]=56.00000
   C -0.576749123E+01 -0.129831486E+00 -0.197913060E+00
   C  0.559664584E+01  0.161049919E+00  0.704634548E-01
   H -0.291230255E+02  0.388170983E+01  0.196479912E+01
   H  0.281863165E+02 -0.357746050E+01  0.120776739E+01
     4
 # iter = 56500  time[fs]=56.50000
   C -0.585426495E+01 -0.132181640E+00 -0.200910548E+00
   C  0.568071362E+01  0.164324158E+00  0.714482742E-01
   H -0.295265421E+02  0.393616195E+01  0.199248172E+01
   H  0.285732209E+02 -0.362665252E+01  0.122437570E+01
     4
 # iter = 57000  time[fs]=57.00000
   C -0.594113518E+01 -0.134535722E+00 -0.203911654E+00
   C  0.576487695E+01  0.167602365E+00  0.724346660E-01
   H -0.299302558E+02  0.399064375E+01  0.202017957E+01
   H  0.289603341E+02 -0.367587470E+01  0.124099332E+01
     4
 # iter = 57500  time[fs]=57.50000
   C -0.602809911E+01 -0.136893634E+00 -0.206916278E+00
   C  0.584913303E+01  0.170884443E+00  0.734225816E-01
   H -0.303341616E+02  0.404515446E+01  0.204789226E+01
   H  0.293476506E+02 -0.372512627E+01  0.125762002E+01
     4
 # iter = 58000  time[fs]=58.00000
   C -0.611515404E+01 -0.139255280E+00 -0.209924320E+00
   C  0.593347919E+01  0.174170295E+00  0.744119747E-01
   H -0.307382543E+02  0.409969334E+01  0.207561943E+01
   H  0.297351651E+02 -0.377440648E+01  0.127425554E+01
     4
 # iter = 58500  time[fs]=58.50000
   C -0.620229737E+01 -0.141620569E+00 -0.212935689E+00
   C  0.601791286E+01  0.177459829E+00  0.754028011E-01
   H -0.311425290E+02  0.415425965E+01  0.210336069E+01
   H  0.301228725E+02 -0.382371461E+01  0.129089968E+01
     4
 # iter = 59000  time[fs]=59.00000
   C -0.628952664E+01 -0.143989414E+00 -0.215950293E+00
   C  0.610243157E+01  0.180752958E+00  0.763950182E-01
   H -0.315469812E+02  0.420885272E+01  0.213111570E+01
   H  0.305107680E+02 -0.387304996E+01  0.130755222E+01
     4
 # iter = 59500  time[fs]=59.50000
   C -0.637683945E+01 -0.146361728E+00 -0.218968048E+00
   C  0.618703296E+01  0.184049594E+00  0.773885854E-01
   H -0.319516064E+02  0.426347187E+01  0.215888412E+01
   H  0.308988468E+02 -0.392241186E+01  0.132421294E+01
     4
 # iter = 60000  time[fs]=60.00000
   C -0.646423353E+01 -0.148737429E+00 -0.221988869E+00
   C  0.627171476E+01  0.187349656E+00  0.783834639E-01
   H -0.323564001E+02  0.431811648E+01  0.218666561E+01
   H  0.312871044E+02 -0.397179966E+01  0.134088165E+01
     4
 # iter = 60500  time[fs]=60.50000
   C -0.655170666E+01 -0.151116439E+00 -0.225012676E+00
   C  0.635647480E+01  0.190653064E+00  0.793796163E-01
   H -0.327613584E+02  0.437278591E+01  0.221445987E+01
   H  0.316755365E+02 -0.402121274E+01  0.135755816E+01
     4
 # iter = 61000  time[fs]=61.00000
   C -0.663925676E+01 -0.153498680E+00 -0.228039394E+00
   C  0.644131098E+01  0.193959741E+00  0.803770068E-01
   H -0.331664771E+02  0.442747958E+01  0.224226659E+01
   H  0.320641387E+02 -0.407065050E+01  0.137424226E+01
     4
 # iter = 61500  time[fs]=61.50000
   C -0.672688177E+01 -0.155884078E+00 -0.231068949E+00
   C  0.652622129E+01  0.197269611E+00  0.813756010E-01
   H -0.335717524E+02  0.448219690E+01  0.227008547E+01
   H  0.324529071E+02 -0.412011237E+01  0.139093380E+01
     4
 # iter = 62000  time[fs]=62.00000
   C -0.681457977E+01 -0.158272561E+00 -0.234101268E+00
   C  0.661120380E+01  0.200582603E+00  0.823753660E-01
   H -0.339771805E+02  0.453693733E+01  0.229791623E+01
   H  0.328418376E+02 -0.416959777E+01  0.140763259E+01
     4
 # iter = 62500  time[fs]=62.50000
   C -0.690234886E+01 -0.160664060E+00 -0.237136285E+00
   C  0.669625664E+01  0.203898647E+00  0.833762701E-01
   H -0.343827580E+02  0.459170033E+01  0.232575860E+01
   H  0.332309266E+02 -0.421910618E+01  0.142433847E+01
     4
 # iter = 63000  time[fs]=63.00000
   C -0.699018724E+01 -0.163058508E+00 -0.240173931E+00
   C  0.678137803E+01  0.207217674E+00  0.843782827E-01
   H -0.347884812E+02  0.464648538E+01  0.235361231E+01
   H  0.336201704E+02 -0.426863706E+01  0.144105127E+01
     4
 # iter = 63500  time[fs]=63.50000
   C -0.707809316E+01 -0.165455840E+00 -0.243214145E+00
   C  0.686656623E+01  0.210539621E+00  0.853813747E-01
   H -0.351943469E+02  0.470129199E+01  0.238147710E+01
   H  0.340095654E+02 -0.431818992E+01  0.145777083E+01
     4
 # iter = 64000  time[fs]=64.00000
   C -0.716606496E+01 -0.167855993E+00 -0.246256865E+00
   C  0.695181958E+01  0.213864424E+00  0.863855178E-01
   H -0.356003518E+02  0.475611966E+01  0.240935274E+01
   H  0.343991082E+02 -0.436776426E+01  0.147449701E+01
     4
 # iter = 64500  time[fs]=64.50000
   C -0.725410101E+01 -0.170258906E+00 -0.249302031E+00
   C  0.703713648E+01  0.217192020E+00  0.873906849E-01
   H -0.360064927E+02  0.481096794E+01  0.243723897E+01
   H  0.347887956E+02 -0.441735961E+01  0.149122966E+01
     4
 # iter = 65000  time[fs]=65.00000
   C -0.734219975E+01 -0.172664520E+00 -0.252349586E+00
   C  0.712251539E+01  0.220522352E+00  0.883968499E-01
   H -0.364127667E+02  0.486583637E+01  0.246513557E+01
   H  0.351786242E+02 -0.446697552E+01  0.150796864E+01
     4
 # iter = 65500  time[fs]=65.50000
   C -0.743035969E+01 -0.175072777E+00 -0.255399475E+00
   C  0.720795481E+01  0.223855360E+00  0.894039877E-01
   H -0.368191708E+02  0.492072451E+01  0.249304231E+01
   H  0.355685911E+02 -0.451661154E+01  0.152471381E+01
     4
 # iter = 66000  time[fs]=66.00000
   C -0.751857936E+01 -0.177483624E+00 -0.258451645E+00
   C  0.729345330E+01  0.227190990E+00  0.904120740E-01
   H -0.372257022E+02  0.497563194E+01  0.252095898E+01
   H  0.359586932E+02 -0.456626725E+01  0.154146504E+01
     4
 # iter = 66500  time[fs]=66.50000
   C -0.760685736E+01 -0.179897005E+00 -0.261506044E+00
   C  0.737900947E+01  0.230529187E+00  0.914210853E-01
   H -0.376323581E+02  0.503055826E+01  0.254888537E+01
   H  0.363489277E+02 -0.461594223E+01  0.155822219E+01
     4
 # iter = 67000  time[fs]=67.00000
   C -0.769519235E+01 -0.182312869E+00 -0.264562621E+00
   C  0.746462199E+01  0.233869899E+00  0.924309993E-01
   H -0.380391358E+02  0.508550306E+01  0.257682127E+01
   H  0.367392917E+02 -0.466563607E+01  0.157498516E+01
     4
 # iter = 67500  time[fs]=67.50000
   C -0.778358300E+01 -0.184731165E+00 -0.267621330E+00
   C  0.755028955E+01  0.237213074E+00  0.934417941E-01
   H -0.384460329E+02  0.514046596E+01  0.260476649E+01
   H  0.371297825E+02 -0.471534840E+01  0.159175380E+01
     4
 # iter = 68000  time[fs]=68.00000
   C -0.787202807E+01 -0.187151844E+00 -0.270682123E+00
   C  0.763601090E+01  0.240558664E+00  0.944534488E-01
   H -0.388530468E+02  0.519544659E+01  0.263272083E+01
   H  0.375203975E+02 -0.476507882E+01  0.160852801E+01
     4
 # iter = 68500  time[fs]=68.50000
   C -0.796052631E+01 -0.189574859E+00 -0.273744955E+00
   C  0.772178483E+01  0.243906620E+00  0.954659430E-01
   H -0.392601751E+02  0.525044459E+01  0.266068412E+01
   H  0.379111342E+02 -0.481482699E+01  0.162530768E+01
     4
 # iter = 69000  time[fs]=69.00000
   C -0.804907656E+01 -0.192000163E+00 -0.276809782E+00
   C  0.780761017E+01  0.247256896E+00  0.964792572E-01
   H -0.396674154E+02  0.530545960E+01  0.268865616E+01
   H  0.383019900E+02 -0.486459253E+01  0.164209269E+01
     4
 # iter = 69500  time[fs]=69.50000
   C -0.813767766E+01 -0.194427712E+00 -0.279876563E+00
   C  0.789348579E+01  0.250609446E+00  0.974933725E-01
   H -0.400747655E+02  0.536049129E+01  0.271663679E+01
   H  0.386929626E+02 -0.491437510E+01  0.165888294E+01
     4
 # iter = 70000  time[fs]=70.00000
   C -0.822632852E+01 -0.196857461E+00 -0.282945255E+00
   C  0.797941058E+01  0.253964226E+00  0.985082706E-01
   H -0.404822232E+02  0.541553932E+01  0.274462583E+01
   H  0.390840496E+02 -0.496417438E+01  0.167567833E+01
     4
 # iter = 70500  time[fs]=70.50000
   C -0.831502804E+01 -0.199289369E+00 -0.286015820E+00
   C  0.806538348E+01  0.257321194E+00  0.995239338E-01
   H -0.408897863E+02  0.547060338E+01  0.277262313E+01
   H  0.394752488E+02 -0.501399003E+01  0.169247874E+01
     4
 # iter = 71000  time[fs]=71.00000
   C -0.840377520E+01 -0.201723394E+00 -0.289088218E+00
   C  0.815140347E+01  0.260680308E+00  0.100540345E+00
   H -0.412974527E+02  0.552568315E+01  0.280062852E+01
   H  0.398665580E+02 -0.506382174E+01  0.170928409E+01
     4
 # iter = 71500  time[fs]=71.50000
   C -0.849256900E+01 -0.204159496E+00 -0.292162413E+00
   C  0.823746954E+01  0.264041528E+00  0.101557488E+00
   H -0.417052205E+02  0.558077833E+01  0.282864185E+01
   H  0.402579750E+02 -0.511366921E+01  0.172609429E+01
     4
 # iter = 72000  time[fs]=72.00000
   C -0.858140844E+01 -0.206597637E+00 -0.295238368E+00
   C  0.832358074E+01  0.267404814E+00  0.102575346E+00
   H -0.421130877E+02  0.563588864E+01  0.285666297E+01
   H  0.406494978E+02 -0.516353213E+01  0.174290923E+01
     4
 # iter = 72500  time[fs]=72.50000
   C -0.867029259E+01 -0.209037778E+00 -0.298316047E+00
   C  0.840973612E+01  0.270770129E+00  0.103593903E+00
   H -0.425210524E+02  0.569101377E+01  0.288469172E+01
   H  0.410411243E+02 -0.521341021E+01  0.175972883E+01
     4
 # iter = 73000  time[fs]=73.00000
   C -0.875922053E+01 -0.211479883E+00 -0.301395417E+00
   C  0.849593477E+01  0.274137434E+00  0.104613146E+00
   H -0.429291127E+02  0.574615346E+01  0.291272798E+01
   H  0.414328526E+02 -0.526330318E+01  0.177655300E+01
     4
 # iter = 73500  time[fs]=73.50000
   C -0.884819137E+01 -0.213923916E+00 -0.304476445E+00
   C  0.858217582E+01  0.277506694E+00  0.105633059E+00
   H -0.433372668E+02  0.580130744E+01  0.294077159E+01
   H  0.418246809E+02 -0.531321075E+01  0.179338166E+01
     4
 # iter = 74000  time[fs]=74.00000
   C -0.893720425E+01 -0.216369841E+00 -0.307559098E+00
   C  0.866845841E+01  0.280877874E+00  0.106653628E+00
   H -0.437455130E+02  0.585647544E+01  0.296882243E+01
   H  0.422166071E+02 -0.536313267E+01  0.181021473E+01
     4
 # iter = 74500  time[fs]=74.50000
   C -0.902625833E+01 -0.218817626E+00 -0.310643345E+00
   C  0.875478171E+01  0.284250938E+00  0.107674840E+00
   H -0.441538496E+02  0.591165721E+01  0.299688036E+01
   H  0.426086297E+02 -0.541306868E+01  0.182705211E+01
     4
 # iter = 75000  time[fs]=75.00000
   C -0.911535279E+01 -0.221267237E+00 -0.313729156E+00
   C  0.884114491E+01  0.287625855E+00  0.108696681E+00
   H -0.445622750E+02  0.596685250E+01  0.302494526E+01
   H  0.430007467E+02 -0.546301851E+01  0.184389375E+01
     4
 # iter = 75500  time[fs]=75.50000
   C -0.920448684E+01 -0.223718641E+00 -0.316816502E+00
   C  0.892754724E+01  0.291002591E+00  0.109719138E+00
   H -0.449707875E+02  0.602206107E+01  0.305301700E+01
   H  0.433929566E+02 -0.551298193E+01  0.186073956E+01
     4
 # iter = 76000  time[fs]=76.00000
   C -0.929365972E+01 -0.226171808E+00 -0.319905352E+00
   C  0.901398792E+01  0.294381114E+00  0.110742200E+00
   H -0.453793855E+02  0.607728268E+01  0.308109547E+01
   H  0.437852575E+02 -0.556295870E+01  0.187758946E+01
     4
 # iter = 76500  time[fs]=76.50000
   C -0.938287068E+01 -0.228626706E+00 -0.322995680E+00
   C  0.910046623E+01  0.297761395E+00  0.111765853E+00
   H -0.457880676E+02  0.613251711E+01  0.310918054E+01
   H  0.441776480E+02 -0.561294858E+01  0.189444339E+01
     4
 # iter = 77000  time[fs]=77.00000
   C -0.947211900E+01 -0.231083307E+00 -0.326087459E+00
   C  0.918698145E+01  0.301143402E+00  0.112790085E+00
   H -0.461968322E+02  0.618776413E+01  0.313727209E+01
   H  0.445701265E+02 -0.566295134E+01  0.191130128E+01
     4
 # iter = 77500  time[fs]=77.50000
   C -0.956140397E+01 -0.233541580E+00 -0.329180661E+00
   C  0.927353287E+01  0.304527106E+00  0.113814887E+00
   H -0.466056780E+02  0.624302352E+01  0.316537003E+01
   H  0.449626914E+02 -0.571296677E+01  0.192816305E+01
     4
 # iter = 78000  time[fs]=78.00000
   C -0.965072491E+01 -0.236001498E+00 -0.332275261E+00
   C  0.936011983E+01  0.307912478E+00  0.114840246E+00
   H -0.470146035E+02  0.629829507E+01  0.319347423E+01
   H  0.453553412E+02 -0.576299465E+01  0.194502864E+01
     4
 # iter = 78500  time[fs]=78.50000
   C -0.974008114E+01 -0.238463033E+00 -0.335371235E+00
   C  0.944674166E+01  0.311299492E+00  0.115866152E+00
   H -0.474236073E+02  0.635357858E+01  0.322158460E+01
   H  0.457480745E+02 -0.581303477E+01  0.196189799E+01
     4
 # iter = 79000  time[fs]=79.00000
   C -0.982947202E+01 -0.240926159E+00 -0.338468558E+00
   C  0.953339771E+01  0.314688119E+00  0.116892593E+00
   H -0.478326881E+02  0.640887384E+01  0.324970103E+01
   H  0.461408899E+02 -0.586308692E+01  0.197877103E+01
     4
 # iter = 79500  time[fs]=79.50000
   C -0.991889693E+01 -0.243390848E+00 -0.341567205E+00
   C  0.962008737E+01  0.318078332E+00  0.117919561E+00
   H -0.482418445E+02  0.646418066E+01  0.327782341E+01
   H  0.465337859E+02 -0.591315091E+01  0.199564770E+01
     4
 # iter = 80000  time[fs]=80.00000
   C -0.100083552E+02 -0.245857075E+00 -0.344667155E+00
   C  0.970681003E+01  0.321470107E+00  0.118947045E+00
   H -0.486510755E+02  0.651949885E+01  0.330595166E+01
   H  0.469267613E+02 -0.596322654E+01  0.201252794E+01
