     4
 # iter = 25000  time[fs]=25.00000
   C -0.977461413E+00 -0.927537069E-02  0.289400508E-01
   C  0.993484362E+00  0.136019420E-01  0.162059267E-01
   H -0.533968625E+01  0.757711678E-01 -0.477612881E+00
   H  0.533095921E+01  0.468921096E+00  0.329398972E+00
     4
 # iter = 25500  time[fs]=25.50000
   C -0.102202973E+01 -0.101656605E-01  0.311481477E-01
   C  0.103540129E+01  0.109631660E-01  0.161770886E-01
   H -0.566973848E+01  0.791859588E-01 -0.508593062E+00
   H  0.564861732E+01  0.493652145E+00  0.351008664E+00
     4
 # iter = 26000  time[fs]=26.00000
   C -0.107067953E+01 -0.111060641E-01  0.333985348E-01
   C  0.108139755E+01  0.835254642E-02  0.161134760E-01
   H -0.600240206E+01  0.826290219E-01 -0.539836705E+00
   H  0.596891268E+01  0.518618410E+00  0.372791632E+00
     4
 # iter = 26500  time[fs]=26.50000
   C -0.112306280E+01 -0.120874302E-01  0.356900940E-01
   C  0.113112483E+01  0.576335246E-02  0.160153083E-01
   H -0.633739191E+01  0.860971459E-01 -0.571315231E+00
   H  0.629156340E+01  0.543794056E+00  0.394730077E+00
     4
 # iter = 27000  time[fs]=27.00000
   C -0.117885083E+01 -0.131021330E-01  0.380213966E-01
   C  0.118425432E+01  0.318999303E-02  0.158832688E-01
   H -0.667446671E+01  0.895876668E-01 -0.603004544E+00
   H  0.661632996E+01  0.569157332E+00  0.416808850E+00
     4
 # iter = 27500  time[fs]=27.50000
   C -0.123773810E+01 -0.141438767E-01  0.403907900E-01
   C  0.124048040E+01  0.627899648E-03  0.157183847E-01
   H -0.701342049E+01  0.930983451E-01 -0.634884132E+00
   H  0.694300722E+01  0.594689748E+00  0.439014945E+00
     4
 # iter = 28000  time[fs]=28.00000
   C -0.129944388E+01 -0.152074983E-01  0.427964788E-01
   C  0.129952234E+01 -0.192661103E-02  0.155219215E-01
   H -0.735407607E+01  0.966272759E-01 -0.666936384E+00
   H  0.727141819E+01  0.620375455E+00  0.461337107E+00
     4
 # iter = 28500  time[fs]=28.50000
   C -0.136371251E+01 -0.162887835E-01  0.452365951E-01
   C  0.136112448E+01 -0.447647553E-02  0.152952940E-01
   H -0.769628000E+01  0.100172823E+00 -0.699146059E+00
   H  0.760140915E+01  0.646200754E+00  0.483765534E+00
     4
 # iter = 29000  time[fs]=29.00000
   C -0.143031256E+01 -0.173843032E-01  0.477092538E-01
   C  0.142505545E+01 -0.702401199E-02  0.150399972E-01
   H -0.803989847E+01  0.103733569E+00 -0.731499879E+00
   H  0.793284574E+01  0.672153731E+00  0.506291628E+00
     4
 # iter = 29500  time[fs]=29.50000
   C -0.149903546E+01 -0.184912714E-01  0.502125946E-01
   C  0.149110674E+01 -0.957103342E-02  0.147575526E-01
   H -0.838481420E+01  0.107308276E+00 -0.763986197E+00
   H  0.826560990E+01  0.698223949E+00  0.528907810E+00
     4
 # iter = 30000  time[fs]=30.00000
   C -0.156969378E+01 -0.196074269E-01  0.527448118E-01
   C  0.155909101E+01 -0.121189445E-01  0.144494700E-01
   H -0.873092375E+01  0.110895856E+00 -0.796594745E+00
   H  0.859959733E+01  0.724402219E+00  0.551607361E+00
     4
 # iter = 30500  time[fs]=30.50000
   C -0.164211936E+01 -0.207309342E-01  0.553041745E-01
   C  0.162884016E+01 -0.146688225E-01  0.141172203E-01
   H -0.907813551E+01  0.114495347E+00 -0.829316418E+00
   H  0.893471546E+01  0.750680401E+00  0.574384295E+00
     4
 # iter = 31000  time[fs]=31.00000
   C -0.171616144E+01 -0.218603027E-01  0.578890390E-01
   C  0.170020352E+01 -0.172214831E-01  0.137622175E-01
   H -0.942636794E+01  0.118105892E+00 -0.862143102E+00
   H  0.927088176E+01  0.777051256E+00  0.597233256E+00
     4
 # iter = 31500  time[fs]=31.50000
   C -0.179168488E+01 -0.229943207E-01  0.604978550E-01
   C  0.177304603E+01 -0.197775351E-01  0.133858080E-01
   H -0.977554817E+01  0.121726728E+00 -0.895067540E+00
   H  0.960802232E+01  0.803508309E+00  0.620149433E+00
     4
 # iter = 32000  time[fs]=32.00000
   C -0.186856846E+01 -0.241320021E-01  0.631291682E-01
   C  0.184724656E+01 -0.223374229E-01  0.129892641E-01
   H -0.101256108E+02  0.125357166E+00 -0.928083207E+00
   H  0.994607077E+01  0.830045751E+00  0.643128487E+00
     4
 # iter = 32500  time[fs]=32.50000
   C -0.194670336E+01 -0.252725438E-01  0.657816196E-01
   C  0.192269637E+01 -0.249014619E-01  0.125737819E-01
   H -0.104764969E+02  0.128996589E+00 -0.961184221E+00
   H  0.102849672E+02  0.856658347E+00  0.666166488E+00
     4
 # iter = 33000  time[fs]=33.00000
   C -0.202599180E+01 -0.264152907E-01  0.684539426E-01
   C  0.199929775E+01 -0.274698661E-01  0.121404812E-01
   H -0.108281533E+02  0.132644436E+00 -0.994365253E+00
   H  0.106246574E+02  0.883341363E+00  0.689259870E+00
     4
 # iter = 33500  time[fs]=33.50000
   C -0.210634572E+01 -0.275597078E-01  0.711449594E-01
   C  0.207696274E+01 -0.300427698E-01  0.116904076E-01
   H -0.111805317E+02  0.136300199E+00 -0.102762147E+01
   H  0.109650923E+02  0.910090501E+00  0.712405383E+00
     4
 # iter = 34000  time[fs]=34.00000
   C -0.218768578E+01 -0.287053583E-01  0.738535758E-01
   C  0.215561205E+01 -0.326202457E-01  0.112245355E-01
   H -0.115335882E+02  0.139963414E+00 -0.106094846E+01
   H  0.113062269E+02  0.936901851E+00  0.735600058E+00
     4
 # iter = 34500  time[fs]=34.50000
   C -0.226994028E+01 -0.298518848E-01  0.765787761E-01
   C  0.223517407E+01 -0.352023181E-01  0.107437715E-01
   H -0.118872827E+02  0.143633659E+00 -0.109434219E+01
   H  0.116480205E+02  0.963771842E+00  0.758841175E+00
     4
 # iter = 35000  time[fs]=35.00000
   C -0.235304437E+01 -0.309989950E-01  0.793196182E-01
   C  0.231558401E+01 -0.377889745E-01  0.102489585E-01
   H -0.122415787E+02  0.147310545E+00 -0.112779898E+01
   H  0.119904355E+02  0.990697207E+00  0.782126236E+00
     4
 # iter = 35500  time[fs]=35.50000
   C -0.243693927E+01 -0.321464501E-01  0.820752278E-01
   C  0.239678315E+01 -0.403801742E-01  0.974087999E-02
   H -0.125964426E+02  0.150993715E+00 -0.116131544E+01
   H  0.123334377E+02  0.101767494E+01  0.805452939E+00
     4
 # iter = 36000  time[fs]=36.00000
   C -0.252157156E+01 -0.332940549E-01  0.848447936E-01
   C  0.247871814E+01 -0.429758549E-01  0.922026406E-02
   H -0.129518436E+02  0.154682843E+00 -0.119488845E+01
   H  0.126769954E+02  0.104470229E+01  0.828819163E+00
     4
 # iter = 36500  time[fs]=36.50000
   C -0.260689266E+01 -0.344416502E-01  0.876275625E-01
   C  0.256134047E+01 -0.455759383E-01  0.868778747E-02
   H -0.133077532E+02  0.158377625E+00 -0.122851512E+01
   H  0.130210795E+02  0.107177670E+01  0.852222944E+00
     4
 # iter = 37000  time[fs]=37.00000
   C -0.269285827E+01 -0.355891062E-01  0.904228348E-01
   C  0.264460588E+01 -0.481803348E-01  0.814407947E-02
   H -0.136641451E+02  0.162077781E+00 -0.126219279E+01
   H  0.133656631E+02  0.109889583E+01  0.875662463E+00
     4
 # iter = 37500  time[fs]=37.50000
   C -0.277942793E+01 -0.367363178E-01  0.932299602E-01
   C  0.272847396E+01 -0.507889462E-01  0.758972548E-02
   H -0.140209953E+02  0.165783050E+00 -0.129591900E+01
   H  0.137107213E+02  0.112605748E+01  0.899136030E+00
     4
 # iter = 38000  time[fs]=38.00000
   C -0.286656460E+01 -0.378831998E-01  0.960483335E-01
   C  0.281290774E+01 -0.534016689E-01  0.702527046E-02
   H -0.143782810E+02  0.169493193E+00 -0.132969144E+01
   H  0.140562310E+02  0.115325965E+01  0.922642074E+00
     4
 # iter = 38500  time[fs]=38.50000
   C -0.295423433E+01 -0.390296839E-01  0.988773914E-01
   C  0.289787331E+01 -0.560183959E-01  0.645122212E-02
   H -0.147359815E+02  0.173207984E+00 -0.136350800E+01
   H  0.144021707E+02  0.118050044E+01  0.946179131E+00
     4
 # iter = 39000  time[fs]=39.00000
   C -0.304240594E+01 -0.401757156E-01  0.101716609E+00
   C  0.298333953E+01 -0.586390181E-01  0.586805384E-02
   H -0.150940774E+02  0.176927214E+00 -0.139736667E+01
   H  0.147485204E+02  0.120777811E+01  0.969745833E+00
     4
 # iter = 39500  time[fs]=39.50000
   C -0.313105074E+01 -0.413212519E-01  0.104565496E+00
   C  0.306927776E+01 -0.612634261E-01  0.527620738E-02
   H -0.154525505E+02  0.180650689E+00 -0.143126561E+01
   H  0.150952615E+02  0.123509101E+01  0.993340903E+00
     4
 # iter = 40000  time[fs]=40.00000
   C -0.322014228E+01 -0.424662591E-01  0.107423595E+00
   C  0.315566159E+01 -0.638915109E-01  0.467609534E-02
   H -0.158113840E+02  0.184378224E+00 -0.146520308E+01
   H  0.154423766E+02  0.126243763E+01  0.101696314E+01
     4
 # iter = 40500  time[fs]=40.50000
   C -0.330965615E+01 -0.436107117E-01  0.110290479E+00
   C  0.324246666E+01 -0.665231647E-01  0.406810351E-02
   H -0.161705621E+02  0.188109649E+00 -0.149917745E+01
   H  0.157898495E+02  0.128981653E+01  0.104061143E+01
     4
 # iter = 41000  time[fs]=41.00000
   C -0.339956978E+01 -0.447545908E-01  0.113165747E+00
   C  0.332967043E+01 -0.691582815E-01  0.345259289E-02
   H -0.165300700E+02  0.191844805E+00 -0.153318721E+01
   H  0.161376649E+02  0.131722638E+01  0.106428472E+01
     4
 # iter = 41500  time[fs]=41.50000
   C -0.348986226E+01 -0.458978826E-01  0.116049024E+00
   C  0.341725202E+01 -0.717967574E-01  0.282990165E-02
   H -0.168898938E+02  0.195583539E+00 -0.156723092E+01
   H  0.164858086E+02  0.134466591E+01  0.108798201E+01
     4
 # iter = 42000  time[fs]=42.00000
   C -0.358051420E+01 -0.470405783E-01  0.118939960E+00
   C  0.350519209E+01 -0.744384911E-01  0.220034688E-02
   H -0.172500206E+02  0.199325710E+00 -0.160130724E+01
   H  0.168342671E+02  0.137213394E+01  0.111170237E+01
     4
 # iter = 42500  time[fs]=42.50000
   C -0.367150758E+01 -0.481826725E-01  0.121838224E+00
   C  0.359347264E+01 -0.770833841E-01  0.156422620E-02
   H -0.176104381E+02  0.203071186E+00 -0.163541490E+01
   H  0.171830277E+02  0.139962936E+01  0.113544493E+01
     4
 # iter = 43000  time[fs]=43.00000
   C -0.376282565E+01 -0.493241630E-01  0.124743506E+00
   C  0.368207696E+01 -0.797313405E-01  0.921819192E-03
   H -0.179711349E+02  0.206819839E+00 -0.166955270E+01
   H  0.175320788E+02  0.142715112E+01  0.115920885E+01
     4
 # iter = 43500  time[fs]=43.50000
   C -0.385445280E+01 -0.504650504E-01  0.127655516E+00
   C  0.377098946E+01 -0.823822678E-01  0.273388790E-03
   H -0.183321001E+02  0.210571552E+00 -0.170371953E+01
   H  0.178814089E+02  0.145469823E+01  0.118299335E+01
     4
 # iter = 44000  time[fs]=44.00000
   C -0.394637446E+01 -0.516053370E-01  0.130573977E+00
   C  0.386019561E+01 -0.850360761E-01 -0.380817521E-03
   H -0.186933235E+02  0.214326211E+00 -0.173791432E+01
   H  0.182310077E+02  0.148226976E+01  0.120679769E+01
     4
 # iter = 44500  time[fs]=44.50000
   C -0.403857703E+01 -0.527450273E-01  0.133498633E+00
   C  0.394968183E+01 -0.876926788E-01 -0.104056657E-02
   H -0.190547955E+02  0.218083712E+00 -0.177213606E+01
   H  0.185808650E+02  0.150986483E+01  0.123062117E+01
     4
 # iter = 45000  time[fs]=45.00000
   C -0.413104779E+01 -0.538841268E-01  0.136429239E+00
   C  0.403943543E+01 -0.903519921E-01 -0.170563846E-02
   H -0.194165069E+02  0.221843953E+00 -0.180638381E+01
   H  0.189309716E+02  0.153748259E+01  0.125446312E+01
     4
 # iter = 45500  time[fs]=45.50000
   C -0.422377482E+01 -0.550226423E-01  0.139365565E+00
   C  0.412944452E+01 -0.930139353E-01 -0.237582566E-02
   H -0.197784491E+02  0.225606840E+00 -0.184065664E+01
   H  0.192813184E+02  0.156512226E+01  0.127832292E+01
     4
 # iter = 46000  time[fs]=46.00000
   C -0.431674697E+01 -0.561605816E-01  0.142307393E+00
   C  0.421969795E+01 -0.956784306E-01 -0.305093206E-02
   H -0.201406140E+02  0.229372281E+00 -0.187495372E+01
   H  0.196318970E+02  0.159278308E+01  0.130219995E+01
     4
 # iter = 46500  time[fs]=46.50000
   C -0.440995373E+01 -0.572979532E-01  0.145254517E+00
   C  0.431018526E+01 -0.983454028E-01 -0.373077228E-02
   H -0.205029938E+02  0.233140192E+00 -0.190927423E+01
   H  0.199826994E+02  0.162046435E+01  0.132609367E+01
     4
 # iter = 47000  time[fs]=47.00000
   C -0.450338527E+01 -0.584347661E-01  0.148206744E+00
   C  0.440089663E+01 -0.101014780E+00 -0.441517083E-02
   H -0.208655811E+02  0.236910490E+00 -0.194361739E+01
   H  0.203337180E+02  0.164816538E+01  0.135000351E+01
     4
 # iter = 47500  time[fs]=47.50000
   C -0.459703231E+01 -0.595710297E-01  0.151163887E+00
   C  0.449182281E+01 -0.103686492E+00 -0.510396154E-02
   H -0.212283690E+02  0.240683098E+00 -0.197798247E+01
   H  0.206849455E+02  0.167588553E+01  0.137392897E+01
     4
 # iter = 48000  time[fs]=48.00000
   C -0.469088613E+01 -0.607067538E-01  0.154125774E+00
   C  0.458295509E+01 -0.106360472E+00 -0.579698685E-02
   H -0.215913509E+02  0.244457942E+00 -0.201236877E+01
   H  0.210363750E+02  0.170362418E+01  0.139786956E+01
     4
 # iter = 48500  time[fs]=48.50000
   C -0.478493851E+01 -0.618419484E-01  0.157092236E+00
   C  0.467428527E+01 -0.109036656E+00 -0.649409730E-02
   H -0.219545203E+02  0.248234953E+00 -0.204677563E+01
   H  0.213880001E+02  0.173138077E+01  0.142182481E+01
     4
 # iter = 49000  time[fs]=49.00000
   C -0.487918168E+01 -0.629766237E-01  0.160063117E+00
   C  0.476580560E+01 -0.111714981E+00 -0.719515099E-02
   H -0.223178714E+02  0.252014062E+00 -0.208120240E+01
   H  0.217398144E+02  0.175915471E+01  0.144579427E+01
     4
 # iter = 49500  time[fs]=49.50000
   C -0.497360831E+01 -0.641107899E-01  0.163038267E+00
   C  0.485750877E+01 -0.114395388E+00 -0.790001307E-02
   H -0.226813983E+02  0.255795206E+00 -0.211564848E+01
   H  0.220918121E+02  0.178694550E+01  0.146977751E+01
     4
 # iter = 50000  time[fs]=50.00000
   C -0.506821147E+01 -0.652444572E-01  0.166017544E+00
   C  0.494938786E+01 -0.117077819E+00 -0.860855532E-02
   H -0.230450957E+02  0.259578323E+00 -0.215011330E+01
   H  0.224439874E+02  0.181475261E+01  0.149377414E+01
     4
 # iter = 50500  time[fs]=50.50000
   C -0.516298460E+01 -0.663776359E-01  0.169000811E+00
   C  0.504143634E+01 -0.119762219E+00 -0.932065573E-02
   H -0.234089583E+02  0.263363356E+00 -0.218459629E+01
   H  0.227963350E+02  0.184257557E+01  0.151778375E+01
     4
 # iter = 51000  time[fs]=51.00000
   C -0.525792148E+01 -0.675103361E-01  0.171987939E+00
   C  0.513364801E+01 -0.122448534E+00 -0.100361981E-01
   H -0.237729811E+02  0.267150248E+00 -0.221909694E+01
   H  0.231488497E+02  0.187041391E+01  0.154180598E+01
     4
 # iter = 51500  time[fs]=51.50000
   C -0.535301624E+01 -0.686425679E-01  0.174978806E+00
   C  0.522601699E+01 -0.125136713E+00 -0.107550717E-01
   H -0.241371594E+02  0.270938946E+00 -0.225361472E+01
   H  0.235015265E+02  0.189826718E+01  0.156584047E+01
     4
 # iter = 52000  time[fs]=52.00000
   C -0.544826329E+01 -0.697743412E-01  0.177973294E+00
   C  0.531853771E+01 -0.127826705E+00 -0.114771710E-01
   H -0.245014886E+02  0.274729399E+00 -0.228814917E+01
   H  0.238543607E+02  0.192613497E+01  0.158988687E+01
     4
 # iter = 52500  time[fs]=52.50000
   C -0.554365732E+01 -0.709056659E-01  0.180971290E+00
   C  0.541120489E+01 -0.130518464E+00 -0.122023952E-01
   H -0.248659643E+02  0.278521557E+00 -0.232269981E+01
   H  0.242073479E+02  0.195401687E+01  0.161394486E+01
     4
 # iter = 53000  time[fs]=53.00000
   C -0.563919329E+01 -0.720365517E-01  0.183972688E+00
   C  0.550401350E+01 -0.133211944E+00 -0.129306481E-01
   H -0.252305825E+02  0.282315374E+00 -0.235726620E+01
   H  0.245604836E+02  0.198191249E+01  0.163801413E+01
     4
 # iter = 53500  time[fs]=53.50000
   C -0.573486641E+01 -0.731670080E-01  0.186977385E+00
   C  0.559695875E+01 -0.135907100E+00 -0.136618377E-01
   H -0.255953391E+02  0.286110805E+00 -0.239184791E+01
   H  0.249137638E+02  0.200982145E+01  0.166209437E+01
     4
 # iter = 54000  time[fs]=54.00000
   C -0.583067211E+01 -0.742970442E-01  0.189985283E+00
   C  0.569003611E+01 -0.138603888E+00 -0.143958763E-01
   H -0.259602302E+02  0.289907807E+00 -0.242644454E+01
   H  0.252671844E+02  0.203774340E+01  0.168618529E+01
     4
 # iter = 54500  time[fs]=54.50000
   C -0.592660607E+01 -0.754266693E-01  0.192996290E+00
   C  0.578324123E+01 -0.141302269E+00 -0.151326796E-01
   H -0.263252523E+02  0.293706336E+00 -0.246105568E+01
   H  0.256207416E+02  0.206567799E+01  0.171028662E+01
     4
 # iter = 55000  time[fs]=55.00000
   C -0.602266413E+01 -0.765558923E-01  0.196010314E+00
   C  0.587657000E+01 -0.144002202E+00 -0.158721674E-01
   H -0.266904017E+02  0.297506355E+00 -0.249568096E+01
   H  0.259744318E+02  0.209362489E+01  0.173439808E+01
     4
 # iter = 55500  time[fs]=55.50000
   C -0.611884235E+01 -0.776847220E-01  0.199027270E+00
   C  0.597001847E+01 -0.146703649E+00 -0.166142624E-01
   H -0.270556752E+02  0.301307825E+00 -0.253032002E+01
   H  0.263282514E+02  0.212158379E+01  0.175851943E+01
     4
 # iter = 56000  time[fs]=56.00000
   C -0.621513696E+01 -0.788131669E-01  0.202047075E+00
   C  0.606358288E+01 -0.149406572E+00 -0.173588908E-01
   H -0.274210693E+02  0.305110708E+00 -0.256497250E+01
   H  0.266821971E+02  0.214955437E+01  0.178265040E+01
     4
 # iter = 56500  time[fs]=56.50000
   C -0.631154436E+01 -0.799412353E-01  0.205069652E+00
   C  0.615725966E+01 -0.152110937E+00 -0.181059818E-01
   H -0.277865811E+02  0.308914968E+00 -0.259963808E+01
   H  0.270362656E+02  0.217753635E+01  0.180679077E+01
     4
 # iter = 57000  time[fs]=57.00000
   C -0.640806112E+01 -0.810689354E-01  0.208094923E+00
   C  0.625104538E+01 -0.154816707E+00 -0.188554675E-01
   H -0.281522075E+02  0.312720573E+00 -0.263431642E+01
   H  0.273904537E+02  0.220552945E+01  0.183094029E+01
     4
 # iter = 57500  time[fs]=57.50000
   C -0.650468395E+01 -0.821962750E-01  0.211122817E+00
   C  0.634493674E+01 -0.157523850E+00 -0.196072827E-01
   H -0.285179456E+02  0.316527489E+00 -0.266900721E+01
   H  0.277447586E+02  0.223353338E+01  0.185509876E+01
     4
 # iter = 58000  time[fs]=58.00000
   C -0.660140971E+01 -0.833232621E-01  0.214153263E+00
   C  0.643893064E+01 -0.160232334E+00 -0.203613646E-01
   H -0.288837927E+02  0.320335683E+00 -0.270371016E+01
   H  0.280991772E+02  0.226154788E+01  0.187926596E+01
     4
 # iter = 58500  time[fs]=58.50000
   C -0.669823537E+01 -0.844499041E-01  0.217186194E+00
   C  0.653302405E+01 -0.162942127E+00 -0.211176533E-01
   H -0.292497460E+02  0.324145127E+00 -0.273842497E+01
   H  0.284537068E+02  0.228957271E+01  0.190344168E+01
     4
 # iter = 59000  time[fs]=59.00000
   C -0.679515807E+01 -0.855762083E-01  0.220221545E+00
   C  0.662721410E+01 -0.165653200E+00 -0.218760908E-01
   H -0.296158029E+02  0.327955789E+00 -0.277315136E+01
   H  0.288083446E+02  0.231760762E+01  0.192762573E+01
     4
 # iter = 59500  time[fs]=59.50000
   C -0.689217504E+01 -0.867021820E-01  0.223259255E+00
   C  0.672149805E+01 -0.168365522E+00 -0.226366214E-01
   H -0.299819610E+02  0.331767641E+00 -0.280788907E+01
   H  0.291630882E+02  0.234565237E+01  0.195181790E+01
     4
 # iter = 60000  time[fs]=60.00000
   C -0.698928362E+01 -0.878278321E-01  0.226299263E+00
   C  0.681587325E+01 -0.171079067E+00 -0.233991917E-01
   H -0.303482179E+02  0.335580657E+00 -0.284263783E+01
   H  0.295179349E+02  0.237370674E+01  0.197601802E+01
     4
 # iter = 60500  time[fs]=60.50000
   C -0.708648129E+01 -0.889531654E-01  0.229341513E+00
   C  0.691033716E+01 -0.173793805E+00 -0.241637501E-01
   H -0.307145713E+02  0.339394809E+00 -0.287739739E+01
   H  0.298728825E+02  0.240177050E+01  0.200022591E+01
     4
 # iter = 61000  time[fs]=61.00000
   C -0.718376558E+01 -0.900781886E-01  0.232385947E+00
   C  0.700488735E+01 -0.176509712E+00 -0.249302471E-01
   H -0.310810188E+02  0.343210072E+00 -0.291216750E+01
   H  0.302279284E+02  0.242984345E+01  0.202444139E+01
     4
 # iter = 61500  time[fs]=61.50000
   C -0.728113417E+01 -0.912029081E-01  0.235432514E+00
   C  0.709952150E+01 -0.179226761E+00 -0.256986347E-01
   H -0.314475584E+02  0.347026420E+00 -0.294694794E+01
   H  0.305830706E+02  0.245792537E+01  0.204866430E+01
     4
 # iter = 62000  time[fs]=62.00000
   C -0.737858480E+01 -0.923273301E-01  0.238481161E+00
   C  0.719423734E+01 -0.181944928E+00 -0.264688669E-01
   H -0.318141879E+02  0.350843831E+00 -0.298173848E+01
   H  0.309383067E+02  0.248601607E+01  0.207289447E+01
     4
 # iter = 62500  time[fs]=62.50000
   C -0.747611530E+01 -0.934514608E-01  0.241531839E+00
   C  0.728903273E+01 -0.184664188E+00 -0.272408993E-01
   H -0.321809054E+02  0.354662280E+00 -0.301653889E+01
   H  0.312936348E+02  0.251411537E+01  0.209713175E+01
     4
 # iter = 63000  time[fs]=63.00000
   C -0.757372360E+01 -0.945753061E-01  0.244584500E+00
   C  0.738390559E+01 -0.187384519E+00 -0.280146890E-01
   H -0.325477089E+02  0.358481746E+00 -0.305134896E+01
   H  0.316490527E+02  0.254222306E+01  0.212137598E+01
     4
 # iter = 63500  time[fs]=63.50000
   C -0.767140768E+01 -0.956988719E-01  0.247639098E+00
   C  0.747885392E+01 -0.190105897E+00 -0.287901945E-01
   H -0.329145964E+02  0.362302206E+00 -0.308616849E+01
   H  0.320045585E+02  0.257033898E+01  0.214562703E+01
     4
 # iter = 64000  time[fs]=64.00000
   C -0.776916563E+01 -0.968221637E-01  0.250695587E+00
   C  0.757387579E+01 -0.192828301E+00 -0.295673760E-01
   H -0.332815662E+02  0.366123640E+00 -0.312099728E+01
   H  0.323601504E+02  0.259846294E+01  0.216988474E+01
     4
 # iter = 64500  time[fs]=64.50000
   C -0.786699558E+01 -0.979451871E-01  0.253753924E+00
   C  0.766896937E+01 -0.195551709E+00 -0.303461948E-01
   H -0.336486166E+02  0.369946027E+00 -0.315583513E+01
   H  0.327158264E+02  0.262659479E+01  0.219414898E+01
     4
 # iter = 65000  time[fs]=65.00000
   C -0.796489575E+01 -0.990679474E-01  0.256814069E+00
   C  0.776413287E+01 -0.198276102E+00 -0.311266136E-01
   H -0.340157457E+02  0.373769347E+00 -0.319068185E+01
   H  0.330715847E+02  0.265473436E+01  0.221841962E+01
     4
 # iter = 65500  time[fs]=65.50000
   C -0.806286440E+01 -0.100190450E+00  0.259875979E+00
   C  0.785936456E+01 -0.201001459E+00 -0.319085965E-01
   H -0.343829519E+02  0.377593581E+00 -0.322553728E+01
   H  0.334274238E+02  0.268288148E+01  0.224269653E+01
     4
 # iter = 66000  time[fs]=66.00000
   C -0.816089988E+01 -0.101312699E+00  0.262939617E+00
   C  0.795466278E+01 -0.203727760E+00 -0.326921085E-01
   H -0.347502337E+02  0.381418711E+00 -0.326040122E+01
   H  0.337833417E+02  0.271103601E+01  0.226697958E+01
     4
 # iter = 66500  time[fs]=66.50000
   C -0.825900057E+01 -0.102434701E+00  0.266004945E+00
   C  0.805002595E+01 -0.206454987E+00 -0.334771159E-01
   H -0.351175895E+02  0.385244719E+00 -0.329527351E+01
   H  0.341393371E+02  0.273919780E+01  0.229126864E+01
     4
 # iter = 67000  time[fs]=67.00000
   C -0.835716494E+01 -0.103556459E+00  0.269071926E+00
   C  0.814545251E+01 -0.209183122E+00 -0.342635862E-01
   H -0.354850177E+02  0.389071587E+00 -0.333015398E+01
   H  0.344954082E+02  0.276736670E+01  0.231556361E+01
     4
 # iter = 67500  time[fs]=67.50000
   C -0.845539148E+01 -0.104677979E+00  0.272140524E+00
   C  0.824094097E+01 -0.211912146E+00 -0.350514877E-01
   H -0.358525169E+02  0.392899299E+00 -0.336504248E+01
   H  0.348515535E+02  0.279554257E+01  0.233986436E+01
     4
 # iter = 68000  time[fs]=68.00000
   C -0.855367876E+01 -0.105799266E+00  0.275210706E+00
   C  0.833648990E+01 -0.214642043E+00 -0.358407898E-01
   H -0.362200857E+02  0.396727837E+00 -0.339993884E+01
   H  0.352077717E+02  0.282372528E+01  0.236417079E+01
     4
 # iter = 68500  time[fs]=68.50000
   C -0.865202537E+01 -0.106920322E+00  0.278282438E+00
   C  0.843209790E+01 -0.217372796E+00 -0.366314630E-01
   H -0.365877226E+02  0.400557186E+00 -0.343484292E+01
   H  0.355640611E+02  0.285191469E+01  0.238848278E+01
     4
 # iter = 69000  time[fs]=69.00000
   C -0.875042996E+01 -0.108041154E+00  0.281355687E+00
   C  0.852776364E+01 -0.220104388E+00 -0.374234786E-01
   H -0.369554265E+02  0.404387330E+00 -0.346975457E+01
   H  0.359204205E+02  0.288011068E+01  0.241280023E+01
     4
 # iter = 69500  time[fs]=69.50000
   C -0.884889124E+01 -0.109161765E+00  0.284430424E+00
   C  0.862348580E+01 -0.222836803E+00 -0.382168087E-01
   H -0.373231959E+02  0.408218254E+00 -0.350467364E+01
   H  0.362768485E+02  0.290831312E+01  0.243712304E+01
     4
 # iter = 70000  time[fs]=70.00000
   C -0.894740793E+01 -0.110282159E+00  0.287506617E+00
   C  0.871926314E+01 -0.225570027E+00 -0.390114264E-01
   H -0.376910296E+02  0.412049945E+00 -0.353960000E+01
   H  0.366333437E+02  0.293652189E+01  0.246145111E+01
     4
 # iter = 70500  time[fs]=70.50000
   C -0.904597883E+01 -0.111402340E+00  0.290584237E+00
   C  0.881509443E+01 -0.228304044E+00 -0.398073055E-01
   H -0.380589264E+02  0.415882386E+00 -0.357453350E+01
   H  0.369899049E+02  0.296473688E+01  0.248578435E+01
     4
 # iter = 71000  time[fs]=71.00000
   C -0.914460275E+01 -0.112522312E+00  0.293663256E+00
   C  0.891097851E+01 -0.231038840E+00 -0.406044207E-01
   H -0.384268850E+02  0.419715565E+00 -0.360947403E+01
   H  0.373465308E+02  0.299295796E+01  0.251012265E+01
     4
 # iter = 71500  time[fs]=71.50000
   C -0.924327853E+01 -0.113642079E+00  0.296743645E+00
   C  0.900691422E+01 -0.233774400E+00 -0.414027473E-01
   H -0.387949044E+02  0.423549468E+00 -0.364442145E+01
   H  0.377032203E+02  0.302118503E+01  0.253446593E+01
     4
 # iter = 72000  time[fs]=72.00000
   C -0.934200509E+01 -0.114761645E+00  0.299825379E+00
   C  0.910290047E+01 -0.236510710E+00 -0.422022615E-01
   H -0.391629835E+02  0.427384082E+00 -0.367937564E+01
   H  0.380599722E+02  0.304941798E+01  0.255881410E+01
     4
 # iter = 72500  time[fs]=72.50000
   C -0.944078134E+01 -0.115881013E+00  0.302908431E+00
   C  0.919893619E+01 -0.239247758E+00 -0.430029400E-01
   H -0.395311210E+02  0.431219394E+00 -0.371433647E+01
   H  0.384167852E+02  0.307765671E+01  0.258316707E+01
     4
 # iter = 73000  time[fs]=73.00000
   C -0.953960624E+01 -0.117000186E+00  0.305992776E+00
   C  0.929502034E+01 -0.241985529E+00 -0.438047603E-01
   H -0.398993159E+02  0.435055392E+00 -0.374930383E+01
   H  0.387736584E+02  0.310590110E+01  0.260752475E+01
     4
 # iter = 73500  time[fs]=73.50000
   C -0.963847878E+01 -0.118119169E+00  0.309078389E+00
   C  0.939115192E+01 -0.244724012E+00 -0.446077005E-01
   H -0.402675673E+02  0.438892063E+00 -0.378427761E+01
   H  0.391305906E+02  0.313415107E+01  0.263188707E+01
     4
 # iter = 74000  time[fs]=74.00000
   C -0.973739799E+01 -0.119237964E+00  0.312165246E+00
   C  0.948732994E+01 -0.247463194E+00 -0.454117394E-01
   H -0.406358740E+02  0.442729396E+00 -0.381925768E+01
   H  0.394875807E+02  0.316240651E+01  0.265625395E+01
     4
 # iter = 74500  time[fs]=74.50000
   C -0.983636291E+01 -0.120356575E+00  0.315253324E+00
   C  0.958355347E+01 -0.250203062E+00 -0.462168562E-01
   H -0.410042352E+02  0.446567380E+00 -0.385424395E+01
   H  0.398446278E+02  0.319066733E+01  0.268062530E+01
     4
 # iter = 75000  time[fs]=75.00000
   C -0.993537263E+01 -0.121475005E+00  0.318342601E+00
   C  0.967982160E+01 -0.252943606E+00 -0.470230309E-01
   H -0.413726499E+02  0.450406003E+00 -0.388923631E+01
   H  0.402017309E+02  0.321893344E+01  0.270500105E+01
     4
 # iter = 75500  time[fs]=75.50000
   C -0.100344263E+02 -0.122593257E+00  0.321433054E+00
   C  0.977613342E+01 -0.255684813E+00 -0.478302439E-01
   H -0.417411171E+02  0.454245255E+00 -0.392423466E+01
   H  0.405588889E+02  0.324720474E+01  0.272938113E+01
     4
 # iter = 76000  time[fs]=76.00000
   C -0.101335229E+02 -0.123711334E+00  0.324524663E+00
   C  0.987248807E+01 -0.258426671E+00 -0.486384762E-01
   H -0.421096359E+02  0.458085124E+00 -0.395923888E+01
   H  0.409161010E+02  0.327548115E+01  0.275376546E+01
     4
 # iter = 76500  time[fs]=76.50000
   C -0.102326618E+02 -0.124829240E+00  0.327617405E+00
   C  0.996888472E+01 -0.261169171E+00 -0.494477093E-01
   H -0.424782054E+02  0.461925600E+00 -0.399424889E+01
   H  0.412733661E+02  0.330376259E+01  0.277815398E+01
     4
 # iter = 77000  time[fs]=77.00000
   C -0.103318420E+02 -0.125946976E+00  0.330711262E+00
   C  0.100653226E+02 -0.263912302E+00 -0.502579252E-01
   H -0.428468248E+02  0.465766674E+00 -0.402926460E+01
   H  0.416306835E+02  0.333204897E+01  0.280254661E+01
     4
 # iter = 77500  time[fs]=77.50000
   C -0.104310628E+02 -0.127064546E+00  0.333806212E+00
   C  0.101618008E+02 -0.266656053E+00 -0.510691063E-01
   H -0.432154933E+02  0.469608335E+00 -0.406428589E+01
   H  0.419880522E+02  0.336034020E+01  0.282694329E+01
     4
 # iter = 78000  time[fs]=78.00000
   C -0.105303234E+02 -0.128181952E+00  0.336902238E+00
   C  0.102583186E+02 -0.269400414E+00 -0.518812356E-01
   H -0.435842100E+02  0.473450575E+00 -0.409931270E+01
   H  0.423454714E+02  0.338863622E+01  0.285134395E+01
     4
 # iter = 78500  time[fs]=78.50000
   C -0.106296231E+02 -0.129299198E+00  0.339999320E+00
   C  0.103548753E+02 -0.272145374E+00 -0.526942964E-01
   H -0.439529741E+02  0.477293382E+00 -0.413434492E+01
   H  0.427029402E+02  0.341693694E+01  0.287574854E+01
     4
 # iter = 79000  time[fs]=79.00000
   C -0.107289611E+02 -0.130416285E+00  0.343097440E+00
   C  0.104514702E+02 -0.274890926E+00 -0.535082727E-01
   H -0.443217849E+02  0.481136750E+00 -0.416938247E+01
   H  0.430604578E+02  0.344524229E+01  0.290015697E+01
     4
 # iter = 79500  time[fs]=79.50000
   C -0.108283367E+02 -0.131533217E+00  0.346196581E+00
   C  0.105481025E+02 -0.277637058E+00 -0.543231485E-01
   H -0.446906415E+02  0.484980667E+00 -0.420442526E+01
   H  0.434180235E+02  0.347355219E+01  0.292456921E+01
     4
 # iter = 80000  time[fs]=80.00000
   C -0.109277492E+02 -0.132649996E+00  0.349296725E+00
   C  0.106447715E+02 -0.280383761E+00 -0.551389085E-01
   H -0.450595433E+02  0.488825127E+00 -0.423947322E+01
   H  0.437756364E+02  0.350186657E+01  0.294898518E+01
