     4
 # iter = 25000  time[fs]=25.00000
   C -0.999580763E+00  0.957963099E-02 -0.300992013E-01
   C  0.984864777E+00  0.259098185E-01 -0.210417371E-01
   H -0.524741785E+01  0.146334756E+00  0.529711318E+00
   H  0.529297983E+01  0.351685177E+00 -0.591093892E+00
     4
 # iter = 25500  time[fs]=25.50000
   C -0.104626076E+01  0.911320171E-02 -0.314316138E-01
   C  0.102765873E+01  0.251957906E-01 -0.179396258E-01
   H -0.558089042E+01  0.154991050E+00  0.567366602E+00
   H  0.561127778E+01  0.372639644E+00 -0.624452431E+00
     4
 # iter = 26000  time[fs]=26.00000
   C -0.109728999E+01  0.860451484E-02 -0.328049631E-01
   C  0.107480669E+01  0.245047077E-01 -0.147970883E-01
   H -0.591706530E+01  0.163710346E+00  0.605337591E+00
   H  0.593222084E+01  0.393762859E+00 -0.658120548E+00
     4
 # iter = 26500  time[fs]=26.50000
   C -0.115228751E+01  0.805921125E-02 -0.342224890E-01
   C  0.112592621E+01  0.238329925E-01 -0.116107542E-01
   H -0.625563980E+01  0.172485691E+00  0.643589346E+00
   H  0.625552415E+01  0.415037013E+00 -0.692064871E+00
     4
 # iter = 27000  time[fs]=27.00000
   C -0.121089423E+01  0.748215886E-02 -0.356859934E-01
   C  0.118065710E+01  0.231775196E-01 -0.837872242E-02
   H -0.659635895E+01  0.181311261E+00  0.682092521E+00
   H  0.658094608E+01  0.436447020E+00 -0.726257242E+00
     4
 # iter = 27500  time[fs]=27.50000
   C -0.127277725E+01  0.687753079E-02 -0.371961287E-01
   C  0.123866562E+01  0.225356015E-01 -0.510026465E-02
   H -0.693900600E+01  0.190182124E+00  0.720822217E+00
   H  0.690827992E+01  0.457979986E+00 -0.760673678E+00
     4
 # iter = 28000  time[fs]=28.00000
   C -0.133763167E+01  0.624888963E-02 -0.387526681E-01
   C  0.129964626E+01  0.219049535E-01 -0.177554863E-02
   H -0.728339523E+01  0.199094058E+00  0.759757121E+00
   H  0.723734757E+01  0.479624795E+00 -0.795293570E+00
     4
 # iter = 28500  time[fs]=28.50000
   C -0.140518078E+01  0.559927015E-02 -0.403547407E-01
   C  0.136332178E+01  0.212836484E-01  0.159460090E-02
   H -0.762936629E+01  0.208043423E+00  0.798878839E+00
   H  0.756799445E+01  0.501371798E+00 -0.830099081E+00
     4
 # iter = 29000  time[fs]=29.00000
   C -0.147517496E+01  0.493125615E-02 -0.420010249E-01
   C  0.142944223E+01  0.206700691E-01  0.500889865E-02
   H -0.797677982E+01  0.217027055E+00  0.838171383E+00
   H  0.790008561E+01  0.523212560E+00 -0.865074657E+00
     4
 # iter = 29500  time[fs]=29.50000
   C -0.154739004E+01  0.424704909E-02 -0.436899014E-01
   C  0.149778315E+01  0.200628629E-01  0.846575409E-02
   H -0.832551399E+01  0.226042183E+00  0.877620765E+00
   H  0.823350257E+01  0.545139665E+00 -0.900206655E+00
     4
 # iter = 30000  time[fs]=30.00000
   C -0.162162526E+01  0.354852792E-02 -0.454195708E-01
   C  0.156814356E+01  0.194609009E-01  0.119633906E-01
   H -0.867546163E+01  0.235086366E+00  0.917214672E+00
   H  0.856814072E+01  0.567146554E+00 -0.935483037E+00
     4
 # iter = 30500  time[fs]=30.50000
   C -0.169770110E+01  0.283730032E-02 -0.471881410E-01
   C  0.164034380E+01  0.188632411E-01  0.154999344E-01
   H -0.902652805E+01  0.244157444E+00  0.956942209E+00
   H  0.890390727E+01  0.589227399E+00 -0.970893125E+00
     4
 # iter = 31000  time[fs]=31.00000
   C -0.177545712E+01  0.211474593E-02 -0.489936913E-01
   C  0.171422329E+01  0.182690980E-01  0.190734793E-01
   H -0.937862913E+01  0.253253491E+00  0.996793682E+00
   H  0.924071954E+01  0.611376995E+00 -0.100642740E+01
     4
 # iter = 31500  time[fs]=31.50000
   C -0.185474994E+01  0.138205278E-02 -0.508343173E-01
   C  0.178963857E+01  0.176778159E-01  0.226821326E-01
   H -0.973168985E+01  0.262372788E+00  0.103676043E+01
   H  0.957850358E+01  0.633590675E+00 -0.104207735E+01
     4
 # iter = 32000  time[fs]=32.00000
   C -0.193545131E+01  0.640247576E-03 -0.527081623E-01
   C  0.186646133E+01  0.170888469E-01  0.263240468E-01
   H -0.100856430E+02  0.271513788E+00  0.107683469E+01
   H  0.991719292E+01  0.655864239E+00 -0.107783531E+01
     4
 # iter = 32500  time[fs]=32.50000
   C -0.201744641E+01 -0.109779025E-03 -0.546134373E-01
   C  0.194457671E+01  0.165017331E-01  0.299974403E-01
   H -0.104404281E+02  0.280675097E+00  0.111700946E+01
   H  0.102567277E+02  0.678193889E+00 -0.111369437E+01
     4
 # iter = 33000  time[fs]=33.00000
   C -0.210063232E+01 -0.867251390E-03 -0.565484337E-01
   C  0.202388174E+01  0.159160908E-01  0.337006104E-01
   H -0.107959907E+02  0.289855453E+00  0.115727840E+01
   H  0.105970537E+02  0.700576183E+00 -0.114964826E+01
     4
 # iter = 33500  time[fs]=33.50000
   C -0.218491659E+01 -0.163149144E-02 -0.585115303E-01
   C  0.210428397E+01  0.153315984E-01  0.374319404E-01
   H -0.111522814E+02  0.299053711E+00  0.119763577E+01
   H  0.109381217E+02  0.723007989E+00 -0.118569131E+01
     4
 # iter = 34000  time[fs]=34.00000
   C -0.227021607E+01 -0.240190409E-02 -0.605011960E-01
   C  0.218570024E+01  0.147479861E-01  0.411899028E-01
   H -0.115092554E+02  0.308268825E+00  0.123807635E+01
   H  0.112798871E+02  0.745486449E+00 -0.122181832E+01
     4
 # iter = 34500  time[fs]=34.50000
   C -0.235645582E+01 -0.317796511E-02 -0.625159900E-01
   C  0.226805560E+01  0.141650269E-01  0.449730594E-01
   H -0.118668718E+02  0.317499841E+00  0.127859537E+01
   H  0.116223089E+02  0.768008948E+00 -0.125802455E+01
     4
 # iter = 35000  time[fs]=35.00000
   C -0.244356814E+01 -0.395921099E-02 -0.645545595E-01
   C  0.235128237E+01  0.135825303E-01  0.487800597E-01
   H -0.122250932E+02  0.326745885E+00  0.131918845E+01
   H  0.119653498E+02  0.790573087E+00 -0.129430567E+01
     4
 # iter = 35500  time[fs]=35.50000
   C -0.253149179E+01 -0.474523038E-02 -0.666156373E-01
   C  0.243531933E+01  0.130003356E-01  0.526096374E-01
   H -0.125838857E+02  0.336006154E+00  0.135985159E+01
   H  0.123089755E+02  0.813176661E+00 -0.133065768E+01
     4
 # iter = 36000  time[fs]=36.00000
   C -0.262017125E+01 -0.553565700E-02 -0.686980369E-01
   C  0.252011094E+01  0.124183077E-01  0.564606075E-01
   H -0.129432177E+02  0.345279908E+00  0.140058110E+01
   H  0.126531544E+02  0.835817635E+00 -0.136707690E+01
     4
 # iter = 36500  time[fs]=36.50000
   C -0.270955605E+01 -0.633016356E-02 -0.708006491E-01
   C  0.260560679E+01  0.118363329E-01  0.603318612E-01
   H -0.133030604E+02  0.354566464E+00  0.144137357E+01
   H  0.129978575E+02  0.858494130E+00 -0.140355994E+01
     4
 # iter = 37000  time[fs]=37.00000
   C -0.279960028E+01 -0.712845664E-02 -0.729224368E-01
   C  0.269176095E+01  0.112543154E-01  0.642223615E-01
   H -0.136633872E+02  0.363865189E+00  0.148222586E+01
   H  0.133430580E+02  0.881204406E+00 -0.144010366E+01
     4
 # iter = 37500  time[fs]=37.50000
   C -0.289026203E+01 -0.793027243E-02 -0.750624305E-01
   C  0.277853155E+01  0.106721748E-01  0.681311391E-01
   H -0.140241735E+02  0.373175498E+00  0.152313506E+01
   H  0.136887310E+02  0.903946848E+00 -0.147670513E+01
     4
 # iter = 38000  time[fs]=38.00000
   C -0.298150301E+01 -0.873537293E-02 -0.772197241E-01
   C  0.286588031E+01  0.100898433E-01  0.720572875E-01
   H -0.143853965E+02  0.382496847E+00  0.156409847E+01
   H  0.140348534E+02  0.926719956E+00 -0.151336166E+01
     4
 # iter = 38500  time[fs]=38.50000
   C -0.307328816E+01 -0.954354287E-02 -0.793934701E-01
   C  0.295377221E+01  0.950726444E-02  0.759999589E-01
   H -0.147470351E+02  0.391828729E+00  0.160511356E+01
   H  0.143814039E+02  0.949522333E+00 -0.155007073E+01
     4
 # iter = 39000  time[fs]=39.00000
   C -0.316558530E+01 -0.103545870E-01 -0.815828758E-01
   C  0.304217508E+01  0.892439077E-02  0.799583600E-01
   H -0.151090696E+02  0.401170674E+00  0.164617800E+01
   H  0.147283625E+02  0.972352676E+00 -0.158682998E+01
     4
 # iter = 39500  time[fs]=39.50000
   C -0.325836487E+01 -0.111683277E-01 -0.837871992E-01
   C  0.313105939E+01  0.834118289E-02  0.839317481E-01
   H -0.154714817E+02  0.410522239E+00  0.168728960E+01
   H  0.150757106E+02  0.995209768E+00 -0.162363723E+01
     4
 # iter = 40000  time[fs]=40.00000
   C -0.335159966E+01 -0.119846030E-01 -0.860057453E-01
   C  0.322039794E+01  0.775760814E-02  0.879194274E-01
   H -0.158342544E+02  0.419883013E+00  0.172844633E+01
   H  0.154234310E+02  0.101809247E+01 -0.166049043E+01
     4
 # iter = 40500  time[fs]=40.50000
   C -0.344526454E+01 -0.128032649E-01 -0.882378629E-01
   C  0.331016564E+01  0.717363961E-02  0.919207460E-01
   H -0.161973717E+02  0.429252610E+00  0.176964627E+01
   H  0.157715074E+02  0.104099971E+01 -0.169738765E+01
     4
 # iter = 41000  time[fs]=41.00000
   C -0.353933633E+01 -0.136241777E-01 -0.904829411E-01
   C  0.340033932E+01  0.658925533E-02  0.959350919E-01
   H -0.165608188E+02  0.438630667E+00  0.181088763E+01
   H  0.161199247E+02  0.106393049E+01 -0.173432708E+01
     4
 # iter = 41500  time[fs]=41.50000
   C -0.363379356E+01 -0.144472170E-01 -0.927404065E-01
   C  0.349089753E+01  0.600443754E-02  0.999618908E-01
   H -0.169245817E+02  0.448016845E+00  0.185216872E+01
   H  0.164686686E+02  0.108688387E+01 -0.177130705E+01
     4
 # iter = 42000  time[fs]=42.00000
   C -0.372861633E+01 -0.152722680E-01 -0.950097206E-01
   C  0.358182041E+01  0.541917210E-02  0.104000603E+00
   H -0.172886472E+02  0.457410824E+00  0.189348798E+01
   H  0.168177257E+02  0.110985897E+01 -0.180832595E+01
     4
 # iter = 42500  time[fs]=42.50000
   C -0.382378618E+01 -0.160992253E-01 -0.972903770E-01
   C  0.367308951E+01  0.483344797E-02  0.108050722E+00
   H -0.176530031E+02  0.466812302E+00  0.193484390E+01
   H  0.171670835E+02  0.113285494E+01 -0.184538229E+01
     4
 # iter = 43000  time[fs]=43.00000
   C -0.391928594E+01 -0.169279909E-01 -0.995818992E-01
   C  0.376468768E+01  0.424725673E-02  0.112111769E+00
   H -0.180176378E+02  0.476220996E+00  0.197623509E+01
   H  0.175167301E+02  0.115587100E+01 -0.188247465E+01
     4
 # iter = 43500  time[fs]=43.50000
   C -0.401509964E+01 -0.177584747E-01 -0.101883839E+00
   C  0.385659896E+01  0.366059226E-02  0.116183294E+00
   H -0.183825404E+02  0.485636638E+00  0.201766023E+01
   H  0.178666545E+02  0.117890641E+01 -0.191960170E+01
     4
 # iter = 44000  time[fs]=44.00000
   C -0.411121236E+01 -0.185905927E-01 -0.104195772E+00
   C  0.394880848E+01  0.307345038E-02  0.120264875E+00
   H -0.187477006E+02  0.495058974E+00  0.205911807E+01
   H  0.182168461E+02  0.120196047E+01 -0.195676217E+01
     4
 # iter = 44500  time[fs]=44.50000
   C -0.420761021E+01 -0.194242671E-01 -0.106517301E+00
   C  0.404130234E+01  0.248582859E-02  0.124356111E+00
   H -0.191131087E+02  0.504487764E+00  0.210060742E+01
   H  0.185672950E+02  0.122503251E+01 -0.199395487E+01
     4
 # iter = 45000  time[fs]=45.00000
   C -0.430428018E+01 -0.202594254E-01 -0.108848049E+00
   C  0.413406756E+01  0.189772579E-02  0.128456624E+00
   H -0.194787557E+02  0.513922782E+00  0.214212718E+01
   H  0.189179917E+02  0.124812190E+01 -0.203117867E+01
     4
 # iter = 45500  time[fs]=45.50000
   C -0.440121010E+01 -0.210960000E-01 -0.111187660E+00
   C  0.422709200E+01  0.130914213E-02  0.132566057E+00
   H -0.198446327E+02  0.523363812E+00  0.218367627E+01
   H  0.192689274E+02  0.127122804E+01 -0.206843250E+01
     4
 # iter = 46000  time[fs]=46.00000
   C -0.449838858E+01 -0.219339279E-01 -0.113535797E+00
   C  0.432036427E+01  0.720078773E-03  0.136684073E+00
   H -0.202107317E+02  0.532810650E+00  0.222525370E+01
   H  0.196200937E+02  0.129435037E+01 -0.210571535E+01
     4
 # iter = 46500  time[fs]=46.50000
   C -0.459580492E+01 -0.227731502E-01 -0.115892142E+00
   C  0.441387370E+01  0.130537797E-03  0.140810352E+00
   H -0.205770448E+02  0.542263103E+00  0.226685851E+01
   H  0.199714826E+02  0.131748835E+01 -0.214302623E+01
     4
 # iter = 47000  time[fs]=47.00000
   C -0.469344908E+01 -0.236136116E-01 -0.118256394E+00
   C  0.450761026E+01 -0.459477980E-03  0.144944592E+00
   H -0.209435646E+02  0.551720986E+00  0.230848980E+01
   H  0.203230865E+02  0.134064147E+01 -0.218036425E+01
     4
 # iter = 47500  time[fs]=47.50000
   C -0.479131159E+01 -0.244552605E-01 -0.120628266E+00
   C  0.460156451E+01 -0.104996510E-02  0.149086505E+00
   H -0.213102842E+02  0.561184125E+00  0.235014670E+01
   H  0.206748982E+02  0.136380923E+01 -0.221772852E+01
     4
 # iter = 48000  time[fs]=48.00000
   C -0.488938359E+01 -0.252980482E-01 -0.123007487E+00
   C  0.469572758E+01 -0.164091957E-02  0.153235820E+00
   H -0.216771969E+02  0.570652351E+00  0.239182839E+01
   H  0.210269109E+02  0.138699119E+01 -0.225511821E+01
     4
 # iter = 48500  time[fs]=48.50000
   C -0.498765668E+01 -0.261419291E-01 -0.125393800E+00
   C  0.479009111E+01 -0.223233694E-02  0.157392278E+00
   H -0.220442965E+02  0.580125505E+00  0.243353410E+01
   H  0.213791180E+02  0.141018689E+01 -0.229253252E+01
     4
 # iter = 49000  time[fs]=49.00000
   C -0.508612297E+01 -0.269868603E-01 -0.127786961E+00
   C  0.488464721E+01 -0.282421239E-02  0.161555633E+00
   H -0.224115767E+02  0.589603438E+00  0.247526308E+01
   H  0.217315134E+02  0.143339591E+01 -0.232997071E+01
     4
 # iter = 49500  time[fs]=49.50000
   C -0.518477498E+01 -0.278328012E-01 -0.130186735E+00
   C  0.497938843E+01 -0.341654079E-02  0.165725653E+00
   H -0.227790320E+02  0.599086002E+00  0.251701462E+01
   H  0.220840910E+02  0.145661785E+01 -0.236743206E+01
     4
 # iter = 50000  time[fs]=50.00000
   C -0.528360568E+01 -0.286797138E-01 -0.132592903E+00
   C  0.507430774E+01 -0.400931674E-02  0.169902113E+00
   H -0.231466568E+02  0.608573061E+00  0.255878804E+01
   H  0.224368454E+02  0.147985233E+01 -0.240491586E+01
     4
 # iter = 50500  time[fs]=50.50000
   C -0.538260840E+01 -0.295275618E-01 -0.135005253E+00
   C  0.516939848E+01 -0.460253465E-02  0.174084804E+00
   H -0.235144460E+02  0.618064481E+00  0.260058269E+01
   H  0.227897711E+02  0.150309897E+01 -0.244242146E+01
     4
 # iter = 51000  time[fs]=51.00000
   C -0.548177680E+01 -0.303763113E-01 -0.137423585E+00
   C  0.526465435E+01 -0.519618878E-02  0.178273523E+00
   H -0.238823946E+02  0.627560137E+00  0.264239795E+01
   H  0.231428629E+02  0.152635743E+01 -0.247994824E+01
     4
 # iter = 51500  time[fs]=51.50000
   C -0.558110492E+01 -0.312259300E-01 -0.139847708E+00
   C  0.536006938E+01 -0.579027324E-02  0.182468078E+00
   H -0.242504977E+02  0.637059908E+00  0.268423324E+01
   H  0.234961160E+02  0.154962737E+01 -0.251749558E+01
     4
 # iter = 52000  time[fs]=52.00000
   C -0.568058707E+01 -0.320763874E-01 -0.142277438E+00
   C  0.545563790E+01 -0.638478206E-02  0.186668286E+00
   H -0.246187509E+02  0.646563678E+00  0.272608797E+01
   H  0.238495257E+02  0.157290847E+01 -0.255506292E+01
     4
 # iter = 52500  time[fs]=52.50000
   C -0.578021788E+01 -0.329276545E-01 -0.144712602E+00
   C  0.555135454E+01 -0.697970921E-02  0.190873971E+00
   H -0.249871497E+02  0.656071335E+00  0.276796162E+01
   H  0.242030873E+02  0.159620042E+01 -0.259264969E+01
     4
 # iter = 53000  time[fs]=53.00000
   C -0.587999221E+01 -0.337797038E-01 -0.147153033E+00
   C  0.564721419E+01 -0.757504862E-02  0.195084967E+00
   H -0.253556901E+02  0.665582774E+00  0.280985365E+01
   H  0.245567968E+02  0.161950292E+01 -0.263025537E+01
     4
 # iter = 53500  time[fs]=53.50000
   C -0.597990520E+01 -0.346325092E-01 -0.149598572E+00
   C  0.574321200E+01 -0.817079417E-02  0.199301113E+00
   H -0.257243680E+02  0.675097892E+00  0.285176358E+01
   H  0.249106498E+02  0.164281569E+01 -0.266787945E+01
     4
 # iter = 54000  time[fs]=54.00000
   C -0.607995223E+01 -0.354860459E-01 -0.152049066E+00
   C  0.583934335E+01 -0.876693979E-02  0.203522256E+00
   H -0.260931797E+02  0.684616591E+00  0.289369091E+01
   H  0.252646425E+02  0.166613845E+01 -0.270552143E+01
     4
 # iter = 54500  time[fs]=54.50000
   C -0.618012889E+01 -0.363402903E-01 -0.154504371E+00
   C  0.593560384E+01 -0.936347938E-02  0.207748250E+00
   H -0.264621214E+02  0.694138777E+00  0.293563519E+01
   H  0.256187710E+02  0.168947094E+01 -0.274318085E+01
     4
 # iter = 55000  time[fs]=55.00000
   C -0.628043098E+01 -0.371952199E-01 -0.156964346E+00
   C  0.603198928E+01 -0.996040689E-02  0.211978954E+00
   H -0.268311896E+02  0.703664360E+00  0.297759597E+01
   H  0.259730318E+02  0.171281292E+01 -0.278085726E+01
     4
 # iter = 55500  time[fs]=55.50000
   C -0.638085448E+01 -0.380508133E-01 -0.159428858E+00
   C  0.612849569E+01 -0.105577163E-01  0.216214235E+00
   H -0.272003809E+02  0.713193252E+00  0.301957284E+01
   H  0.263274212E+02  0.173616414E+01 -0.281855022E+01
     4
 # iter = 56000  time[fs]=56.00000
   C -0.648139559E+01 -0.389070500E-01 -0.161897779E+00
   C  0.622511924E+01 -0.111554016E-01  0.220453964E+00
   H -0.275696922E+02  0.722725370E+00  0.306156537E+01
   H  0.266819360E+02  0.175952436E+01 -0.285625932E+01
     4
 # iter = 56500  time[fs]=56.50000
   C -0.658205066E+01 -0.397639106E-01 -0.164370986E+00
   C  0.632185631E+01 -0.117534570E-01  0.224698016E+00
   H -0.279391202E+02  0.732260633E+00  0.310357319E+01
   H  0.270365729E+02  0.178289336E+01 -0.289398415E+01
     4
 # iter = 57000  time[fs]=57.00000
   C -0.668281620E+01 -0.406213764E-01 -0.166848361E+00
   C  0.641870341E+01 -0.123518765E-01  0.228946274E+00
   H -0.283086620E+02  0.741798965E+00  0.314559590E+01
   H  0.273913288E+02  0.180627093E+01 -0.293172432E+01
     4
 # iter = 57500  time[fs]=57.50000
   C -0.678368887E+01 -0.414794297E-01 -0.169329792E+00
   C  0.651565722E+01 -0.129506545E-01  0.233198624E+00
   H -0.286783147E+02  0.751340289E+00  0.318763315E+01
   H  0.277462007E+02  0.182965685E+01 -0.296947947E+01
     4
 # iter = 58000  time[fs]=58.00000
   C -0.688466550E+01 -0.423380533E-01 -0.171815168E+00
   C  0.661271457E+01 -0.135497851E-01  0.237454956E+00
   H -0.290480755E+02  0.760884534E+00  0.322968458E+01
   H  0.281011857E+02  0.185305093E+01 -0.300724923E+01
     4
 # iter = 58500  time[fs]=58.50000
   C -0.698574303E+01 -0.431972311E-01 -0.174304387E+00
   C  0.670987241E+01 -0.141492628E-01  0.241715165E+00
   H -0.294179418E+02  0.770431631E+00  0.327174985E+01
   H  0.284562811E+02  0.187645297E+01 -0.304503326E+01
     4
 # iter = 59000  time[fs]=59.00000
   C -0.708691854E+01 -0.440569474E-01 -0.176797347E+00
   C  0.680712784E+01 -0.147490820E-01  0.245979150E+00
   H -0.297879109E+02  0.779981512E+00  0.331382864E+01
   H  0.288114841E+02  0.189986279E+01 -0.308283122E+01
     4
 # iter = 59500  time[fs]=59.50000
   C -0.718818924E+01 -0.449171872E-01 -0.179293952E+00
   C  0.690447806E+01 -0.153492372E-01  0.250246815E+00
   H -0.301579804E+02  0.789534114E+00  0.335592063E+01
   H  0.291667922E+02  0.192328020E+01 -0.312064279E+01
     4
 # iter = 60000  time[fs]=60.00000
   C -0.728955244E+01 -0.457779363E-01 -0.181794109E+00
   C  0.700192039E+01 -0.159497232E-01  0.254518064E+00
   H -0.305281479E+02  0.799089373E+00  0.339802552E+01
   H  0.295222029E+02  0.194670504E+01 -0.315846766E+01
     4
 # iter = 60500  time[fs]=60.50000
   C -0.739100556E+01 -0.466391809E-01 -0.184297729E+00
   C  0.709945227E+01 -0.165505345E-01  0.258792809E+00
   H -0.308984110E+02  0.808647229E+00  0.344014301E+01
   H  0.298777138E+02  0.197013713E+01 -0.319630552E+01
     4
 # iter = 61000  time[fs]=61.00000
   C -0.749254614E+01 -0.475009078E-01 -0.186804724E+00
   C  0.719707124E+01 -0.171516660E-01  0.263070962E+00
   H -0.312687676E+02  0.818207623E+00  0.348227281E+01
   H  0.302333225E+02  0.199357631E+01 -0.323415609E+01
     4
 # iter = 61500  time[fs]=61.50000
   C -0.759417180E+01 -0.483631042E-01 -0.189315013E+00
   C  0.729477493E+01 -0.177531126E-01  0.267352440E+00
   H -0.316392154E+02  0.827770501E+00  0.352441466E+01
   H  0.305890269E+02  0.201702242E+01 -0.327201908E+01
     4
 # iter = 62000  time[fs]=62.00000
   C -0.769588027E+01 -0.492257581E-01 -0.191828514E+00
   C  0.739256107E+01 -0.183548694E-01  0.271637163E+00
   H -0.320097525E+02  0.837335806E+00  0.356656829E+01
   H  0.309448247E+02  0.204047532E+01 -0.330989423E+01
     4
 # iter = 62500  time[fs]=62.50000
   C -0.779766935E+01 -0.500888577E-01 -0.194345151E+00
   C  0.749042747E+01 -0.189569312E-01  0.275925051E+00
   H -0.323803767E+02  0.846903487E+00  0.360873343E+01
   H  0.313007139E+02  0.206393485E+01 -0.334778126E+01
     4
 # iter = 63000  time[fs]=63.00000
   C -0.789953693E+01 -0.509523918E-01 -0.196864850E+00
   C  0.758837204E+01 -0.195592934E-01  0.280216031E+00
   H -0.327510862E+02  0.856473493E+00  0.365090985E+01
   H  0.316566925E+02  0.208740087E+01 -0.338567993E+01
     4
 # iter = 63500  time[fs]=63.50000
   C -0.800148100E+01 -0.518163494E-01 -0.199387537E+00
   C  0.768639276E+01 -0.201619511E-01  0.284510030E+00
   H -0.331218790E+02  0.866045773E+00  0.369309730E+01
   H  0.320127584E+02  0.211087325E+01 -0.342358998E+01
     4
 # iter = 64000  time[fs]=64.00000
   C -0.810349960E+01 -0.526807203E-01 -0.201913144E+00
   C  0.778448768E+01 -0.207648997E-01  0.288806978E+00
   H -0.334927535E+02  0.875620281E+00  0.373529555E+01
   H  0.323689099E+02  0.213435185E+01 -0.346151119E+01
     4
 # iter = 64500  time[fs]=64.50000
   C -0.820559084E+01 -0.535454942E-01 -0.204441603E+00
   C  0.788265492E+01 -0.213681347E-01  0.293106807E+00
   H -0.338637077E+02  0.885196969E+00  0.377750437E+01
   H  0.327251450E+02  0.215783654E+01 -0.349944331E+01
     4
 # iter = 65000  time[fs]=65.00000
   C -0.830775293E+01 -0.544106616E-01 -0.206972851E+00
   C  0.798089268E+01 -0.219716515E-01  0.297409451E+00
   H -0.342347399E+02  0.894775794E+00  0.381972355E+01
   H  0.330814620E+02  0.218132720E+01 -0.353738613E+01
     4
 # iter = 65500  time[fs]=65.50000
   C -0.840998412E+01 -0.552762130E-01 -0.209506823E+00
   C  0.807919924E+01 -0.225754457E-01  0.301714849E+00
   H -0.346058487E+02  0.904356710E+00  0.386195286E+01
   H  0.334378592E+02  0.220482371E+01 -0.357533942E+01
     4
 # iter = 66000  time[fs]=66.00000
   C -0.851228271E+01 -0.561421395E-01 -0.212043459E+00
   C  0.817757289E+01 -0.231795131E-01  0.306022938E+00
   H -0.349770322E+02  0.913939678E+00  0.390419212E+01
   H  0.337943349E+02  0.222832594E+01 -0.361330297E+01
     4
 # iter = 66500  time[fs]=66.50000
   C -0.861464710E+01 -0.570084323E-01 -0.214582701E+00
   C  0.827601204E+01 -0.237838494E-01  0.310333660E+00
   H -0.353482891E+02  0.923524654E+00  0.394644111E+01
   H  0.341508875E+02  0.225183379E+01 -0.365127659E+01
     4
 # iter = 67000  time[fs]=67.00000
   C -0.871707572E+01 -0.578750831E-01 -0.217124492E+00
   C  0.837451512E+01 -0.243884505E-01  0.314646957E+00
   H -0.357196177E+02  0.933111600E+00  0.398869965E+01
   H  0.345075154E+02  0.227534714E+01 -0.368926007E+01
     4
 # iter = 67500  time[fs]=67.50000
   C -0.881956704E+01 -0.587420837E-01 -0.219668777E+00
   C  0.847308063E+01 -0.249933123E-01  0.318962774E+00
   H -0.360910167E+02  0.942700477E+00  0.403096754E+01
   H  0.348642171E+02  0.229886588E+01 -0.372725322E+01
     4
 # iter = 68000  time[fs]=68.00000
   C -0.892211963E+01 -0.596094263E-01 -0.222215502E+00
   C  0.857170710E+01 -0.255984308E-01  0.323281057E+00
   H -0.364624846E+02  0.952291248E+00  0.407324461E+01
   H  0.352209912E+02  0.232238992E+01 -0.376525585E+01
     4
 # iter = 68500  time[fs]=68.50000
   C -0.902473205E+01 -0.604771033E-01 -0.224764617E+00
   C  0.867039314E+01 -0.262038021E-01  0.327601755E+00
   H -0.368340201E+02  0.961883876E+00  0.411553067E+01
   H  0.355778361E+02  0.234591914E+01 -0.380326777E+01
     4
 # iter = 69000  time[fs]=69.00000
   C -0.912740295E+01 -0.613451075E-01 -0.227316071E+00
   C  0.876913738E+01 -0.268094224E-01  0.331924816E+00
   H -0.372056217E+02  0.971478326E+00  0.415782556E+01
   H  0.359347506E+02  0.236945346E+01 -0.384128883E+01
     4
 # iter = 69500  time[fs]=69.50000
   C -0.923013102E+01 -0.622134316E-01 -0.229869816E+00
   C  0.886793852E+01 -0.274152879E-01  0.336250193E+00
   H -0.375772883E+02  0.981074564E+00  0.420012911E+01
   H  0.362917333E+02  0.239299277E+01 -0.387931883E+01
     4
 # iter = 70000  time[fs]=70.00000
   C -0.933291498E+01 -0.630820688E-01 -0.232425804E+00
   C  0.896679527E+01 -0.280213950E-01  0.340577838E+00
   H -0.379490186E+02  0.990672556E+00  0.424244115E+01
   H  0.366487828E+02  0.241653699E+01 -0.391735763E+01
     4
 # iter = 70500  time[fs]=70.50000
   C -0.943575358E+01 -0.639510125E-01 -0.234983991E+00
   C  0.906570642E+01 -0.286277401E-01  0.344907705E+00
   H -0.383208114E+02  0.100027227E+01  0.428476154E+01
   H  0.370058979E+02  0.244008601E+01 -0.395540504E+01
     4
 # iter = 71000  time[fs]=71.00000
   C -0.953864565E+01 -0.648202563E-01 -0.237544332E+00
   C  0.916467078E+01 -0.292343196E-01  0.349239750E+00
   H -0.386926654E+02  0.100987367E+01  0.432709011E+01
   H  0.373630774E+02  0.246363976E+01 -0.399346092E+01
     4
 # iter = 71500  time[fs]=71.50000
   C -0.964159003E+01 -0.656897940E-01 -0.240106784E+00
   C  0.926368718E+01 -0.298411300E-01  0.353573928E+00
   H -0.390645795E+02  0.101947674E+01  0.436942671E+01
   H  0.377203200E+02  0.248719815E+01 -0.403152512E+01
     4
 # iter = 72000  time[fs]=72.00000
   C -0.974458559E+01 -0.665596194E-01 -0.242671306E+00
   C  0.936275453E+01 -0.304481680E-01  0.357910199E+00
   H -0.394365527E+02  0.102908143E+01  0.441177121E+01
   H  0.380776246E+02  0.251076109E+01 -0.406959747E+01
     4
 # iter = 72500  time[fs]=72.50000
   C -0.984763125E+01 -0.674297267E-01 -0.245237857E+00
   C  0.946187173E+01 -0.310554302E-01  0.362248522E+00
   H -0.398085838E+02  0.103868773E+01  0.445412346E+01
   H  0.384349901E+02  0.253432850E+01 -0.410767785E+01
     4
 # iter = 73000  time[fs]=73.00000
   C -0.995072597E+01 -0.683001103E-01 -0.247806397E+00
   C  0.956103774E+01 -0.316629134E-01  0.366588856E+00
   H -0.401806717E+02  0.104829559E+01  0.449648331E+01
   H  0.387924153E+02  0.255790031E+01 -0.414576610E+01
     4
 # iter = 73500  time[fs]=73.50000
   C -0.100538687E+02 -0.691707647E-01 -0.250376890E+00
   C  0.966025155E+01 -0.322706144E-01  0.370931164E+00
   H -0.405528155E+02  0.105790500E+01  0.453885065E+01
   H  0.391498992E+02  0.258147644E+01 -0.418386209E+01
     4
 # iter = 74000  time[fs]=74.00000
   C -0.101570585E+02 -0.700416844E-01 -0.252949298E+00
   C  0.975951217E+01 -0.328785300E-01  0.375275408E+00
   H -0.409250141E+02  0.106751593E+01  0.458122534E+01
   H  0.395074408E+02  0.260505681E+01 -0.422196568E+01
     4
 # iter = 74500  time[fs]=74.50000
   C -0.102602944E+02 -0.709128644E-01 -0.255523584E+00
   C  0.985881865E+01 -0.334866572E-01  0.379621552E+00
   H -0.412972666E+02  0.107712836E+01  0.462360725E+01
   H  0.398650389E+02  0.262864135E+01 -0.426007675E+01
     4
 # iter = 75000  time[fs]=75.00000
   C -0.103635754E+02 -0.717842996E-01 -0.258099714E+00
   C  0.995817006E+01 -0.340949930E-01  0.383969561E+00
   H -0.416695720E+02  0.108674224E+01  0.466599625E+01
   H  0.402226926E+02  0.265222998E+01 -0.429819517E+01
     4
 # iter = 75500  time[fs]=75.50000
   C -0.104669007E+02 -0.726559851E-01 -0.260677653E+00
   C  0.100575655E+02 -0.347035343E-01  0.388319399E+00
   H -0.420419294E+02  0.109635757E+01  0.470839223E+01
   H  0.405804010E+02  0.267582265E+01 -0.433632081E+01
     4
 # iter = 76000  time[fs]=76.00000
   C -0.105702694E+02 -0.735279161E-01 -0.263257370E+00
   C  0.101570041E+02 -0.353122784E-01  0.392671034E+00
   H -0.424143378E+02  0.110597432E+01  0.475079507E+01
   H  0.409381631E+02  0.269941928E+01 -0.437445355E+01
     4
 # iter = 76500  time[fs]=76.50000
   C -0.106736806E+02 -0.744000881E-01 -0.265838830E+00
   C  0.102564850E+02 -0.359212224E-01  0.397024434E+00
   H -0.427867965E+02  0.111559246E+01  0.479320466E+01
   H  0.412959780E+02  0.272301980E+01 -0.441259327E+01
     4
 # iter = 77000  time[fs]=77.00000
   C -0.107771335E+02 -0.752724965E-01 -0.268422003E+00
   C  0.103560074E+02 -0.365303634E-01  0.401379566E+00
   H -0.431593045E+02  0.112521197E+01  0.483562088E+01
   H  0.416538448E+02  0.274662416E+01 -0.445073986E+01
     4
 # iter = 77500  time[fs]=77.50000
   C -0.108806273E+02 -0.761451370E-01 -0.271006859E+00
   C  0.104555706E+02 -0.371396989E-01  0.405736399E+00
   H -0.435318610E+02  0.113483283E+01  0.487804363E+01
   H  0.420117626E+02  0.277023228E+01 -0.448889321E+01
     4
 # iter = 78000  time[fs]=78.00000
   C -0.109841612E+02 -0.770180054E-01 -0.273593367E+00
   C  0.105551736E+02 -0.377492260E-01  0.410094905E+00
   H -0.439044653E+02  0.114445502E+01  0.492047279E+01
   H  0.423697306E+02  0.279384411E+01 -0.452705321E+01
     4
 # iter = 78500  time[fs]=78.50000
   C -0.110877345E+02 -0.778910974E-01 -0.276181499E+00
   C  0.106548158E+02 -0.383589421E-01  0.414455052E+00
   H -0.442771165E+02  0.115407851E+01  0.496290827E+01
   H  0.427277479E+02  0.281745959E+01 -0.456521974E+01
     4
 # iter = 79000  time[fs]=79.00000
   C -0.111913464E+02 -0.787644092E-01 -0.278771227E+00
   C  0.107544964E+02 -0.389688448E-01  0.418816814E+00
   H -0.446498138E+02  0.116370329E+01  0.500534996E+01
   H  0.430858138E+02  0.284107866E+01 -0.460339272E+01
     4
 # iter = 79500  time[fs]=79.50000
   C -0.112949963E+02 -0.796379367E-01 -0.281362522E+00
   C  0.108542147E+02 -0.395789314E-01  0.423180162E+00
   H -0.450225565E+02  0.117332933E+01  0.504779776E+01
   H  0.434439274E+02  0.286470127E+01 -0.464157202E+01
     4
 # iter = 80000  time[fs]=80.00000
   C -0.113986833E+02 -0.805116763E-01 -0.283955358E+00
   C  0.109539700E+02 -0.401891995E-01  0.427545069E+00
   H -0.453953438E+02  0.118295662E+01  0.509025159E+01
   H  0.438020880E+02  0.288832735E+01 -0.467975756E+01
