     4
 # iter = 25000  time[fs]=25.00000
   C -0.101051176E+01 -0.157227296E-01  0.242292110E-01
   C  0.102158693E+01  0.436069095E-01 -0.983786052E-03
   H -0.533338724E+01  0.731441436E+00 -0.524856475E+00
   H  0.531296750E+01 -0.711209426E+00  0.332758541E+00
     4
 # iter = 25500  time[fs]=25.50000
   C -0.105938421E+01 -0.179723442E-01  0.263871462E-01
   C  0.106659630E+01  0.484873321E-01 -0.143841291E-02
   H -0.566266171E+01  0.778765613E+00 -0.558388865E+00
   H  0.563272252E+01 -0.756196779E+00  0.355554735E+00
     4
 # iter = 26000  time[fs]=26.00000
   C -0.111111415E+01 -0.203474904E-01  0.286120272E-01
   C  0.111444632E+01  0.534975718E-01 -0.194355060E-02
   H -0.599709803E+01  0.826866885E+00 -0.592491818E+00
   H  0.595784124E+01 -0.802012652E+00  0.378724272E+00
     4
 # iter = 26500  time[fs]=26.50000
   C -0.116545582E+01 -0.228415317E-01  0.308989652E-01
   C  0.116489276E+01  0.586306081E-01 -0.249624873E-02
   H -0.633612880E+01  0.875660594E+00 -0.627102940E+00
   H  0.628773829E+01 -0.848567781E+00  0.402228019E+00
     4
 # iter = 27000  time[fs]=27.00000
   C -0.122218240E+01 -0.254478589E-01  0.332434757E-01
   C  0.121771014E+01  0.638794908E-01 -0.309364797E-02
   H -0.667927040E+01  0.925074715E+00 -0.662169180E+00
   H  0.662191385E+01 -0.895786047E+00  0.426032428E+00
     4
 # iter = 27500  time[fs]=27.50000
   C -0.128108632E+01 -0.281599835E-01  0.356414356E-01
   C  0.127269209E+01  0.692374281E-01 -0.373299998E-02
   H -0.702610796E+01  0.975047536E+00 -0.697645105E+00
   H  0.695993853E+01 -0.943602099E+00  0.450108562E+00
     4
 # iter = 28000  time[fs]=28.00000
   C -0.134197876E+01 -0.309716144E-01  0.380890521E-01
   C  0.132965088E+01  0.746978594E-01 -0.441168382E-02
   H -0.737628352E+01  0.102552583E+01 -0.733491548E+00
   H  0.730144134E+01 -0.991959479E+00  0.474431317E+00
     4
 # iter = 28500  time[fs]=28.50000
   C -0.140468872E+01 -0.338767152E-01  0.405828368E-01
   C  0.138841648E+01  0.802545080E-01 -0.512721731E-02
   H -0.772948644E+01  0.107646342E+01 -0.769674537E+00
   H  0.764609999E+01 -0.104080912E+01  0.498978794E+00
     4
 # iter = 29000  time[fs]=29.00000
   C -0.146906177E+01 -0.368695436E-01  0.431195833E-01
   C  0.144883534E+01  0.859014170E-01 -0.587726335E-02
   H -0.808544574E+01  0.112781999E+01 -0.806164438E+00
   H  0.799363308E+01 -0.109010814E+01  0.523731794E+00
     4
 # iter = 29500  time[fs]=29.50000
   C -0.153495871E+01 -0.399446738E-01  0.456963452E-01
   C  0.151076903E+01  0.916329685E-01 -0.665963197E-02
   H -0.844392382E+01  0.117956020E+01 -0.842935260E+00
   H  0.834379369E+01 -0.113981888E+01  0.548673400E+00
     4
 # iter = 30000  time[fs]=30.00000
   C -0.160225416E+01 -0.430970069E-01  0.483104168E-01
   C  0.157409287E+01  0.974438914E-01 -0.747227875E-02
   H -0.880471142E+01  0.123165287E+01 -0.879964097E+00
   H  0.869636415E+01 -0.118990811E+01  0.573788643E+00
     4
 # iter = 30500  time[fs]=30.50000
   C -0.167083523E+01 -0.463217709E-01  0.509593137E-01
   C  0.163869458E+01  0.103329259E+00 -0.831330070E-02
   H -0.916762338E+01  0.128407038E+01 -0.917230667E+00
   H  0.905115178E+01 -0.124034633E+01  0.599064217E+00
     4
 # iter = 31000  time[fs]=31.00000
   C -0.174060022E+01 -0.496145143E-01  0.536407548E-01
   C  0.170447306E+01  0.109284479E+00 -0.918093032E-02
   H -0.953249520E+01  0.133678818E+01 -0.954716933E+00
   H  0.940798528E+01 -0.129110733E+01  0.624488250E+00
     4
 # iter = 31500  time[fs]=31.50000
   C -0.181145746E+01 -0.529710934E-01  0.563526450E-01
   C  0.177133713E+01  0.115305281E+00 -0.100735285E-01
   H -0.989918016E+01  0.138978433E+01 -0.992406793E+00
   H  0.976671181E+01 -0.134216765E+01  0.650050108E+00
     4
 # iter = 32000  time[fs]=32.00000
   C -0.188332426E+01 -0.563876583E-01  0.590930596E-01
   C  0.183920456E+01  0.121387702E+00 -0.109895767E-01
   H -0.102675469E+02  0.144303916E+01 -0.103028581E+01
   H  0.101271945E+02 -0.139350623E+01  0.675740234E+00
     4
 # iter = 32500  time[fs]=32.50000
   C -0.195612588E+01 -0.598606355E-01  0.618602289E-01
   C  0.190800103E+01  0.127528063E+00 -0.119276689E-01
   H -0.106374774E+02  0.149653499E+01 -0.106834101E+01
   H  0.104893102E+02 -0.144510415E+01  0.701550007E+00
     4
 # iter = 33000  time[fs]=33.00000
   C -0.202979471E+01 -0.633867103E-01  0.646525249E-01
   C  0.197765932E+01  0.133722955E+00 -0.128865037E-01
   H -0.110088653E+02  0.155025584E+01 -0.110656066E+01
   H  0.108529481E+02 -0.149694428E+01  0.727471629E+00
     4
 # iter = 33500  time[fs]=33.50000
   C -0.210426950E+01 -0.669628091E-01  0.674684487E-01
   C  0.204811852E+01  0.139969217E+00 -0.138648763E-01
   H -0.113816145E+02  0.160418725E+01 -0.114493416E+01
   H  0.112180079E+02 -0.154901112E+01  0.753498023E+00
     4
 # iter = 34000  time[fs]=34.00000
   C -0.217949463E+01 -0.705860821E-01  0.703066187E-01
   C  0.211932332E+01  0.146263919E+00 -0.148616712E-01
   H -0.117556377E+02  0.165831607E+01 -0.118345189E+01
   H  0.115843985E+02 -0.160129058E+01  0.779622750E+00
     4
 # iter = 34500  time[fs]=34.50000
   C -0.225541954E+01 -0.742538858E-01  0.731657598E-01
   C  0.219122346E+01  0.152604347E+00 -0.158758549E-01
   H -0.121308557E+02  0.171263034E+01 -0.122210506E+01
   H  0.119520372E+02 -0.165376982E+01  0.805839935E+00
     4
 # iter = 35000  time[fs]=35.00000
   C -0.233199818E+01 -0.779637677E-01  0.760446948E-01
   C  0.226377316E+01  0.158987979E+00 -0.169064695E-01
   H -0.125071961E+02  0.176711914E+01 -0.126088567E+01
   H  0.123208485E+02 -0.170643710E+01  0.832144204E+00
     4
 # iter = 35500  time[fs]=35.50000
   C -0.240918855E+01 -0.817134509E-01  0.789423347E-01
   C  0.233693063E+01  0.165412479E+00 -0.179526264E-01
   H -0.128845928E+02  0.182177246E+01 -0.129978639E+01
   H  0.126907633E+02 -0.175928169E+01  0.858530630E+00
     4
 # iter = 36000  time[fs]=36.00000
   C -0.248695222E+01 -0.855008201E-01  0.818576713E-01
   C  0.241065771E+01  0.171875672E+00 -0.190135005E-01
   H -0.132629853E+02  0.187658112E+01 -0.133880049E+01
   H  0.130617185E+02 -0.181229372E+01  0.884994685E+00
     4
 # iter = 36500  time[fs]=36.50000
   C -0.256525404E+01 -0.893239087E-01  0.847897701E-01
   C  0.248491942E+01  0.178375541E+00 -0.200883253E-01
   H -0.136423180E+02  0.193153667E+01 -0.137792178E+01
   H  0.134336560E+02 -0.186546412E+01  0.911532198E+00
     4
 # iter = 37000  time[fs]=37.00000
   C -0.264406175E+01 -0.931808866E-01  0.877377638E-01
   C  0.255968371E+01  0.184910206E+00 -0.211763877E-01
   H -0.140225397E+02  0.198663133E+01 -0.141714458E+01
   H  0.138065223E+02 -0.191878450E+01  0.938139320E+00
     4
 # iter = 37500  time[fs]=37.50000
   C -0.272334572E+01 -0.970700496E-01  0.907008464E-01
   C  0.263492111E+01  0.191477918E+00 -0.222770239E-01
   H -0.144036031E+02  0.204185790E+01 -0.145646360E+01
   H  0.141802680E+02 -0.197224714E+01  0.964812493E+00
     4
 # iter = 38000  time[fs]=38.00000
   C -0.280307867E+01 -0.100989809E+00  0.936782680E-01
   C  0.271060452E+01  0.198077047E+00 -0.233896151E-01
   H -0.147854647E+02  0.209720974E+01 -0.149587399E+01
   H  0.145548476E+02 -0.202584489E+01  0.991548419E+00
     4
 # iter = 38500  time[fs]=38.50000
   C -0.288323547E+01 -0.104938682E+00  0.966693303E-01
   C  0.278670894E+01  0.204706070E+00 -0.245135841E-01
   H -0.151680841E+02  0.215268066E+01 -0.153537122E+01
   H  0.149302190E+02 -0.207957109E+01  0.101834404E+01
     4
 # iter = 39000  time[fs]=39.00000
   C -0.296379288E+01 -0.108915283E+00  0.996733816E-01
   C  0.286321129E+01  0.211363566E+00 -0.256483919E-01
   H -0.155514237E+02  0.220826494E+01 -0.157495111E+01
   H  0.153063429E+02 -0.213341958E+01  0.104519650E+01
     4
 # iter = 39500  time[fs]=39.50000
   C -0.304472945E+01 -0.112918319E+00  0.102689814E+00
   C  0.294009024E+01  0.218048206E+00 -0.267935346E-01
   H -0.159354489E+02  0.226395725E+01 -0.161460975E+01
   H  0.156831830E+02 -0.218738463E+01  0.107210317E+01
     4
 # iter = 40000  time[fs]=40.00000
   C -0.312602529E+01 -0.116946578E+00  0.105718058E+00
   C  0.301732602E+01  0.224758748E+00 -0.279485404E-01
   H -0.163201273E+02  0.231975262E+01 -0.165434350E+01
   H  0.160607055E+02 -0.224146087E+01  0.109906156E+01
     4
 # iter = 40500  time[fs]=40.50000
   C -0.320766195E+01 -0.120998923E+00  0.108757583E+00
   C  0.309490030E+01  0.231494025E+00 -0.291129676E-01
   H -0.167054286E+02  0.237564640E+01 -0.169414898E+01
   H  0.164388788E+02 -0.229564332E+01  0.112606937E+01
     4
 # iter = 41000  time[fs]=41.00000
   C -0.328962229E+01 -0.125074291E+00  0.111807889E+00
   C  0.317279605E+01  0.238252946E+00 -0.302864017E-01
   H -0.170913246E+02  0.243163427E+01 -0.173402301E+01
   H  0.168176735E+02 -0.234992730E+01  0.115312444E+01
     4
 # iter = 41500  time[fs]=41.50000
   C -0.337189038E+01 -0.129171682E+00  0.114868509E+00
   C  0.325099743E+01  0.245034484E+00 -0.314684537E-01
   H -0.174777891E+02  0.248771215E+01 -0.177396262E+01
   H  0.171970620E+02 -0.240430844E+01  0.118022475E+01
     4
 # iter = 42000  time[fs]=42.00000
   C -0.345445135E+01 -0.133290157E+00  0.117939004E+00
   C  0.332948967E+01  0.251837677E+00 -0.326587582E-01
   H -0.178647973E+02  0.254387626E+01 -0.181396505E+01
   H  0.175770185E+02 -0.245878264E+01  0.120736840E+01
     4
 # iter = 42500  time[fs]=42.50000
   C -0.353729137E+01 -0.137428832E+00  0.121018960E+00
   C  0.340825901E+01  0.258661618E+00 -0.338569713E-01
   H -0.182523263E+02  0.260012300E+01 -0.185402767E+01
   H  0.179575190E+02 -0.251334605E+01  0.123455360E+01
     4
 # iter = 43000  time[fs]=43.00000
   C -0.362039749E+01 -0.141586877E+00  0.124107989E+00
   C  0.348729261E+01  0.265505454E+00 -0.350627692E-01
   H -0.186403541E+02  0.265644904E+01 -0.189414803E+01
   H  0.183385407E+02 -0.256799505E+01  0.126177869E+01
     4
 # iter = 43500  time[fs]=43.50000
   C -0.370375762E+01 -0.145763508E+00  0.127205726E+00
   C  0.356657843E+01  0.272368380E+00 -0.362758469E-01
   H -0.190288606E+02  0.271285121E+01 -0.193432383E+01
   H  0.187200623E+02 -0.262272623E+01  0.128904208E+01
     4
 # iter = 44000  time[fs]=44.00000
   C -0.378736042E+01 -0.149957986E+00  0.130311826E+00
   C  0.364610522E+01  0.279249638E+00 -0.374959165E-01
   H -0.194178264E+02  0.276932653E+01 -0.197455289E+01
   H  0.191020637E+02 -0.267753640E+01  0.131634229E+01
     4
 # iter = 44500  time[fs]=44.50000
   C -0.387119528E+01 -0.154169613E+00  0.133425962E+00
   C  0.372586243E+01  0.286148512E+00 -0.387227064E-01
   H -0.198072336E+02  0.282587220E+01 -0.201483316E+01
   H  0.194845262E+02 -0.273242252E+01  0.134367791E+01
     4
 # iter = 45000  time[fs]=45.00000
   C -0.395525222E+01 -0.158397730E+00  0.136547827E+00
   C  0.380584015E+01  0.293064326E+00 -0.399559596E-01
   H -0.201970650E+02  0.288248557E+01 -0.205516271E+01
   H  0.198674317E+02 -0.278738173E+01  0.137104762E+01
     4
 # iter = 45500  time[fs]=45.50000
   C -0.403952189E+01 -0.162641713E+00  0.139677131E+00
   C  0.388602908E+01  0.299996440E+00 -0.411954334E-01
   H -0.205873046E+02  0.293916414E+01 -0.209553972E+01
   H  0.202507637E+02 -0.284241135E+01  0.139845017E+01
     4
 # iter = 46000  time[fs]=46.00000
   C -0.412399548E+01 -0.166900972E+00  0.142813598E+00
   C  0.396642048E+01  0.306944248E+00 -0.424408978E-01
   H -0.209779372E+02  0.299590553E+01 -0.213596244E+01
   H  0.206345060E+02 -0.289750880E+01  0.142588436E+01
     4
 # iter = 46500  time[fs]=46.50000
   C -0.420866469E+01 -0.171174949E+00  0.145956967E+00
   C  0.404700610E+01  0.313907176E+00 -0.436921349E-01
   H -0.213689484E+02  0.305270751E+01 -0.217642925E+01
   H  0.210186438E+02 -0.295267167E+01  0.145334909E+01
     4
 # iter = 47000  time[fs]=47.00000
   C -0.429352171E+01 -0.175463114E+00  0.149106992E+00
   C  0.412777818E+01  0.320884681E+00 -0.449489381E-01
   H -0.217603245E+02  0.310956794E+01 -0.221693859E+01
   H  0.214031628E+02 -0.300789768E+01  0.148084327E+01
     4
 # iter = 47500  time[fs]=47.50000
   C -0.437855916E+01 -0.179764963E+00  0.152263438E+00
   C  0.420872939E+01  0.327876247E+00 -0.462111115E-01
   H -0.221520528E+02  0.316648481E+01 -0.225748899E+01
   H  0.217880494E+02 -0.306318463E+01  0.150836591E+01
     4
 # iter = 48000  time[fs]=48.00000
   C -0.446377008E+01 -0.184080020E+00  0.155426082E+00
   C  0.428985282E+01  0.334881384E+00 -0.474784688E-01
   H -0.225441209E+02  0.322345621E+01 -0.229807906E+01
   H  0.221732909E+02 -0.311853046E+01  0.153591603E+01
     4
 # iter = 48500  time[fs]=48.50000
   C -0.454914789E+01 -0.188407830E+00  0.158594713E+00
   C  0.437114192E+01  0.341899625E+00 -0.487508331E-01
   H -0.229365172E+02  0.328048031E+01 -0.233870745E+01
   H  0.225588752E+02 -0.317393321E+01  0.156349273E+01
     4
 # iter = 49000  time[fs]=49.00000
   C -0.463468636E+01 -0.192747962E+00  0.161769130E+00
   C  0.445259051E+01  0.348930528E+00 -0.500280360E-01
   H -0.233292307E+02  0.333755538E+01 -0.237937292E+01
   H  0.229447907E+02 -0.322939101E+01  0.159109514E+01
     4
 # iter = 49500  time[fs]=49.50000
   C -0.472037958E+01 -0.197100006E+00  0.164949141E+00
   C  0.453419273E+01  0.355973672E+00 -0.513099174E-01
   H -0.237222508E+02  0.339467977E+01 -0.242007426E+01
   H  0.233310264E+02 -0.328490208E+01  0.161872242E+01
     4
 # iter = 50000  time[fs]=50.00000
   C -0.480622198E+01 -0.201463571E+00  0.168134564E+00
   C  0.461594303E+01  0.363028655E+00 -0.525963247E-01
   H -0.241155677E+02  0.345185192E+01 -0.246081032E+01
   H  0.237175719E+02 -0.334046473E+01  0.164637380E+01
     4
 # iter = 50500  time[fs]=50.50000
   C -0.489220825E+01 -0.205838284E+00  0.171325225E+00
   C  0.469783615E+01  0.370095095E+00 -0.538871123E-01
   H -0.245091716E+02  0.350907032E+01 -0.250158001E+01
   H  0.241044172E+02 -0.339607733E+01  0.167404851E+01
     4
 # iter = 51000  time[fs]=51.00000
   C -0.497833336E+01 -0.210223789E+00  0.174520958E+00
   C  0.477986708E+01  0.377172627E+00 -0.551821417E-01
   H -0.249030537E+02  0.356633354E+01 -0.254238228E+01
   H  0.244915528E+02 -0.345173835E+01  0.170174585E+01
     4
 # iter = 51500  time[fs]=51.50000
   C -0.506459252E+01 -0.214619748E+00  0.177721606E+00
   C  0.486203107E+01  0.384260902E+00 -0.564812803E-01
   H -0.252972051E+02  0.362364023E+01 -0.258321616E+01
   H  0.248789697E+02 -0.350744631E+01  0.172946512E+01
     4
 # iter = 52000  time[fs]=52.00000
   C -0.515098118E+01 -0.219025838E+00  0.180927017E+00
   C  0.494432362E+01  0.391359589E+00 -0.577844018E-01
   H -0.256916177E+02  0.368098908E+01 -0.262408068E+01
   H  0.252666593E+02 -0.356319981E+01  0.175720567E+01
     4
 # iter = 52500  time[fs]=52.50000
   C -0.523749503E+01 -0.223441747E+00  0.184137046E+00
   C  0.502674041E+01  0.398468370E+00 -0.590913852E-01
   H -0.260862835E+02  0.373837884E+01 -0.266497493E+01
   H  0.256546132E+02 -0.361899750E+01  0.178496687E+01
     4
 # iter = 53000  time[fs]=53.00000
   C -0.532412995E+01 -0.227867182E+00  0.187351557E+00
   C  0.510927738E+01  0.405586940E+00 -0.604021150E-01
   H -0.264811951E+02  0.379580832E+01 -0.270589806E+01
   H  0.260428237E+02 -0.367483810E+01  0.181274813E+01
     4
 # iter = 53500  time[fs]=53.50000
   C -0.541088200E+01 -0.232301858E+00  0.190570416E+00
   C  0.519193060E+01  0.412715011E+00 -0.617164806E-01
   H -0.268763452E+02  0.385327638E+01 -0.274684922E+01
   H  0.264312831E+02 -0.373072037E+01  0.184054888E+01
     4
 # iter = 54000  time[fs]=54.00000
   C -0.549774744E+01 -0.236745505E+00  0.193793497E+00
   C  0.527469638E+01  0.419852303E+00 -0.630343762E-01
   H -0.272717268E+02  0.391078192E+01 -0.278782762E+01
   H  0.268199843E+02 -0.378664313E+01  0.186836855E+01
     4
 # iter = 54500  time[fs]=54.50000
   C -0.558472271E+01 -0.241197864E+00  0.197020680E+00
   C  0.535757115E+01  0.426998550E+00 -0.643557004E-01
   H -0.276673334E+02  0.396832391E+01 -0.282883250E+01
   H  0.272089203E+02 -0.384260525E+01  0.189620663E+01
     4
 # iter = 55000  time[fs]=55.00000
   C -0.567180440E+01 -0.245658687E+00  0.200251849E+00
   C  0.544055155E+01  0.434153497E+00 -0.656803560E-01
   H -0.280631586E+02  0.402590133E+01 -0.286986312E+01
   H  0.275980845E+02 -0.389860565E+01  0.192406260E+01
     4
 # iter = 55500  time[fs]=55.50000
   C -0.575898924E+01 -0.250127734E+00  0.203486891E+00
   C  0.552363432E+01  0.441316900E+00 -0.670082497E-01
   H -0.284591964E+02  0.408351322E+01 -0.291091879E+01
   H  0.279874706E+02 -0.395464329E+01  0.195193599E+01
     4
 # iter = 56000  time[fs]=56.00000
   C -0.584627412E+01 -0.254604778E+00  0.206725700E+00
   C  0.560681638E+01  0.448488524E+00 -0.683392923E-01
   H -0.288554409E+02  0.414115866E+01 -0.295199882E+01
   H  0.283770725E+02 -0.401071716E+01  0.197982633E+01
     4
 # iter = 56500  time[fs]=56.50000
   C -0.593365607E+01 -0.259089598E+00  0.209968174E+00
   C  0.569009477E+01  0.455668142E+00 -0.696733977E-01
   H -0.292518865E+02  0.419883675E+01 -0.299310258E+01
   H  0.287668843E+02 -0.406682631E+01  0.200773316E+01
     4
 # iter = 57000  time[fs]=57.00000
   C -0.602113223E+01 -0.263581986E+00  0.213214215E+00
   C  0.577346667E+01  0.462855540E+00 -0.710104837E-01
   H -0.296485279E+02  0.425654665E+01 -0.303422944E+01
   H  0.291569004E+02 -0.412296982E+01  0.203565607E+01
     4
 # iter = 57500  time[fs]=57.50000
   C -0.610869987E+01 -0.268081737E+00  0.216463727E+00
   C  0.585692935E+01  0.470050509E+00 -0.723504709E-01
   H -0.300453599E+02  0.431428753E+01 -0.307537880E+01
   H  0.295471153E+02 -0.417914679E+01  0.206359463E+01
     4
 # iter = 58000  time[fs]=58.00000
   C -0.619635638E+01 -0.272588657E+00  0.219716620E+00
   C  0.594048022E+01  0.477252849E+00 -0.736932832E-01
   H -0.304423775E+02  0.437205860E+01 -0.311655009E+01
   H  0.299375241E+02 -0.423535637E+01  0.209154845E+01
     4
 # iter = 58500  time[fs]=58.50000
   C -0.628409925E+01 -0.277102560E+00  0.222972807E+00
   C  0.602411679E+01  0.484462368E+00 -0.750388474E-01
   H -0.308395759E+02  0.442985910E+01 -0.315774274E+01
   H  0.303281215E+02 -0.429159775E+01  0.211951715E+01
     4
 # iter = 59000  time[fs]=59.00000
   C -0.637192606E+01 -0.281623265E+00  0.226232202E+00
   C  0.610783667E+01  0.491678881E+00 -0.763870929E-01
   H -0.312369506E+02  0.448768830E+01 -0.319895624E+01
   H  0.307189029E+02 -0.434787012E+01  0.214750035E+01
     4
 # iter = 59500  time[fs]=59.50000
   C -0.645983451E+01 -0.286150599E+00  0.229494726E+00
   C  0.619163757E+01  0.498902211E+00 -0.777379518E-01
   H -0.316344972E+02  0.454554549E+01 -0.324019007E+01
   H  0.311098636E+02 -0.440417274E+01  0.217549770E+01
     4
 # iter = 60000  time[fs]=60.00000
   C -0.654782239E+01 -0.290684395E+00  0.232760299E+00
   C  0.627551728E+01  0.506132185E+00 -0.790913589E-01
   H -0.320322113E+02  0.460342999E+01 -0.328144372E+01
   H  0.315009992E+02 -0.446050486E+01  0.220350886E+01
     4
 # iter = 60500  time[fs]=60.50000
   C -0.663588756E+01 -0.295224493E+00  0.236028848E+00
   C  0.635947370E+01  0.513368639E+00 -0.804472510E-01
   H -0.324300888E+02  0.466134115E+01 -0.332271673E+01
   H  0.318923053E+02 -0.451686578E+01  0.223153350E+01
     4
 # iter = 61000  time[fs]=61.00000
   C -0.672402797E+01 -0.299770737E+00  0.239300299E+00
   C  0.644350477E+01  0.520611414E+00 -0.818055675E-01
   H -0.328281259E+02  0.471927834E+01 -0.336400863E+01
   H  0.322837779E+02 -0.457325481E+01  0.225957129E+01
     4
 # iter = 61500  time[fs]=61.50000
   C -0.681224166E+01 -0.304322979E+00  0.242574582E+00
   C  0.652760857E+01  0.527860356E+00 -0.831662499E-01
   H -0.332263186E+02  0.477724094E+01 -0.340531898E+01
   H  0.326754129E+02 -0.462967129E+01  0.228762193E+01
     4
 # iter = 62000  time[fs]=62.00000
   C -0.690052673E+01 -0.308881073E+00  0.245851630E+00
   C  0.661178318E+01  0.535115317E+00 -0.845292416E-01
   H -0.336246634E+02  0.483522836E+01 -0.344664735E+01
   H  0.330672065E+02 -0.468611459E+01  0.231568513E+01
     4
 # iter = 62500  time[fs]=62.50000
   C -0.698888135E+01 -0.313444882E+00  0.249131378E+00
   C  0.669602682E+01  0.542376154E+00 -0.858944881E-01
   H -0.340231566E+02  0.489324004E+01 -0.348799332E+01
   H  0.334591550E+02 -0.474258409E+01  0.234376059E+01
     4
 # iter = 63000  time[fs]=63.00000
   C -0.707730377E+01 -0.318014270E+00  0.252413763E+00
   C  0.678033774E+01  0.549642730E+00 -0.872619367E-01
   H -0.344217949E+02  0.495127542E+01 -0.352935651E+01
   H  0.338512548E+02 -0.479907920E+01  0.237184804E+01
     4
 # iter = 63500  time[fs]=63.50000
   C -0.716579230E+01 -0.322589108E+00  0.255698724E+00
   C  0.686471425E+01  0.556914910E+00 -0.886315366E-01
   H -0.348205748E+02  0.500933398E+01 -0.357073651E+01
   H  0.342435025E+02 -0.485559935E+01  0.239994721E+01
     4
 # iter = 64000  time[fs]=64.00000
   C -0.725434530E+01 -0.327169272E+00  0.258986203E+00
   C  0.694915473E+01  0.564192567E+00 -0.900032387E-01
   H -0.352194933E+02  0.506741520E+01 -0.361213295E+01
   H  0.346358946E+02 -0.491214397E+01  0.242805784E+01
     4
 # iter = 64500  time[fs]=64.50000
   C -0.734296121E+01 -0.331754639E+00  0.262276142E+00
   C  0.703365763E+01  0.571475576E+00 -0.913769954E-01
   H -0.356185471E+02  0.512551858E+01 -0.365354548E+01
   H  0.350284280E+02 -0.496871253E+01  0.245617968E+01
     4
 # iter = 65000  time[fs]=65.00000
   C -0.743163850E+01 -0.336345092E+00  0.265568488E+00
   C  0.711822144E+01  0.578763817E+00 -0.927527609E-01
   H -0.360177334E+02  0.518364364E+01 -0.369497375E+01
   H  0.354210996E+02 -0.502530452E+01  0.248431249E+01
     4
 # iter = 65500  time[fs]=65.50000
   C -0.752037572E+01 -0.340940520E+00  0.268863186E+00
   C  0.720284471E+01  0.586057173E+00 -0.941304906E-01
   H -0.364170491E+02  0.524178992E+01 -0.373641741E+01
   H  0.358139062E+02 -0.508191942E+01  0.251245603E+01
     4
 # iter = 66000  time[fs]=66.00000
   C -0.760917144E+01 -0.345540811E+00  0.272160186E+00
   C  0.728752603E+01  0.593355532E+00 -0.955101417E-01
   H -0.368164916E+02  0.529995696E+01 -0.377787613E+01
   H  0.362068450E+02 -0.513855675E+01  0.254061007E+01
     4
 # iter = 66500  time[fs]=66.50000
   C -0.769802431E+01 -0.350145861E+00  0.275459438E+00
   C  0.737226405E+01  0.600658785E+00 -0.968916724E-01
   H -0.372160580E+02  0.535814433E+01 -0.381934961E+01
   H  0.365999131E+02 -0.519521604E+01  0.256877440E+01
     4
 # iter = 67000  time[fs]=67.00000
   C -0.778693301E+01 -0.354755566E+00  0.278760893E+00
   C  0.745705746E+01  0.607966827E+00 -0.982750425E-01
   H -0.376157458E+02  0.541635160E+01 -0.386083752E+01
   H  0.369931078E+02 -0.525189684E+01  0.259694880E+01
     4
 # iter = 67500  time[fs]=67.50000
   C -0.787589626E+01 -0.359369827E+00  0.282064505E+00
   C  0.754190500E+01  0.615279555E+00 -0.996602130E-01
   H -0.380155524E+02  0.547457837E+01 -0.390233958E+01
   H  0.373864265E+02 -0.530859869E+01  0.262513306E+01
     4
 # iter = 68000  time[fs]=68.00000
   C -0.796491283E+01 -0.363988548E+00  0.285370230E+00
   C  0.762680544E+01  0.622596871E+00 -0.101047146E+00
   H -0.384154753E+02  0.553282424E+01 -0.394385549E+01
   H  0.377798665E+02 -0.536532117E+01  0.265332698E+01
     4
 # iter = 68500  time[fs]=68.50000
   C -0.805398153E+01 -0.368611636E+00  0.288678022E+00
   C  0.771175760E+01  0.629918679E+00 -0.102435805E+00
   H -0.388155122E+02  0.559108882E+01 -0.398538498E+01
   H  0.381734253E+02 -0.542206387E+01  0.268153037E+01
     4
 # iter = 69000  time[fs]=69.00000
   C -0.814310121E+01 -0.373238999E+00  0.291987840E+00
   C  0.779676034E+01  0.637244885E+00 -0.103826154E+00
   H -0.392156607E+02  0.564937173E+01 -0.402692777E+01
   H  0.385671005E+02 -0.547882637E+01  0.270974304E+01
     4
 # iter = 69500  time[fs]=69.50000
   C -0.823227075E+01 -0.377870551E+00  0.295299642E+00
   C  0.788181255E+01  0.644575399E+00 -0.105218159E+00
   H -0.396159186E+02  0.570767262E+01 -0.406848359E+01
   H  0.389608899E+02 -0.553560829E+01  0.273796480E+01
     4
 # iter = 70000  time[fs]=70.00000
   C -0.832148907E+01 -0.382506207E+00  0.298613389E+00
   C  0.796691315E+01  0.651910135E+00 -0.106611787E+00
   H -0.400162836E+02  0.576599113E+01 -0.411005220E+01
   H  0.393547910E+02 -0.559240924E+01  0.276619548E+01
     4
 # iter = 70500  time[fs]=70.50000
   C -0.841075512E+01 -0.387145883E+00  0.301929041E+00
   C  0.805206112E+01  0.659249007E+00 -0.108007004E+00
   H -0.404167538E+02  0.582432691E+01 -0.415163334E+01
   H  0.397488017E+02 -0.564922886E+01  0.279443490E+01
     4
 # iter = 71000  time[fs]=71.00000
   C -0.850006790E+01 -0.391789500E+00  0.305246562E+00
   C  0.813725544E+01  0.666591933E+00 -0.109403781E+00
   H -0.408173269E+02  0.588267965E+01 -0.419322677E+01
   H  0.401429198E+02 -0.570606678E+01  0.282268290E+01
     4
 # iter = 71500  time[fs]=71.50000
   C -0.858942641E+01 -0.396436980E+00  0.308565914E+00
   C  0.822249514E+01  0.673938833E+00 -0.110802085E+00
   H -0.412180010E+02  0.594104900E+01 -0.423483225E+01
   H  0.405371432E+02 -0.576292266E+01  0.285093931E+01
     4
 # iter = 72000  time[fs]=72.00000
   C -0.867882972E+01 -0.401088247E+00  0.311887062E+00
   C  0.830777927E+01  0.681289630E+00 -0.112201887E+00
   H -0.416187742E+02  0.599943467E+01 -0.427644956E+01
   H  0.409314700E+02 -0.581979615E+01  0.287920398E+01
     4
 # iter = 72500  time[fs]=72.50000
   C -0.876827689E+01 -0.405743229E+00  0.315209972E+00
   C  0.839310692E+01  0.688644248E+00 -0.113603159E+00
   H -0.420196446E+02  0.605783633E+01 -0.431807848E+01
   H  0.413258981E+02 -0.587668693E+01  0.290747674E+01
     4
 # iter = 73000  time[fs]=73.00000
   C -0.885776704E+01 -0.410401853E+00  0.318534610E+00
   C  0.847847721E+01  0.696002613E+00 -0.115005872E+00
   H -0.424206104E+02  0.611625371E+01 -0.435971879E+01
   H  0.417204257E+02 -0.593359468E+01  0.293575746E+01
     4
 # iter = 73500  time[fs]=73.50000
   C -0.894729928E+01 -0.415064051E+00  0.321860943E+00
   C  0.856388926E+01  0.703364655E+00 -0.116409999E+00
   H -0.428216697E+02  0.617468650E+01 -0.440137028E+01
   H  0.421150508E+02 -0.599051908E+01  0.296404598E+01
     4
 # iter = 74000  time[fs]=74.00000
   C -0.903687279E+01 -0.419729755E+00  0.325188940E+00
   C  0.864934225E+01  0.710730305E+00 -0.117815513E+00
   H -0.432228208E+02  0.623313443E+01 -0.444303274E+01
   H  0.425097716E+02 -0.604745983E+01  0.299234216E+01
     4
 # iter = 74500  time[fs]=74.50000
   C -0.912648674E+01 -0.424398900E+00  0.328518570E+00
   C  0.873483535E+01  0.718099494E+00 -0.119222390E+00
   H -0.436240620E+02  0.629159723E+01 -0.448470598E+01
   H  0.429045865E+02 -0.610441664E+01  0.302064586E+01
     4
 # iter = 75000  time[fs]=75.00000
   C -0.921614033E+01 -0.429071423E+00  0.331849803E+00
   C  0.882036779E+01  0.725472158E+00 -0.120630603E+00
   H -0.440253918E+02  0.635007462E+01 -0.452638981E+01
   H  0.432994936E+02 -0.616138922E+01  0.304895696E+01
     4
 # iter = 75500  time[fs]=75.50000
   C -0.930583280E+01 -0.433747260E+00  0.335182610E+00
   C  0.890593879E+01  0.732848234E+00 -0.122040129E+00
   H -0.444268085E+02  0.640856635E+01 -0.456808403E+01
   H  0.436944914E+02 -0.621837729E+01  0.307727531E+01
     4
 # iter = 76000  time[fs]=76.00000
   C -0.939556340E+01 -0.438426352E+00  0.338516962E+00
   C  0.899154762E+01  0.740227658E+00 -0.123450944E+00
   H -0.448283105E+02  0.646707217E+01 -0.460978847E+01
   H  0.440895781E+02 -0.627538057E+01  0.310560079E+01
     4
 # iter = 76500  time[fs]=76.50000
   C -0.948533139E+01 -0.443108641E+00  0.341852832E+00
   C  0.907719355E+01  0.747610371E+00 -0.124863024E+00
   H -0.452298964E+02  0.652559184E+01 -0.465150294E+01
   H  0.444847523E+02 -0.633239881E+01  0.313393328E+01
     4
 # iter = 77000  time[fs]=77.00000
   C -0.957513607E+01 -0.447794069E+00  0.345190194E+00
   C  0.916287587E+01  0.754996314E+00 -0.126276347E+00
   H -0.456315646E+02  0.658412510E+01 -0.469322727E+01
   H  0.448800123E+02 -0.638943173E+01  0.316227266E+01
     4
 # iter = 77500  time[fs]=77.50000
   C -0.966497676E+01 -0.452482580E+00  0.348529020E+00
   C  0.924859391E+01  0.762385430E+00 -0.127690891E+00
   H -0.460333138E+02  0.664267173E+01 -0.473496129E+01
   H  0.452753568E+02 -0.644647910E+01  0.319061881E+01
     4
 # iter = 78000  time[fs]=78.00000
   C -0.975485277E+01 -0.457174121E+00  0.351869285E+00
   C  0.933434699E+01  0.769777663E+00 -0.129106636E+00
   H -0.464351425E+02  0.670123151E+01 -0.477670484E+01
   H  0.456707841E+02 -0.650354067E+01  0.321897161E+01
     4
 # iter = 78500  time[fs]=78.50000
   C -0.984476347E+01 -0.461868639E+00  0.355210965E+00
   C  0.942013448E+01  0.777172960E+00 -0.130523559E+00
   H -0.468370494E+02  0.675980421E+01 -0.481845776E+01
   H  0.460662929E+02 -0.656061619E+01  0.324733095E+01
     4
 # iter = 79000  time[fs]=79.00000
   C -0.993470821E+01 -0.466566081E+00  0.358554036E+00
   C  0.950595574E+01  0.784571266E+00 -0.131941641E+00
   H -0.472390331E+02  0.681838961E+01 -0.486021988E+01
   H  0.464618819E+02 -0.661770543E+01  0.327569672E+01
     4
 # iter = 79500  time[fs]=79.50000
   C -0.100246864E+02 -0.471266399E+00  0.361898473E+00
   C  0.959181017E+01  0.791972531E+00 -0.133360863E+00
   H -0.476410924E+02  0.687698751E+01 -0.490199106E+01
   H  0.468575496E+02 -0.667480817E+01  0.330406882E+01
     4
 # iter = 80000  time[fs]=80.00000
   C -0.101146974E+02 -0.475969544E+00  0.365244253E+00
   C  0.967769715E+01  0.799376704E+00 -0.134781204E+00
   H -0.480432260E+02  0.693559769E+01 -0.494377115E+01
   H  0.472532948E+02 -0.673192418E+01  0.333244714E+01
