     4
 # iter = 25000  time[fs]=25.00000
   C -0.970242527E+00  0.192486641E-01 -0.501028140E-01
   C  0.100286583E+01  0.249435420E-01 -0.413216644E-01
   H -0.526608110E+01  0.283224644E+00  0.345271575E+00
   H  0.533058433E+01  0.327605896E+00 -0.389006701E+00
     4
 # iter = 25500  time[fs]=25.50000
   C -0.101470948E+01  0.184223792E-01 -0.520054078E-01
   C  0.104581799E+01  0.241796864E-01 -0.410760349E-01
   H -0.559784797E+01  0.299286534E+00  0.370015657E+00
   H  0.565035535E+01  0.346221431E+00 -0.412853119E+00
     4
 # iter = 26000  time[fs]=26.00000
   C -0.106357574E+01  0.175721174E-01 -0.539405884E-01
   C  0.109317063E+01  0.234162319E-01 -0.407999445E-01
   H -0.593229220E+01  0.315479133E+00  0.394976571E+00
   H  0.597278975E+01  0.364989166E+00 -0.436890856E+00
     4
 # iter = 26500  time[fs]=26.50000
   C -0.111646085E+01  0.167005863E-01 -0.559084554E-01
   C  0.114454239E+01  0.226530475E-01 -0.404929542E-01
   H -0.626911652E+01  0.331787763E+00  0.420130444E+00
   H  0.629760095E+01  0.383892862E+00 -0.461100115E+00
     4
 # iter = 27000  time[fs]=27.00000
   C -0.117300474E+01  0.158101373E-01 -0.579086089E-01
   C  0.119957256E+01  0.218899481E-01 -0.401551935E-01
   H -0.660807015E+01  0.348200144E+00  0.445457213E+00
   H  0.662454585E+01  0.402918800E+00 -0.485464078E+00
     4
 # iter = 27500  time[fs]=27.50000
   C -0.123287250E+01  0.149028117E-01 -0.599402620E-01
   C  0.125792578E+01  0.211267333E-01 -0.397872312E-01
   H -0.694893963E+01  0.364705887E+00  0.470939848E+00
   H  0.695341650E+01  0.422055282E+00 -0.509968329E+00
     4
 # iter = 28000  time[fs]=28.00000
   C -0.129575662E+01  0.139803819E-01 -0.620023486E-01
   C  0.131929421E+01  0.203632084E-01 -0.393899555E-01
   H -0.729154185E+01  0.381296122E+00  0.496563760E+00
   H  0.728403369E+01  0.441292241E+00 -0.534600417E+00
     4
 # iter = 28500  time[fs]=28.50000
   C -0.136137738E+01  0.130443881E-01 -0.640936158E-01
   C  0.138339789E+01  0.195991970E-01 -0.389644725E-01
   H -0.763571852E+01  0.397963212E+00  0.522316350E+00
   H  0.761624189E+01  0.460620953E+00 -0.559349504E+00
     4
 # iter = 29000  time[fs]=29.00000
   C -0.142948203E+01  0.120961710E-01 -0.662127007E-01
   C  0.144998394E+01  0.188345451E-01 -0.385120231E-01
   H -0.798133197E+01  0.414700529E+00  0.548186664E+00
   H  0.794990533E+01  0.480033803E+00 -0.584206099E+00
     4
 # iter = 29500  time[fs]=29.50000
   C -0.149984330E+01  0.111368999E-01 -0.683581883E-01
   C  0.151882496E+01  0.180691235E-01 -0.380339197E-01
   H -0.832826170E+01  0.431502282E+00  0.574165109E+00
   H  0.828490476E+01  0.499524101E+00 -0.609161839E+00
     4
 # iter = 30000  time[fs]=30.00000
   C -0.157225744E+01  0.101675972E-01 -0.705286559E-01
   C  0.158971713E+01  0.173028262E-01 -0.375314986E-01
   H -0.867640163E+01  0.448363383E+00  0.600243239E+00
   H  0.862113490E+01  0.519085939E+00 -0.634209318E+00
     4
 # iter = 30500  time[fs]=30.50000
   C -0.164654207E+01  0.918915942E-02 -0.727227038E-01
   C  0.166247806E+01  0.165355689E-01 -0.370060854E-01
   H -0.902565797E+01  0.465279333E+00  0.626413573E+00
   H  0.895850238E+01  0.538714070E+00 -0.659341942E+00
     4
 # iter = 31000  time[fs]=31.00000
   C -0.172253413E+01  0.820237531E-02 -0.749389772E-01
   C  0.173694466E+01  0.157672860E-01 -0.364589719E-01
   H -0.937594732E+01  0.482246132E+00  0.652669457E+00
   H  0.929692397E+01  0.558403814E+00 -0.684553813E+00
     4
 # iter = 31500  time[fs]=31.50000
   C -0.180008781E+01  0.720794086E-02 -0.771761793E-01
   C  0.181297112E+01  0.149979286E-01 -0.358914004E-01
   H -0.972719525E+01  0.499260212E+00  0.679004939E+00
   H  0.963632523E+01  0.578150974E+00 -0.709839635E+00
     4
 # iter = 32000  time[fs]=32.00000
   C -0.187907265E+01  0.620647233E-02 -0.794330798E-01
   C  0.189042699E+01  0.142274618E-01 -0.353045538E-01
   H -0.100793351E+02  0.516318372E+00  0.705414679E+00
   H  0.997663925E+01  0.597951778E+00 -0.735194635E+00
     4
 # iter = 32500  time[fs]=32.50000
   C -0.195937182E+01  0.519851723E-02 -0.817085187E-01
   C  0.196919548E+01  0.134558622E-01 -0.346995510E-01
   H -0.104323067E+02  0.533417730E+00  0.731893863E+00
   H  0.103178057E+02  0.617802815E+00 -0.760614492E+00
     4
 # iter = 33000  time[fs]=33.00000
   C -0.204088056E+01  0.418456361E-02 -0.840014074E-01
   C  0.204917185E+01  0.126831163E-01 -0.340774446E-01
   H -0.107860560E+02  0.550555683E+00  0.758438136E+00
   H  0.106597701E+02  0.637700995E+00 -0.786095284E+00
     4
 # iter = 33500  time[fs]=33.50000
   C -0.212350479E+01  0.316504795E-02 -0.863107276E-01
   C  0.213026207E+01  0.119092186E-01 -0.334392212E-01
   H -0.111405339E+02  0.567729868E+00  0.785043545E+00
   H  0.110024829E+02  0.657643510E+00 -0.811633438E+00
     4
 # iter = 34000  time[fs]=34.00000
   C -0.220715989E+01  0.214036186E-02 -0.886355294E-01
   C  0.221238152E+01  0.111341700E-01 -0.327858028E-01
   H -0.114956957E+02  0.584938138E+00  0.811706491E+00
   H  0.113458990E+02  0.677627795E+00 -0.837225690E+00
     4
 # iter = 34500  time[fs]=34.50000
   C -0.229176955E+01  0.111085783E-02 -0.909749277E-01
   C  0.229545398E+01  0.103579768E-01 -0.321180497E-01
   H -0.118515008E+02  0.602178532E+00  0.838423688E+00
   H  0.116899773E+02  0.697651506E+00 -0.862869052E+00
     4
 # iter = 35000  time[fs]=35.00000
   C -0.237726491E+01  0.768540541E-04 -0.933280990E-01
   C  0.237941059E+01  0.958064954E-02 -0.314367634E-01
   H -0.122079120E+02  0.619449256E+00  0.865192127E+00
   H  0.120346801E+02  0.717712494E+00 -0.888560778E+00
     4
 # iter = 35500  time[fs]=35.50000
   C -0.246358363E+01 -0.961361358E-03 -0.956942774E-01
   C  0.246418907E+01  0.880220199E-02 -0.307426900E-01
   H -0.125648953E+02  0.636748663E+00  0.892009044E+00
   H  0.123799730E+02  0.737808782E+00 -0.914298340E+00
     4
 # iter = 36000  time[fs]=36.00000
   C -0.255066920E+01 -0.200352681E-02 -0.980727509E-01
   C  0.254973296E+01  0.802265063E-02 -0.300365243E-01
   H -0.129224195E+02  0.654075240E+00  0.918871896E+00
   H  0.127258240E+02  0.757938546E+00 -0.940079406E+00
     4
 # iter = 36500  time[fs]=36.50000
   C -0.263847030E+01 -0.304940413E-02 -0.100462857E+00
   C  0.263599097E+01  0.724201392E-02 -0.293189124E-01
   H -0.132804557E+02  0.671427590E+00  0.945778336E+00
   H  0.130722040E+02  0.778100103E+00 -0.965901820E+00
     4
 # iter = 37000  time[fs]=37.00000
   C -0.272694020E+01 -0.409877592E-02 -0.102863981E+00
   C  0.272291640E+01  0.646031183E-02 -0.285904561E-01
   H -0.136389774E+02  0.688804423E+00  0.972726196E+00
   H  0.134190860E+02  0.798291895E+00 -0.991763581E+00
     4
 # iter = 37500  time[fs]=37.50000
   C -0.281603627E+01 -0.515144323E-02 -0.105275548E+00
   C  0.281046669E+01  0.567756545E-02 -0.278517157E-01
   H -0.139979601E+02  0.706204544E+00  0.999713465E+00
   H  0.137664447E+02  0.818512477E+00 -0.101766283E+01
     4
 # iter = 38000  time[fs]=38.00000
   C -0.290571959E+01 -0.620722359E-02 -0.107697026E+00
   C  0.289860294E+01  0.489379664E-02 -0.271032131E-01
   H -0.143573809E+02  0.723626845E+00  0.102673828E+01
   H  0.141142571E+02  0.838760506E+00 -0.104359785E+01
     4
 # iter = 38500  time[fs]=38.50000
   C -0.299595449E+01 -0.726594922E-02 -0.110127916E+00
   C  0.298728952E+01  0.410902773E-02 -0.263454351E-01
   H -0.147172189E+02  0.741070295E+00  0.105379890E+01
   H  0.144625016E+02  0.859034729E+00 -0.106956703E+01
     4
 # iter = 39000  time[fs]=39.00000
   C -0.308670826E+01 -0.832746555E-02 -0.112567757E+00
   C  0.307649376E+01  0.332328134E-02 -0.255788356E-01
   H -0.150774543E+02  0.758533935E+00  0.108089371E+01
   H  0.148111581E+02  0.879333981E+00 -0.109556886E+01
     4
 # iter = 39500  time[fs]=39.50000
   C -0.317795086E+01 -0.939162986E-02 -0.115016114E+00
   C  0.316618566E+01  0.253658018E-02 -0.248038387E-01
   H -0.154380689E+02  0.776016868E+00  0.110802121E+01
   H  0.151602078E+02  0.899657172E+00 -0.112160194E+01
     4
 # iter = 40000  time[fs]=40.00000
   C -0.326965462E+01 -0.104583101E-01 -0.117472583E+00
   C  0.325633757E+01  0.174894689E-02 -0.240208406E-01
   H -0.157990457E+02  0.793518259E+00  0.113517998E+01
   H  0.155096334E+02  0.920003283E+00 -0.114766496E+01
     4
 # iter = 40500  time[fs]=40.50000
   C -0.336179403E+01 -0.115273839E-01 -0.119936788E+00
   C  0.334692403E+01  0.960403953E-03 -0.232302120E-01
   H -0.161603686E+02  0.811037324E+00  0.116236870E+01
   H  0.158594184E+02  0.940371358E+00 -0.117375667E+01
     4
 # iter = 41000  time[fs]=41.00000
   C -0.345434551E+01 -0.125987376E-01 -0.122408374E+00
   C  0.343792149E+01  0.170973570E-03 -0.224322998E-01
   H -0.165220229E+02  0.828573329E+00  0.118958614E+01
   H  0.162095476E+02  0.960760500E+00 -0.119987594E+01
     4
 # iter = 41500  time[fs]=41.50000
   C -0.354728727E+01 -0.136722655E-01 -0.124887009E+00
   C  0.352930818E+01 -0.619322386E-03 -0.216274292E-01
   H -0.168839945E+02  0.846125587E+00  0.121683113E+01
   H  0.165600066E+02  0.981169868E+00 -0.122602166E+01
     4
 # iter = 42000  time[fs]=42.00000
   C -0.364059909E+01 -0.147478690E-01 -0.127372383E+00
   C  0.362106394E+01 -0.141046244E-02 -0.208159053E-01
   H -0.172462703E+02  0.863693449E+00  0.124410258E+01
   H  0.169107820E+02  0.100159867E+01 -0.125219281E+01
     4
 # iter = 42500  time[fs]=42.50000
   C -0.373426224E+01 -0.158254563E-01 -0.129864205E+00
   C  0.371317003E+01 -0.220242556E-02 -0.199980144E-01
   H -0.176088381E+02  0.881276306E+00  0.127139946E+01
   H  0.172618610E+02  0.102204615E+01 -0.127838842E+01
     4
 # iter = 43000  time[fs]=43.00000
   C -0.382825927E+01 -0.169049414E-01 -0.132362201E+00
   C  0.380560906E+01 -0.299519117E-02 -0.191740258E-01
   H -0.179716862E+02  0.898873585E+00  0.129872081E+01
   H  0.176132318E+02  0.104251162E+01 -0.130460759E+01
     4
 # iter = 43500  time[fs]=43.50000
   C -0.392257397E+01 -0.179862438E-01 -0.134866112E+00
   C  0.389836484E+01 -0.378873921E-02 -0.183441927E-01
   H -0.183348037E+02  0.916484743E+00  0.132606570E+01
   H  0.179648831E+02  0.106299441E+01 -0.133084945E+01
     4
 # iter = 44000  time[fs]=44.00000
   C -0.401719122E+01 -0.190692881E-01 -0.137375697E+00
   C  0.399142226E+01 -0.458305010E-02 -0.175087534E-01
   H -0.186981803E+02  0.934109270E+00  0.135343328E+01
   H  0.183168043E+02  0.108349388E+01 -0.135711319E+01
     4
 # iter = 44500  time[fs]=44.50000
   C -0.411209689E+01 -0.201540035E-01 -0.139890727E+00
   C  0.408476724E+01 -0.537810480E-02 -0.166679327E-01
   H -0.190618064E+02  0.951746683E+00  0.138082272E+01
   H  0.186689853E+02  0.110400945E+01 -0.138339803E+01
     4
 # iter = 45000  time[fs]=45.00000
   C -0.420727781E+01 -0.212403236E-01 -0.142410986E+00
   C  0.417838661E+01 -0.617388479E-02 -0.158219426E-01
   H -0.194256726E+02  0.969396523E+00  0.140823326E+01
   H  0.190214168E+02  0.112454055E+01 -0.140970324E+01
     4
 # iter = 45500  time[fs]=45.50000
   C -0.430272163E+01 -0.223281855E-01 -0.144936272E+00
   C  0.427226807E+01 -0.697037205E-02 -0.149709831E-01
   H -0.197897705E+02  0.987058357E+00  0.143566416E+01
   H  0.193740898E+02  0.114508665E+01 -0.143602814E+01
     4
 # iter = 46000  time[fs]=46.00000
   C -0.439841679E+01 -0.234175304E-01 -0.147466391E+00
   C  0.436640005E+01 -0.776754909E-02 -0.141152434E-01
   H -0.201540917E+02  0.100473177E+01  0.146311473E+01
   H  0.197269957E+02  0.116564723E+01 -0.146237206E+01
     4
 # iter = 46500  time[fs]=46.50000
   C -0.449435243E+01 -0.245083026E-01 -0.150001162E+00
   C  0.446077174E+01 -0.856539895E-02 -0.132549025E-01
   H -0.205186284E+02  0.102241639E+01  0.149058430E+01
   H  0.200801265E+02  0.118622182E+01 -0.148873437E+01
     4
 # iter = 47000  time[fs]=47.00000
   C -0.459051838E+01 -0.256004494E-01 -0.152540414E+00
   C  0.455537298E+01 -0.936390515E-02 -0.123901295E-01
   H -0.208833733E+02  0.104011182E+01  0.151807225E+01
   H  0.204334746E+02  0.120680997E+01 -0.151511448E+01
     4
 # iter = 47500  time[fs]=47.50000
   C -0.468690505E+01 -0.266939212E-01 -0.155083983E+00
   C  0.465019421E+01 -0.101630517E-01 -0.115210850E-01
   H -0.212483193E+02  0.105781772E+01  0.154557798E+01
   H  0.207870326E+02  0.122741122E+01 -0.154151183E+01
     4
 # iter = 48000  time[fs]=48.00000
   C -0.478350344E+01 -0.277886709E-01 -0.157631714E+00
   C  0.474522643E+01 -0.109628232E-01 -0.106479211E-01
   H -0.216134597E+02  0.107553376E+01  0.157310092E+01
   H  0.211407937E+02  0.124802518E+01 -0.156792587E+01
     4
 # iter = 48500  time[fs]=48.50000
   C -0.488030505E+01 -0.288846540E-01 -0.160183462E+00
   C  0.484046117E+01 -0.117632045E-01 -0.977078217E-02
   H -0.219787883E+02  0.109325961E+01  0.160064054E+01
   H  0.214947514E+02  0.126865144E+01 -0.159435608E+01
     4
 # iter = 49000  time[fs]=49.00000
   C -0.497730187E+01 -0.299818281E-01 -0.162739088E+00
   C  0.493589045E+01 -0.125641811E-01 -0.888980526E-02
   H -0.223442989E+02  0.111099497E+01  0.162819632E+01
   H  0.218488992E+02  0.128928963E+01 -0.162080199E+01
     4
 # iter = 49500  time[fs]=49.50000
   C -0.507448635E+01 -0.310801532E-01 -0.165298458E+00
   C  0.503150671E+01 -0.133657389E-01 -0.800512070E-02
   H -0.227099858E+02  0.112873955E+01  0.165576776E+01
   H  0.222032314E+02  0.130993938E+01 -0.164726311E+01
     4
 # iter = 50000  time[fs]=50.00000
   C -0.517185133E+01 -0.321795911E-01 -0.167861448E+00
   C  0.512730283E+01 -0.141678642E-01 -0.711685242E-02
   H -0.230758435E+02  0.114649307E+01  0.168335440E+01
   H  0.225577421E+02  0.133060036E+01 -0.167373899E+01
     4
 # iter = 50500  time[fs]=50.50000
   C -0.526939007E+01 -0.332801057E-01 -0.170427937E+00
   C  0.522327208E+01 -0.149705438E-01 -0.622511839E-02
   H -0.234418669E+02  0.116425527E+01  0.171095578E+01
   H  0.229124260E+02  0.135127223E+01 -0.170022922E+01
     4
 # iter = 51000  time[fs]=51.00000
   C -0.536709616E+01 -0.343816623E-01 -0.172997812E+00
   C  0.531940806E+01 -0.157737649E-01 -0.533003097E-02
   H -0.238080507E+02  0.118202589E+01  0.173857148E+01
   H  0.232672778E+02  0.137195467E+01 -0.172673338E+01
     4
 # iter = 51500  time[fs]=51.50000
   C -0.546496355E+01 -0.354842282E-01 -0.175570964E+00
   C  0.541570474E+01 -0.165775149E-01 -0.443169727E-02
   H -0.241743904E+02  0.119980470E+01  0.176620109E+01
   H  0.236222927E+02  0.139264740E+01 -0.175325107E+01
     4
 # iter = 52000  time[fs]=52.00000
   C -0.556298648E+01 -0.365877720E-01 -0.178147290E+00
   C  0.551215638E+01 -0.173817819E-01 -0.353021945E-02
   H -0.245408813E+02  0.121759145E+01  0.179384421E+01
   H  0.239774658E+02  0.141335012E+01 -0.177978193E+01
     4
 # iter = 52500  time[fs]=52.50000
   C -0.566115951E+01 -0.376922639E-01 -0.180726690E+00
   C  0.560875755E+01 -0.181865542E-01 -0.262569501E-02
   H -0.249075190E+02  0.123538593E+01  0.182150047E+01
   H  0.243327925E+02  0.143406255E+01 -0.180632558E+01
     4
 # iter = 53000  time[fs]=53.00000
   C -0.575947745E+01 -0.387976754E-01 -0.183309071E+00
   C  0.570550306E+01 -0.189918203E-01 -0.171821707E-02
   H -0.252742995E+02  0.125318792E+01  0.184916950E+01
   H  0.246882687E+02  0.145478443E+01 -0.183288168E+01
     4
 # iter = 53500  time[fs]=53.50000
   C -0.585793537E+01 -0.399039791E-01 -0.185894342E+00
   C  0.580238802E+01 -0.197975694E-01 -0.807874644E-03
   H -0.256412185E+02  0.127099722E+01  0.187685097E+01
   H  0.250438901E+02  0.147551550E+01 -0.185944990E+01
     4
 # iter = 54000  time[fs]=54.00000
   C -0.595652860E+01 -0.410111491E-01 -0.188482418E+00
   C  0.589940775E+01 -0.206037909E-01  0.105247177E-03
   H -0.260082724E+02  0.128881363E+01  0.190454453E+01
   H  0.253996526E+02  0.149625552E+01 -0.188602993E+01
     4
 # iter = 54500  time[fs]=54.50000
   C -0.605525266E+01 -0.421191605E-01 -0.191073215E+00
   C  0.599655779E+01 -0.214104742E-01  0.102106695E-02
   H -0.263754574E+02  0.130663697E+01  0.193224986E+01
   H  0.257555525E+02  0.151700426E+01 -0.191262144E+01
     4
 # iter = 55000  time[fs]=55.00000
   C -0.615410332E+01 -0.432279893E-01 -0.193666654E+00
   C  0.609383392E+01 -0.222176096E-01  0.193950672E-02
   H -0.267427700E+02  0.132446706E+01  0.195996667E+01
   H  0.261115861E+02  0.153776148E+01 -0.193922416E+01
     4
 # iter = 55500  time[fs]=55.50000
   C -0.625307651E+01 -0.443376127E-01 -0.196262661E+00
   C  0.619123209E+01 -0.230251872E-01  0.286049179E-02
   H -0.271102068E+02  0.134230371E+01  0.198769465E+01
   H  0.264677498E+02  0.155852698E+01 -0.196583779E+01
     4
 # iter = 56000  time[fs]=56.00000
   C -0.635216838E+01 -0.454480090E-01 -0.198861162E+00
   C  0.628874845E+01 -0.238331976E-01  0.378395057E-02
   H -0.274777645E+02  0.136014676E+01  0.201543352E+01
   H  0.268240403E+02  0.157930055E+01 -0.199246206E+01
     4
 # iter = 56500  time[fs]=56.50000
   C -0.645137523E+01 -0.465591569E-01 -0.201462088E+00
   C  0.638637932E+01 -0.246416317E-01  0.470981440E-02
   H -0.278454400E+02  0.137799606E+01  0.204318301E+01
   H  0.271804542E+02  0.160008197E+01 -0.201909671E+01
     4
 # iter = 57000  time[fs]=57.00000
   C -0.655069354E+01 -0.476710365E-01 -0.204065372E+00
   C  0.648412119E+01 -0.254504806E-01  0.563801741E-02
   H -0.282132302E+02  0.139585144E+01  0.207094286E+01
   H  0.275369885E+02  0.162087107E+01 -0.204574149E+01
     4
 # iter = 57500  time[fs]=57.50000
   C -0.665011994E+01 -0.487836282E-01 -0.206670951E+00
   C  0.658197069E+01 -0.262597357E-01  0.656849635E-02
   H -0.285811324E+02  0.141371276E+01  0.209871281E+01
   H  0.278936400E+02  0.164166765E+01 -0.207239615E+01
     4
 # iter = 58000  time[fs]=58.00000
   C -0.674965120E+01 -0.498969137E-01 -0.209278763E+00
   C  0.667992461E+01 -0.270693887E-01  0.750119047E-02
   H -0.289491436E+02  0.143157988E+01  0.212649262E+01
   H  0.282504060E+02  0.166247154E+01 -0.209906045E+01
     4
 # iter = 58500  time[fs]=58.50000
   C -0.684928425E+01 -0.510108749E-01 -0.211888748E+00
   C  0.677797989E+01 -0.278794314E-01  0.843604138E-02
   H -0.293172611E+02  0.144945265E+01  0.215428205E+01
   H  0.286072836E+02  0.168328256E+01 -0.212573417E+01
     4
 # iter = 59000  time[fs]=59.00000
   C -0.694901613E+01 -0.521254947E-01 -0.214500851E+00
   C  0.687613356E+01 -0.286898559E-01  0.937299295E-02
   H -0.296854825E+02  0.146733094E+01  0.218208088E+01
   H  0.289642700E+02  0.170410054E+01 -0.215241710E+01
     4
 # iter = 59500  time[fs]=59.50000
   C -0.704884401E+01 -0.532407566E-01 -0.217115016E+00
   C  0.697438282E+01 -0.295006547E-01  0.103119912E-01
   H -0.300538052E+02  0.148521462E+01  0.220988888E+01
   H  0.293213628E+02  0.172492532E+01 -0.217910901E+01
     4
 # iter = 60000  time[fs]=60.00000
   C -0.714876517E+01 -0.543566447E-01 -0.219731191E+00
   C  0.707272497E+01 -0.303118201E-01  0.112529841E-01
   H -0.304222267E+02  0.150310357E+01  0.223770585E+01
   H  0.296785593E+02  0.174575675E+01 -0.220580970E+01
     4
 # iter = 60500  time[fs]=60.50000
   C -0.724877703E+01 -0.554731436E-01 -0.222349325E+00
   C  0.717115739E+01 -0.311233451E-01  0.121959217E-01
   H -0.307907448E+02  0.152099767E+01  0.226553159E+01
   H  0.300358571E+02  0.176659468E+01 -0.223251898E+01
     4
 # iter = 61000  time[fs]=61.00000
   C -0.734887706E+01 -0.565902385E-01 -0.224969370E+00
   C  0.726967762E+01 -0.319352226E-01  0.131407557E-01
   H -0.311593572E+02  0.153889680E+01  0.229336589E+01
   H  0.303932539E+02  0.178743896E+01 -0.225923666E+01
     4
 # iter = 61500  time[fs]=61.50000
   C -0.744906289E+01 -0.577079152E-01 -0.227591278E+00
   C  0.736828325E+01 -0.327474457E-01  0.140874397E-01
   H -0.315280617E+02  0.155680084E+01  0.232120856E+01
   H  0.307507475E+02  0.180828945E+01 -0.228596255E+01
     4
 # iter = 62000  time[fs]=62.00000
   C -0.754933221E+01 -0.588261601E-01 -0.230215004E+00
   C  0.746697200E+01 -0.335600078E-01  0.150359289E-01
   H -0.318968563E+02  0.157470970E+01  0.234905942E+01
   H  0.311083356E+02  0.182914601E+01 -0.231269647E+01
     4
 # iter = 62500  time[fs]=62.50000
   C -0.764968280E+01 -0.599449597E-01 -0.232840505E+00
   C  0.756574165E+01 -0.343729025E-01  0.159861801E-01
   H -0.322657389E+02  0.159262327E+01  0.237691829E+01
   H  0.314660161E+02  0.185000852E+01 -0.233943825E+01
     4
 # iter = 63000  time[fs]=63.00000
   C -0.775011254E+01 -0.610643014E-01 -0.235467739E+00
   C  0.766459009E+01 -0.351861235E-01  0.169381517E-01
   H -0.326347075E+02  0.161054144E+01  0.240478501E+01
   H  0.318237870E+02  0.187087684E+01 -0.236618773E+01
     4
 # iter = 63500  time[fs]=63.50000
   C -0.785061938E+01 -0.621841728E-01 -0.238096665E+00
   C  0.776351527E+01 -0.359996647E-01  0.178918034E-01
   H -0.330037604E+02  0.162846411E+01  0.243265939E+01
   H  0.321816464E+02  0.189175086E+01 -0.239294473E+01
     4
 # iter = 64000  time[fs]=64.00000
   C -0.795120134E+01 -0.633045619E-01 -0.240727243E+00
   C  0.786251524E+01 -0.368135200E-01  0.188470964E-01
   H -0.333728955E+02  0.164639119E+01  0.246054128E+01
   H  0.325395922E+02  0.191263044E+01 -0.241970911E+01
     4
 # iter = 64500  time[fs]=64.50000
   C -0.805185653E+01 -0.644254572E-01 -0.243359435E+00
   C  0.796158809E+01 -0.376276838E-01  0.198039930E-01
   H -0.337421113E+02  0.166432260E+01  0.248843053E+01
   H  0.328976226E+02  0.193351549E+01 -0.244648071E+01
     4
 # iter = 65000  time[fs]=65.00000
   C -0.815258312E+01 -0.655468477E-01 -0.245993206E+00
   C  0.806073200E+01 -0.384421504E-01  0.207624572E-01
   H -0.341114058E+02  0.168225823E+01  0.251632698E+01
   H  0.332557360E+02  0.195440588E+01 -0.247325939E+01
     4
 # iter = 65500  time[fs]=65.50000
   C -0.825337934E+01 -0.666687223E-01 -0.248628520E+00
   C  0.815994523E+01 -0.392569142E-01  0.217224537E-01
   H -0.344807776E+02  0.170019800E+01  0.254423049E+01
   H  0.336139304E+02  0.197530151E+01 -0.250004499E+01
     4
 # iter = 66000  time[fs]=66.00000
   C -0.835424351E+01 -0.677910709E-01 -0.251265341E+00
   C  0.825922608E+01 -0.400719701E-01  0.226839486E-01
   H -0.348502249E+02  0.171814183E+01  0.257214090E+01
   H  0.339722042E+02  0.199620227E+01 -0.252683739E+01
     4
 # iter = 66500  time[fs]=66.50000
   C -0.845517397E+01 -0.689138832E-01 -0.253903639E+00
   C  0.835857291E+01 -0.408873126E-01  0.236469093E-01
   H -0.352197463E+02  0.173608964E+01  0.260005809E+01
   H  0.343305559E+02  0.201710806E+01 -0.255363645E+01
     4
 # iter = 67000  time[fs]=67.00000
   C -0.855616916E+01 -0.700371494E-01 -0.256543379E+00
   C  0.845798415E+01 -0.417029369E-01  0.246113038E-01
   H -0.355893402E+02  0.175404135E+01  0.262798192E+01
   H  0.346889838E+02  0.203801878E+01 -0.258044204E+01
     4
 # iter = 67500  time[fs]=67.50000
   C -0.865722754E+01 -0.711608601E-01 -0.259184531E+00
   C  0.855745828E+01 -0.425188379E-01  0.255771015E-01
   H -0.359590051E+02  0.177199688E+01  0.265591226E+01
   H  0.350474863E+02  0.205893433E+01 -0.260725403E+01
     4
 # iter = 68000  time[fs]=68.00000
   C -0.875834763E+01 -0.722850062E-01 -0.261827065E+00
   C  0.865699383E+01 -0.433350108E-01  0.265442726E-01
   H -0.363287396E+02  0.178995615E+01  0.268384897E+01
   H  0.354060621E+02  0.207985462E+01 -0.263407229E+01
     4
 # iter = 68500  time[fs]=68.50000
   C -0.885952802E+01 -0.734095786E-01 -0.264470953E+00
   C  0.875658938E+01 -0.441514510E-01  0.275127882E-01
   H -0.366985424E+02  0.180791910E+01  0.271179195E+01
   H  0.357647096E+02  0.210077956E+01 -0.266089672E+01
     4
 # iter = 69000  time[fs]=69.00000
   C -0.896076733E+01 -0.745345688E-01 -0.267116165E+00
   C  0.885624357E+01 -0.449681538E-01  0.284826205E-01
   H -0.370684121E+02  0.182588565E+01  0.273974107E+01
   H  0.361234274E+02  0.212170907E+01 -0.268772719E+01
     4
 # iter = 69500  time[fs]=69.50000
   C -0.906206423E+01 -0.756599685E-01 -0.269762674E+00
   C  0.895595505E+01 -0.457851148E-01  0.294537422E-01
   H -0.374383473E+02  0.184385574E+01  0.276769622E+01
   H  0.364822142E+02  0.214264305E+01 -0.271456358E+01
     4
 # iter = 70000  time[fs]=70.00000
   C -0.916341742E+01 -0.767857694E-01 -0.272410455E+00
   C  0.905572256E+01 -0.466023296E-01  0.304261272E-01
   H -0.378083469E+02  0.186182930E+01  0.279565727E+01
   H  0.368410687E+02  0.216358142E+01 -0.274140580E+01
     4
 # iter = 70500  time[fs]=70.50000
   C -0.926482567E+01 -0.779119638E-01 -0.275059480E+00
   C  0.915554486E+01 -0.474197941E-01  0.313997499E-01
   H -0.381784096E+02  0.187980626E+01  0.282362413E+01
   H  0.371999896E+02  0.218452410E+01 -0.276825373E+01
     4
 # iter = 71000  time[fs]=71.00000
   C -0.936628778E+01 -0.790385440E-01 -0.277709726E+00
   C  0.925542073E+01 -0.482375040E-01  0.323745856E-01
   H -0.385485342E+02  0.189778657E+01  0.285159668E+01
   H  0.375589756E+02  0.220547101E+01 -0.279510727E+01
     4
 # iter = 71500  time[fs]=71.50000
   C -0.946780256E+01 -0.801655025E-01 -0.280361167E+00
   C  0.935534903E+01 -0.490554552E-01  0.333506104E-01
   H -0.389187196E+02  0.191577015E+01  0.287957482E+01
   H  0.379180255E+02  0.222642208E+01 -0.282196632E+01
     4
 # iter = 72000  time[fs]=72.00000
   C -0.956936891E+01 -0.812928321E-01 -0.283013781E+00
   C  0.945532863E+01 -0.498736440E-01  0.343278008E-01
   H -0.392889646E+02  0.193375696E+01  0.290755846E+01
   H  0.382771382E+02  0.224737723E+01 -0.284883078E+01
     4
 # iter = 72500  time[fs]=72.50000
   C -0.967098571E+01 -0.824205259E-01 -0.285667545E+00
   C  0.955535843E+01 -0.506920663E-01  0.353061344E-01
   H -0.396592681E+02  0.195174694E+01  0.293554748E+01
   H  0.386363124E+02  0.226833639E+01 -0.287570055E+01
     4
 # iter = 73000  time[fs]=73.00000
   C -0.977265191E+01 -0.835485770E-01 -0.288322436E+00
   C  0.965543738E+01 -0.515107185E-01  0.362855891E-01
   H -0.400296291E+02  0.196974002E+01  0.296354181E+01
   H  0.389955471E+02  0.228929948E+01 -0.290257554E+01
     4
 # iter = 73500  time[fs]=73.50000
   C -0.987436649E+01 -0.846769788E-01 -0.290978433E+00
   C  0.975556446E+01 -0.523295969E-01  0.372661435E-01
   H -0.404000465E+02  0.198773616E+01  0.299154134E+01
   H  0.393548412E+02  0.231026645E+01 -0.292945566E+01
     4
 # iter = 74000  time[fs]=74.00000
   C -0.997612845E+01 -0.858057248E-01 -0.293635516E+00
   C  0.985573867E+01 -0.531486979E-01  0.382477770E-01
   H -0.407705193E+02  0.200573529E+01  0.301954598E+01
   H  0.397141936E+02  0.233123721E+01 -0.295634083E+01
     4
 # iter = 74500  time[fs]=74.50000
   C -0.100779368E+02 -0.869348089E-01 -0.296293662E+00
   C  0.995595906E+01 -0.539680179E-01  0.392304693E-01
   H -0.411410466E+02  0.202373738E+01  0.304755565E+01
   H  0.400736033E+02  0.235221172E+01 -0.298323095E+01
     4
 # iter = 75000  time[fs]=75.00000
   C -0.101797907E+02 -0.880642248E-01 -0.298952854E+00
   C  0.100562247E+02 -0.547875536E-01  0.402142008E-01
   H -0.415116274E+02  0.204174236E+01  0.307557025E+01
   H  0.404330693E+02  0.237318989E+01 -0.301012594E+01
     4
 # iter = 75500  time[fs]=75.50000
   C -0.102816890E+02 -0.891939667E-01 -0.301613071E+00
   C  0.101565346E+02 -0.556073017E-01  0.411989525E-01
   H -0.418822606E+02  0.205975019E+01  0.310358972E+01
   H  0.407925906E+02  0.239417168E+01 -0.303702572E+01
     4
 # iter = 76000  time[fs]=76.00000
   C -0.103836311E+02 -0.903240289E-01 -0.304274296E+00
   C  0.102568880E+02 -0.564272587E-01  0.421847057E-01
   H -0.422529456E+02  0.207776083E+01  0.313161395E+01
   H  0.411521662E+02  0.241515701E+01 -0.306393021E+01
     4
 # iter = 76500  time[fs]=76.50000
   C -0.104856160E+02 -0.914544056E-01 -0.306936509E+00
   C  0.103572840E+02 -0.572474217E-01  0.431714424E-01
   H -0.426236812E+02  0.209577422E+01  0.315964288E+01
   H  0.415117953E+02  0.243614584E+01 -0.309083934E+01
     4
 # iter = 77000  time[fs]=77.00000
   C -0.105876429E+02 -0.925850914E-01 -0.309599692E+00
   C  0.104577218E+02 -0.580677873E-01  0.441591450E-01
   H -0.429944668E+02  0.211379031E+01  0.318767643E+01
   H  0.418714769E+02  0.245713810E+01 -0.311775302E+01
     4
 # iter = 77500  time[fs]=77.50000
   C -0.106897110E+02 -0.937160810E-01 -0.312263830E+00
   C  0.105582006E+02 -0.588883527E-01  0.451477965E-01
   H -0.433653014E+02  0.213180907E+01  0.321571452E+01
   H  0.422312102E+02  0.247813374E+01 -0.314467118E+01
     4
 # iter = 78000  time[fs]=78.00000
   C -0.107918194E+02 -0.948473692E-01 -0.314928905E+00
   C  0.106587195E+02 -0.597091147E-01  0.461373801E-01
   H -0.437361843E+02  0.214983045E+01  0.324375708E+01
   H  0.425909943E+02  0.249913270E+01 -0.317159375E+01
     4
 # iter = 78500  time[fs]=78.50000
   C -0.108939675E+02 -0.959789509E-01 -0.317594900E+00
   C  0.107592778E+02 -0.605300705E-01  0.471278795E-01
   H -0.441071145E+02  0.216785441E+01  0.327180403E+01
   H  0.429508283E+02  0.252013493E+01 -0.319852066E+01
     4
 # iter = 79000  time[fs]=79.00000
   C -0.109961545E+02 -0.971108211E-01 -0.320261799E+00
   C  0.108598748E+02 -0.613512172E-01  0.481192791E-01
   H -0.444780915E+02  0.218588090E+01  0.329985531E+01
   H  0.433107114E+02  0.254114038E+01 -0.322545185E+01
     4
 # iter = 79500  time[fs]=79.50000
   C -0.110983796E+02 -0.982429752E-01 -0.322929588E+00
   C  0.109605098E+02 -0.621725520E-01  0.491115633E-01
   H -0.448491143E+02  0.220390989E+01  0.332791084E+01
   H  0.436706429E+02  0.256214900E+01 -0.325238723E+01
     4
 # iter = 80000  time[fs]=80.00000
   C -0.112006422E+02 -0.993754084E-01 -0.325598250E+00
   C  0.110611820E+02 -0.629940722E-01  0.501047171E-01
   H -0.452201823E+02  0.222194134E+01  0.335597056E+01
   H  0.440306219E+02  0.258316073E+01 -0.327932675E+01
