     4
 # iter = 25000  time[fs]=25.00000
   C -0.976706683E+00  0.447288285E-01 -0.591849363E-01
   C  0.967529789E+00 -0.610854743E-02  0.802860200E-02
   H -0.526020251E+01 -0.639039680E+00 -0.419974119E+00
   H  0.520817949E+01  0.537767999E+00  0.428099000E+00
     4
 # iter = 25500  time[fs]=25.50000
   C -0.102110904E+01  0.481860916E-01 -0.596985682E-01
   C  0.100778300E+01 -0.788554746E-02  0.735603729E-02
   H -0.558758027E+01 -0.680352491E+00 -0.444318806E+00
   H  0.552152128E+01  0.572801595E+00  0.455195325E+00
     4
 # iter = 26000  time[fs]=26.00000
   C -0.106852956E+01  0.517653732E-01 -0.603038295E-01
   C  0.105105191E+01 -0.977240147E-02  0.676938019E-02
   H -0.592032595E+01 -0.722416489E+00 -0.469089470E+00
   H  0.584026077E+01  0.608440403E+00  0.482786288E+00
     4
 # iter = 26500  time[fs]=26.50000
   C -0.111872190E+01  0.554592791E-01 -0.609894856E-01
   C  0.109708942E+01 -0.117633130E-01  0.625789324E-02
   H -0.625784245E+01 -0.765148038E+00 -0.494238318E+00
   H  0.616380948E+01  0.644619959E+00  0.510818131E+00
     4
 # iter = 27000  time[fs]=27.00000
   C -0.117145492E+01  0.592607035E-01 -0.617456112E-01
   C  0.114566398E+01 -0.138524895E-01  0.581209617E-02
   H -0.659962189E+01 -0.808476292E+00 -0.519724835E+00
   H  0.649166475E+01  0.681285181E+00  0.539244999E+00
     4
 # iter = 27500  time[fs]=27.50000
   C -0.122651429E+01  0.631628510E-01 -0.625635096E-01
   C  0.119656102E+01 -0.160342266E-01  0.542369018E-02
   H -0.694522946E+01 -0.852340786E+00 -0.545514432E+00
   H  0.682339466E+01  0.718388691E+00  0.568027526E+00
     4
 # iter = 28000  time[fs]=28.00000
   C -0.128370299E+01  0.671592615E-01 -0.634356032E-01
   C  0.124958340E+01 -0.183029780E-01  0.508545360E-02
   H -0.729429066E+01 -0.896689551E+00 -0.571577383E+00
   H  0.715862594E+01  0.755889490E+00  0.597131718E+00
     4
 # iter = 28500  time[fs]=28.50000
   C -0.134284105E+01  0.712438294E-01 -0.643553132E-01
   C  0.130455116E+01 -0.206534111E-01  0.479112633E-02
   H -0.764648102E+01 -0.941477632E+00 -0.597887984E+00
   H  0.749703427E+01  0.793751893E+00  0.626528045E+00
     4
 # iter = 29000  time[fs]=29.00000
   C -0.140376483E+01  0.754108150E-01 -0.653169396E-01
   C  0.136130070E+01 -0.230804441E-01  0.453529407E-02
   H -0.800151790E+01 -0.986665901E+00 -0.624423879E+00
   H  0.783833640E+01  0.831944673E+00  0.656190723E+00
     4
 # iter = 29500  time[fs]=29.50000
   C -0.146632598E+01  0.796548464E-01 -0.663155480E-01
   C  0.141968377E+01 -0.255792705E-01  0.431327882E-02
   H -0.835915387E+01 -0.103222012E+01 -0.651165516E+00
   H  0.818228377E+01  0.870440370E+00  0.686097122E+00
     4
 # iter = 30000  time[fs]=30.00000
   C -0.153039034E+01  0.839709152E-01 -0.673468660E-01
   C  0.147956630E+01 -0.281453698E-01  0.412103903E-02
   H -0.871917122E+01 -0.107811016E+01 -0.678095712E+00
   H  0.852865726E+01  0.909214717E+00  0.716227289E+00
     4
 # iter = 30500  time[fs]=30.50000
   C -0.159583664E+01  0.883543655E-01 -0.684071911E-01
   C  0.154082719E+01 -0.307745105E-01  0.395508063E-02
   H -0.908137756E+01 -0.112430939E+01 -0.705199293E+00
   H  0.887726287E+01  0.948246179E+00  0.746563551E+00
     4
 # iter = 31000  time[fs]=31.00000
   C -0.166255538E+01  0.928008786E-01 -0.694933108E-01
   C  0.160335707E+01 -0.334627449E-01  0.381237911E-02
   H -0.944560214E+01 -0.117079418E+01 -0.732462798E+00
   H  0.922792814E+01  0.987515565E+00  0.777090190E+00
     4
 # iter = 31500  time[fs]=31.50000
   C -0.173044765E+01  0.973064555E-01 -0.706024323E-01
   C  0.166705718E+01 -0.362064002E-01  0.369031208E-02
   H -0.981169281E+01 -0.121754344E+01 -0.759874239E+00
   H  0.958049915E+01  0.102700570E+01  0.807793170E+00
     4
 # iter = 32000  time[fs]=32.00000
   C -0.179942407E+01  0.101867397E+00 -0.717321224E-01
   C  0.173183827E+01 -0.390020653E-01  0.358660133E-02
   H -0.101795135E+02 -0.126453829E+01 -0.787422892E+00
   H  0.993483805E+01  0.106670118E+01  0.838659913E+00
     4
 # iter = 32500  time[fs]=32.50000
   C -0.186940379E+01  0.106480284E+00 -0.728802569E-01
   C  0.179761965E+01 -0.418465766E-01  0.349926326E-02
   H -0.105489420E+02 -0.131176178E+01 -0.815099138E+00
   H  0.102908210E+02  0.110658811E+01  0.869679108E+00
     4
 # iter = 33000  time[fs]=33.00000
   C -0.194031360E+01  0.111141956E+00 -0.740449762E-01
   C  0.186432825E+01 -0.447370026E-01  0.342656674E-02
   H -0.109198683E+02 -0.135919862E+01 -0.842894308E+00
   H  0.106483362E+02  0.114665392E+01  0.900840546E+00
     4
 # iter = 33500  time[fs]=33.50000
   C -0.201208716E+01  0.115849495E+00 -0.752246483E-01
   C  0.193189786E+01 -0.476706276E-01  0.336699725E-02
   H -0.112921930E+02 -0.140683497E+01 -0.870800574E+00
   H  0.110072827E+02  0.118688725E+01  0.932134990E+00
     4
 # iter = 34000  time[fs]=34.00000
   C -0.208466421E+01  0.120600202E+00 -0.764178373E-01
   C  0.200026835E+01 -0.506449361E-01  0.331922638E-02
   H -0.116658261E+02 -0.145465828E+01 -0.898810839E+00
   H  0.113675688E+02  0.122727773E+01  0.963554052E+00
     4
 # iter = 34500  time[fs]=34.50000
   C -0.215798999E+01  0.125391581E+00 -0.776232766E-01
   C  0.206938507E+01 -0.536575983E-01  0.328208604E-02
   H -0.120406855E+02 -0.150265714E+01 -0.926918651E+00
   H  0.117291112E+02  0.126781593E+01  0.995090098E+00
     4
 # iter = 35000  time[fs]=35.00000
   C -0.223201460E+01  0.130221323E+00 -0.788398456E-01
   C  0.213919826E+01 -0.567064547E-01  0.325454646E-02
   H -0.124166969E+02 -0.155082113E+01 -0.955118131E+00
   H  0.120918339E+02  0.130849323E+01  0.102673616E+01
     4
 # iter = 35500  time[fs]=35.50000
   C -0.230669255E+01  0.135087292E+00 -0.800665506E-01
   C  0.220966253E+01 -0.597895035E-01  0.323569748E-02
   H -0.127937919E+02 -0.159914072E+01 -0.983403906E+00
   H  0.124556674E+02  0.134930171E+01  0.105848586E+01
     4
 # iter = 36000  time[fs]=36.00000
   C -0.238198227E+01  0.139987507E+00 -0.813025080E-01
   C  0.228073642E+01 -0.629048872E-01  0.322473265E-02
   H -0.131719081E+02 -0.164760715E+01 -0.101177105E+01
   H  0.128205480E+02  0.139023412E+01  0.109033335E+01
     4
 # iter = 36500  time[fs]=36.50000
   C -0.245784572E+01  0.144920129E+00 -0.825469301E-01
   C  0.235238198E+01 -0.660508812E-01  0.322093565E-02
   H -0.135509883E+02 -0.169621241E+01 -0.104021506E+01
   H  0.131864173E+02  0.143128377E+01  0.112227326E+01
     4
 # iter = 37000  time[fs]=37.00000
   C -0.253424802E+01  0.149883455E+00 -0.837991131E-01
   C  0.242456442E+01 -0.692258828E-01  0.322366865E-02
   H -0.139309798E+02 -0.174494908E+01 -0.106873175E+01
   H  0.135532213E+02  0.147244450E+01  0.115430064E+01
     4
 # iter = 37500  time[fs]=37.50000
   C -0.261115714E+01  0.154875898E+00 -0.850584264E-01
   C  0.249725182E+01 -0.724284016E-01  0.323236239E-02
   H -0.143118339E+02 -0.179381033E+01 -0.109731730E+01
   H  0.139209105E+02  0.151371060E+01  0.118641090E+01
     4
 # iter = 38000  time[fs]=38.00000
   C -0.268854364E+01  0.159895984E+00 -0.863243038E-01
   C  0.257041480E+01 -0.756570497E-01  0.324650762E-02
   H -0.146935057E+02 -0.184278985E+01 -0.112596817E+01
   H  0.142894389E+02  0.155507680E+01  0.121859983E+01
     4
 # iter = 38500  time[fs]=38.50000
   C -0.276638038E+01  0.164942341E+00 -0.875962357E-01
   C  0.264402632E+01 -0.789105340E-01  0.326564775E-02
   H -0.150759538E+02 -0.189188177E+01 -0.115468106E+01
   H  0.146587640E+02  0.159653819E+01  0.125086350E+01
     4
 # iter = 39000  time[fs]=39.00000
   C -0.284464234E+01  0.170013687E+00 -0.888737623E-01
   C  0.271806141E+01 -0.821876480E-01  0.328937251E-02
   H -0.154591396E+02 -0.194108066E+01 -0.118345294E+01
   H  0.150288465E+02  0.163809024E+01  0.128319828E+01
     4
 # iter = 39500  time[fs]=39.50000
   C -0.292330638E+01  0.175108828E+00 -0.901564682E-01
   C  0.279249701E+01 -0.854872654E-01  0.331731249E-02
   H -0.158430274E+02 -0.199038147E+01 -0.121228098E+01
   H  0.153996498E+02  0.167972870E+01  0.131560079E+01
     4
 # iter = 40000  time[fs]=40.00000
   C -0.300235109E+01  0.180226648E+00 -0.914439768E-01
   C  0.286731179E+01 -0.888083331E-01  0.334913435E-02
   H -0.162275838E+02 -0.203977947E+01 -0.124116254E+01
   H  0.157711397E+02  0.172144962E+01  0.134806787E+01
     4
 # iter = 40500  time[fs]=40.50000
   C -0.308175663E+01  0.185366103E+00 -0.927359466E-01
   C  0.294248596E+01 -0.921498658E-01  0.338453673E-02
   H -0.166127778E+02 -0.208927029E+01 -0.127009517E+01
   H  0.161432845E+02  0.176324932E+01  0.138059659E+01
     4
 # iter = 41000  time[fs]=41.00000
   C -0.316150457E+01  0.190526214E+00 -0.940320665E-01
   C  0.301800115E+01 -0.955109409E-01  0.342324664E-02
   H -0.169985805E+02 -0.213884980E+01 -0.129907659E+01
   H  0.165160546E+02  0.180512433E+01  0.141318420E+01
     4
 # iter = 41500  time[fs]=41.50000
   C -0.324157781E+01  0.195706067E+00 -0.953320534E-01
   C  0.309384032E+01 -0.988906928E-01  0.346501633E-02
   H -0.173849649E+02 -0.218851417E+01 -0.132810463E+01
   H  0.168894223E+02  0.184707143E+01  0.144582813E+01
     4
 # iter = 42000  time[fs]=42.00000
   C -0.332196040E+01  0.200904800E+00 -0.966356488E-01
   C  0.316998756E+01 -0.102288310E+00  0.350962056E-02
   H -0.177719057E+02 -0.223825979E+01 -0.135717731E+01
   H  0.172633615E+02  0.188908760E+01  0.147852598E+01
     4
 # iter = 42500  time[fs]=42.50000
   C -0.340263749E+01  0.206121607E+00 -0.979426160E-01
   C  0.324642808E+01 -0.105703028E+00  0.355685419E-02
   H -0.181593791E+02 -0.228808329E+01 -0.138629273E+01
   H  0.176378480E+02  0.193116998E+01  0.151127549E+01
     4
 # iter = 43000  time[fs]=43.00000
   C -0.348359521E+01  0.211355729E+00 -0.992527383E-01
   C  0.332314807E+01 -0.109134131E+00  0.360653007E-02
   H -0.185473628E+02 -0.233798149E+01 -0.141544913E+01
   H  0.180128590E+02  0.197331590E+01  0.154407453E+01
     4
 # iter = 43500  time[fs]=43.50000
   C -0.356482063E+01  0.216606450E+00 -0.100565817E+00
   C  0.340013461E+01 -0.112580944E+00  0.365847718E-02
   H -0.189358360E+02 -0.238795140E+01 -0.144464486E+01
   H  0.183883729E+02  0.201552284E+01  0.157692111E+01
     4
 # iter = 44000  time[fs]=44.00000
   C -0.364630161E+01  0.221873099E+00 -0.101881669E+00
   C  0.347737563E+01 -0.116042828E+00  0.371253900E-02
   H -0.193247789E+02 -0.243799021E+01 -0.147387835E+01
   H  0.187643697E+02  0.205778843E+01  0.160981336E+01
     4
 # iter = 44500  time[fs]=44.50000
   C -0.372802680E+01  0.227155041E+00 -0.103200127E+00
   C  0.355485982E+01 -0.119519186E+00  0.376857205E-02
   H -0.197141731E+02 -0.248809528E+01 -0.150314812E+01
   H  0.191408302E+02  0.210011042E+01  0.164274950E+01
     4
 # iter = 45000  time[fs]=45.00000
   C -0.380998556E+01  0.232451676E+00 -0.104521034E+00
   C  0.363257658E+01 -0.123009449E+00  0.382644464E-02
   H -0.201040010E+02 -0.253826409E+01 -0.153245279E+01
   H  0.195177366E+02  0.214248672E+01  0.167572787E+01
     4
 # iter = 45500  time[fs]=45.50000
   C -0.389216790E+01  0.237762439E+00 -0.105844248E+00
   C  0.371051593E+01 -0.126513084E+00  0.388603567E-02
   H -0.204942462E+02 -0.258849428E+01 -0.156179104E+01
   H  0.198950719E+02  0.218491530E+01  0.170874688E+01
     4
 # iter = 46000  time[fs]=46.00000
   C -0.397456442E+01  0.243086795E+00 -0.107169637E+00
   C  0.378866853E+01 -0.130029583E+00  0.394723368E-02
   H -0.208848931E+02 -0.263878362E+01 -0.159116164E+01
   H  0.202728202E+02  0.222739430E+01  0.174180504E+01
     4
 # iter = 46500  time[fs]=46.50000
   C -0.405716628E+01  0.248424238E+00 -0.108497076E+00
   C  0.386702557E+01 -0.133558468E+00  0.400993593E-02
   H -0.212759270E+02 -0.268912998E+01 -0.162056342E+01
   H  0.206509663E+02  0.226992190E+01  0.177490095E+01
     4
 # iter = 47000  time[fs]=47.00000
   C -0.413996516E+01  0.253774289E+00 -0.109826454E+00
   C  0.394557875E+01 -0.137099285E+00  0.407404756E-02
   H -0.216673338E+02 -0.273953136E+01 -0.164999526E+01
   H  0.210294959E+02  0.231249642E+01  0.180803325E+01
     4
 # iter = 47500  time[fs]=47.50000
   C -0.422295321E+01  0.259136492E+00 -0.111157664E+00
   C  0.402432026E+01 -0.140651604E+00  0.413948094E-02
   H -0.220591005E+02 -0.278998585E+01 -0.167945610E+01
   H  0.214083954E+02  0.235511624E+01  0.184120069E+01
     4
 # iter = 48000  time[fs]=48.00000
   C -0.430612303E+01  0.264510418E+00 -0.112490607E+00
   C  0.410324272E+01 -0.144215017E+00  0.420615494E-02
   H -0.224512144E+02 -0.284049165E+01 -0.170894496E+01
   H  0.217876519E+02  0.239777983E+01  0.187440206E+01
     4
 # iter = 48500  time[fs]=48.50000
   C -0.438946762E+01  0.269895657E+00 -0.113825193E+00
   C  0.418233916E+01 -0.147789137E+00  0.427399445E-02
   H -0.228436636E+02 -0.289104704E+01 -0.173846088E+01
   H  0.221672532E+02  0.244048573E+01  0.190763621E+01
     4
 # iter = 49000  time[fs]=49.00000
   C -0.447298035E+01  0.275291820E+00 -0.115161336E+00
   C  0.426160299E+01 -0.151373595E+00  0.434292977E-02
   H -0.232364368E+02 -0.294165038E+01 -0.176800295E+01
   H  0.225471877E+02  0.248323256E+01  0.194090206E+01
     4
 # iter = 49500  time[fs]=49.50000
   C -0.455665499E+01  0.280698536E+00 -0.116498957E+00
   C  0.434102798E+01 -0.154968042E+00  0.441289619E-02
   H -0.236295234E+02 -0.299230012E+01 -0.179757033E+01
   H  0.229274443E+02  0.252601900E+01  0.197419857E+01
     4
 # iter = 50000  time[fs]=50.00000
   C -0.464048559E+01  0.286115456E+00 -0.117837981E+00
   C  0.442060822E+01 -0.158572144E+00  0.448383359E-02
   H -0.240229129E+02 -0.304299478E+01 -0.182716219E+01
   H  0.233080125E+02  0.256884379E+01  0.200752475E+01
     4
 # iter = 50500  time[fs]=50.50000
   C -0.472446653E+01  0.291542243E+00 -0.119178340E+00
   C  0.450033811E+01 -0.162185584E+00  0.455568599E-02
   H -0.244165958E+02 -0.309373294E+01 -0.185677775E+01
   H  0.236888823E+02  0.261170574E+01  0.204087967E+01
     4
 # iter = 51000  time[fs]=51.00000
   C -0.480859249E+01  0.296978578E+00 -0.120519968E+00
   C  0.458021234E+01 -0.165808060E+00  0.462840128E-02
   H -0.248105626E+02 -0.314451327E+01 -0.188641628E+01
   H  0.240700442E+02  0.265460369E+01  0.207426242E+01
     4
 # iter = 51500  time[fs]=51.50000
   C -0.489285839E+01  0.302424156E+00 -0.121862804E+00
   C  0.466022587E+01 -0.169439283E+00  0.470193086E-02
   H -0.252048046E+02 -0.319533446E+01 -0.191607706E+01
   H  0.244514891E+02  0.269753657E+01  0.210767216E+01
     4
 # iter = 52000  time[fs]=52.00000
   C -0.497725944E+01  0.307878689E+00 -0.123206791E+00
   C  0.474037392E+01 -0.173078980E+00  0.477622939E-02
   H -0.255993133E+02 -0.324619531E+01 -0.194575941E+01
   H  0.248332082E+02  0.274050332E+01  0.214110806E+01
     4
 # iter = 52500  time[fs]=52.50000
   C -0.506179106E+01  0.313341897E+00 -0.124551877E+00
   C  0.482065191E+01 -0.176726886E+00  0.485125451E-02
   H -0.259940806E+02 -0.329709462E+01 -0.197546270E+01
   H  0.252151932E+02  0.278350295E+01  0.217456935E+01
     4
 # iter = 53000  time[fs]=53.00000
   C -0.514644888E+01  0.318813516E+00 -0.125898009E+00
   C  0.490105552E+01 -0.180382751E+00  0.492696660E-02
   H -0.263890988E+02 -0.334803128E+01 -0.200518631E+01
   H  0.255974363E+02  0.282653450E+01  0.220805528E+01
     4
 # iter = 53500  time[fs]=53.50000
   C -0.523122877E+01  0.324293294E+00 -0.127245142E+00
   C  0.498158062E+01 -0.184046336E+00  0.500332862E-02
   H -0.267843605E+02 -0.339900421E+01 -0.203492963E+01
   H  0.259799298E+02  0.286959707E+01  0.224156513E+01
     4
 # iter = 54000  time[fs]=54.00000
   C -0.531612677E+01  0.329780987E+00 -0.128593230E+00
   C  0.506222328E+01 -0.187717410E+00  0.508030586E-02
   H -0.271798586E+02 -0.345001239E+01 -0.206469211E+01
   H  0.263626664E+02  0.291268976E+01  0.227509822E+01
     4
 # iter = 54500  time[fs]=54.50000
   C -0.540113912E+01  0.335276363E+00 -0.129942232E+00
   C  0.514297974E+01 -0.191395755E+00  0.515786579E-02
   H -0.275755864E+02 -0.350105482E+01 -0.209447321E+01
   H  0.267456393E+02  0.295581175E+01  0.230865390E+01
     4
 # iter = 55000  time[fs]=55.00000
   C -0.548626223E+01  0.340779202E+00 -0.131292107E+00
   C  0.522384641E+01 -0.195081159E+00  0.523597789E-02
   H -0.279715374E+02 -0.355213057E+01 -0.212427240E+01
   H  0.271288417E+02  0.299896222E+01  0.234223153E+01
     4
 # iter = 55500  time[fs]=55.50000
   C -0.557149264E+01  0.346289289E+00 -0.132642820E+00
   C  0.530481989E+01 -0.198773422E+00  0.531461352E-02
   H -0.283677054E+02 -0.360323871E+01 -0.215408918E+01
   H  0.275122673E+02  0.304214041E+01  0.237583051E+01
     4
 # iter = 56000  time[fs]=56.00000
   C -0.565682709E+01  0.351806421E+00 -0.133994333E+00
   C  0.538589691E+01 -0.202472349E+00  0.539374576E-02
   H -0.287640844E+02 -0.365437839E+01 -0.218392309E+01
   H  0.278959098E+02  0.308534558E+01  0.240945027E+01
     4
 # iter = 56500  time[fs]=56.50000
   C -0.574226245E+01  0.357330402E+00 -0.135346615E+00
   C  0.546707433E+01 -0.206177757E+00  0.547334931E-02
   H -0.291606686E+02 -0.370554876E+01 -0.221377365E+01
   H  0.282797636E+02  0.312857701E+01  0.244309025E+01
     4
 # iter = 57000  time[fs]=57.00000
   C -0.582779570E+01  0.362861045E+00 -0.136699633E+00
   C  0.554834918E+01 -0.209889466E+00  0.555340036E-02
   H -0.295574527E+02 -0.375674901E+01 -0.224364044E+01
   H  0.286638228E+02  0.317183401E+01  0.247674991E+01
     4
 # iter = 57500  time[fs]=57.50000
   C -0.591342397E+01  0.368398169E+00 -0.138053357E+00
   C  0.562971859E+01 -0.213607307E+00  0.563387649E-02
   H -0.299544313E+02 -0.380797839E+01 -0.227352301E+01
   H  0.290480820E+02  0.321511593E+01  0.251042875E+01
     4
 # iter = 58000  time[fs]=58.00000
   C -0.599914452E+01  0.373941600E+00 -0.139407760E+00
   C  0.571117983E+01 -0.217331115E+00  0.571475658E-02
   H -0.303515993E+02 -0.385923614E+01 -0.230342097E+01
   H  0.294325362E+02  0.325842213E+01  0.254412627E+01
     4
 # iter = 58500  time[fs]=58.50000
   C -0.608495470E+01  0.379491173E+00 -0.140762815E+00
   C  0.579273026E+01 -0.221060731E+00  0.579602072E-02
   H -0.307489519E+02 -0.391052154E+01 -0.233333393E+01
   H  0.298171801E+02  0.330175201E+01  0.257784199E+01
     4
 # iter = 59000  time[fs]=59.00000
   C -0.617085200E+01  0.385046726E+00 -0.142118496E+00
   C  0.587436738E+01 -0.224796006E+00  0.587765012E-02
   H -0.311464844E+02 -0.396183391E+01 -0.236326151E+01
   H  0.302020090E+02  0.334510497E+01  0.261157546E+01
     4
 # iter = 59500  time[fs]=59.50000
   C -0.625683397E+01  0.390608107E+00 -0.143474778E+00
   C  0.595608876E+01 -0.228536792E+00  0.595962705E-02
   H -0.315441922E+02 -0.401317258E+01 -0.239320333E+01
   H  0.305870183E+02  0.338848045E+01  0.264532623E+01
     4
 # iter = 60000  time[fs]=60.00000
   C -0.634289831E+01  0.396175166E+00 -0.144831640E+00
   C  0.603789210E+01 -0.232282949E+00  0.604193475E-02
   H -0.319420710E+02 -0.406453692E+01 -0.242315906E+01
   H  0.309722034E+02  0.343187790E+01  0.267909389E+01
     4
 # iter = 60500  time[fs]=60.50000
   C -0.642904276E+01  0.401747760E+00 -0.146189059E+00
   C  0.611977515E+01 -0.236034342E+00  0.612455741E-02
   H -0.323401166E+02 -0.411592630E+01 -0.245312836E+01
   H  0.313575601E+02  0.347529680E+01  0.271287802E+01
     4
 # iter = 61000  time[fs]=61.00000
   C -0.651526519E+01  0.407325754E+00 -0.147547015E+00
   C  0.620173580E+01 -0.239790841E+00  0.620748004E-02
   H -0.327383249E+02 -0.416734013E+01 -0.248311090E+01
   H  0.317430842E+02  0.351873664E+01  0.274667823E+01
     4
 # iter = 61500  time[fs]=61.50000
   C -0.660156352E+01  0.412909012E+00 -0.148905488E+00
   C  0.628377197E+01 -0.243552319E+00  0.629068847E-02
   H -0.331366921E+02 -0.421877784E+01 -0.251310636E+01
   H  0.321287716E+02  0.356219693E+01  0.278049415E+01
     4
 # iter = 62000  time[fs]=62.00000
   C -0.668793578E+01  0.418497408E+00 -0.150264458E+00
   C  0.636588170E+01 -0.247318657E+00  0.637416929E-02
   H -0.335352144E+02 -0.427023887E+01 -0.254311445E+01
   H  0.325146186E+02  0.360567720E+01  0.281432539E+01
     4
 # iter = 62500  time[fs]=62.50000
   C -0.677438004E+01  0.424090819E+00 -0.151623909E+00
   C  0.644806308E+01 -0.251089736E+00  0.645790981E-02
   H -0.339338881E+02 -0.432172269E+01 -0.257313486E+01
   H  0.329006213E+02  0.364917699E+01  0.284817161E+01
     4
 # iter = 63000  time[fs]=63.00000
   C -0.686089448E+01  0.429689125E+00 -0.152983824E+00
   C  0.653031428E+01 -0.254865446E+00  0.654189796E-02
   H -0.343327098E+02 -0.437322878E+01 -0.260316733E+01
   H  0.332867762E+02  0.369269585E+01  0.288203247E+01
     4
 # iter = 63500  time[fs]=63.50000
   C -0.694747732E+01  0.435292211E+00 -0.154344185E+00
   C  0.661263354E+01 -0.258645675E+00  0.662612234E-02
   H -0.347316761E+02 -0.442475663E+01 -0.263321157E+01
   H  0.336730798E+02  0.373623337E+01  0.291590763E+01
     4
 # iter = 64000  time[fs]=64.00000
   C -0.703412686E+01  0.440899967E+00 -0.155704978E+00
   C  0.669501916E+01 -0.262430320E+00  0.671057212E-02
   H -0.351307836E+02 -0.447630577E+01 -0.266326732E+01
   H  0.340595286E+02  0.377978912E+01  0.294979678E+01
     4
 # iter = 64500  time[fs]=64.50000
   C -0.712084144E+01  0.446512285E+00 -0.157066188E+00
   C  0.677746950E+01 -0.266219279E+00  0.679523700E-02
   H -0.355300293E+02 -0.452787573E+01 -0.269333433E+01
   H  0.344461196E+02  0.382336271E+01  0.298369960E+01
     4
 # iter = 65000  time[fs]=65.00000
   C -0.720761949E+01  0.452129062E+00 -0.158427800E+00
   C  0.685998298E+01 -0.270012454E+00  0.688010722E-02
   H -0.359294100E+02 -0.457946605E+01 -0.272341234E+01
   H  0.348328494E+02  0.386695376E+01  0.301761580E+01
     4
 # iter = 65500  time[fs]=65.50000
   C -0.729445948E+01  0.457750197E+00 -0.159789801E+00
   C  0.694255809E+01 -0.273809750E+00  0.696517351E-02
   H -0.363289229E+02 -0.463107630E+01 -0.275350113E+01
   H  0.352197151E+02  0.391056188E+01  0.305154508E+01
     4
 # iter = 66000  time[fs]=66.00000
   C -0.738135992E+01  0.463375593E+00 -0.161152179E+00
   C  0.702519334E+01 -0.277611076E+00  0.705042705E-02
   H -0.367285649E+02 -0.468270605E+01 -0.278360045E+01
   H  0.356067138E+02  0.395418672E+01  0.308548717E+01
     4
 # iter = 66500  time[fs]=66.50000
   C -0.746831939E+01  0.469005158E+00 -0.162514920E+00
   C  0.710788733E+01 -0.281416341E+00  0.713585944E-02
   H -0.371283335E+02 -0.473435490E+01 -0.281371009E+01
   H  0.359938424E+02  0.399782792E+01  0.311944180E+01
     4
 # iter = 67000  time[fs]=67.00000
   C -0.755533652E+01  0.474638799E+00 -0.163878013E+00
   C  0.719063869E+01 -0.285225462E+00  0.722146271E-02
   H -0.375282258E+02 -0.478602244E+01 -0.284382983E+01
   H  0.363810984E+02  0.404148515E+01  0.315340869E+01
     4
 # iter = 67500  time[fs]=67.50000
   C -0.764240998E+01  0.480276430E+00 -0.165241447E+00
   C  0.727344608E+01 -0.289038353E+00  0.730722927E-02
   H -0.379282393E+02 -0.483770828E+01 -0.287395946E+01
   H  0.367684790E+02  0.408515807E+01  0.318738761E+01
     4
 # iter = 68000  time[fs]=68.00000
   C -0.772953847E+01  0.485917964E+00 -0.166605210E+00
   C  0.735630823E+01 -0.292854936E+00  0.739315188E-02
   H -0.383283714E+02 -0.488941206E+01 -0.290409877E+01
   H  0.371559816E+02  0.412884637E+01  0.322137829E+01
     4
 # iter = 68500  time[fs]=68.50000
   C -0.781672077E+01  0.491563321E+00 -0.167969294E+00
   C  0.743922390E+01 -0.296675132E+00  0.747922367E-02
   H -0.387286197E+02 -0.494113342E+01 -0.293424756E+01
   H  0.375436038E+02  0.417254974E+01  0.325538050E+01
     4
 # iter = 69000  time[fs]=69.00000
   C -0.790395566E+01  0.497212419E+00 -0.169333686E+00
   C  0.752219190E+01 -0.300498865E+00  0.756543805E-02
   H -0.391289819E+02 -0.499287199E+01 -0.296440566E+01
   H  0.379313430E+02  0.421626787E+01  0.328939400E+01
     4
 # iter = 69500  time[fs]=69.50000
   C -0.799124199E+01  0.502865182E+00 -0.170698378E+00
   C  0.760521108E+01 -0.304326061E+00  0.765178879E-02
   H -0.395294557E+02 -0.504462744E+01 -0.299457286E+01
   H  0.383191969E+02  0.426000047E+01  0.332341858E+01
     4
 # iter = 70000  time[fs]=70.00000
   C -0.807857862E+01  0.508521534E+00 -0.172063361E+00
   C  0.768828030E+01 -0.308156651E+00  0.773826991E-02
   H -0.399300387E+02 -0.509639944E+01 -0.302474898E+01
   H  0.387071633E+02  0.430374726E+01  0.335745401E+01
     4
 # iter = 70500  time[fs]=70.50000
   C -0.816596447E+01  0.514181403E+00 -0.173428626E+00
   C  0.777139848E+01 -0.311990565E+00  0.782487572E-02
   H -0.403307289E+02 -0.514818767E+01 -0.305493387E+01
   H  0.390952398E+02  0.434750796E+01  0.339150008E+01
     4
 # iter = 71000  time[fs]=71.00000
   C -0.825339849E+01  0.519844717E+00 -0.174794165E+00
   C  0.785456458E+01 -0.315827736E+00  0.791160079E-02
   H -0.407315241E+02 -0.519999180E+01 -0.308512733E+01
   H  0.394834243E+02  0.439128231E+01  0.342555659E+01
     4
 # iter = 71500  time[fs]=71.50000
   C -0.834087965E+01  0.525511409E+00 -0.176159969E+00
   C  0.793777758E+01 -0.319668099E+00  0.799843993E-02
   H -0.411324224E+02 -0.525181155E+01 -0.311532922E+01
   H  0.398717148E+02  0.443507005E+01  0.345962333E+01
     4
 # iter = 72000  time[fs]=72.00000
   C -0.842840696E+01  0.531181412E+00 -0.177526030E+00
   C  0.802103649E+01 -0.323511591E+00  0.808538820E-02
   H -0.415334216E+02 -0.530364661E+01 -0.314553936E+01
   H  0.402601092E+02  0.447887093E+01  0.349370010E+01
     4
 # iter = 72500  time[fs]=72.50000
   C -0.851597945E+01  0.536854661E+00 -0.178892341E+00
   C  0.810434036E+01 -0.327358151E+00  0.817244085E-02
   H -0.419345200E+02 -0.535549669E+01 -0.317575760E+01
   H  0.406486054E+02  0.452268469E+01  0.352778673E+01
     4
 # iter = 73000  time[fs]=73.00000
   C -0.860359621E+01  0.542531093E+00 -0.180258895E+00
   C  0.818768826E+01 -0.331207720E+00  0.825959337E-02
   H -0.423357155E+02 -0.540736152E+01 -0.320598380E+01
   H  0.410372017E+02  0.456651110E+01  0.356188302E+01
     4
 # iter = 73500  time[fs]=73.50000
   C -0.869125633E+01  0.548210648E+00 -0.181625685E+00
   C  0.827107929E+01 -0.335060239E+00  0.834684144E-02
   H -0.427370065E+02 -0.545924083E+01 -0.323621780E+01
   H  0.414258960E+02  0.461034993E+01  0.359598880E+01
     4
 # iter = 74000  time[fs]=74.00000
   C -0.877895892E+01  0.553893265E+00 -0.182992704E+00
   C  0.835451257E+01 -0.338915653E+00  0.843418092E-02
   H -0.431383911E+02 -0.551113436E+01 -0.326645945E+01
   H  0.418146867E+02  0.465420095E+01  0.363010389E+01
     4
 # iter = 74500  time[fs]=74.50000
   C -0.886670315E+01  0.559578888E+00 -0.184359946E+00
   C  0.843798727E+01 -0.342773908E+00  0.852160786E-02
   H -0.435398677E+02 -0.556304183E+01 -0.329670863E+01
   H  0.422035719E+02  0.469806395E+01  0.366422812E+01
     4
 # iter = 75000  time[fs]=75.00000
   C -0.895448817E+01  0.565267460E+00 -0.185727404E+00
   C  0.852150256E+01 -0.346634949E+00  0.860911848E-02
   H -0.439414344E+02 -0.561496302E+01 -0.332696519E+01
   H  0.425925498E+02  0.474193870E+01  0.369836133E+01
     4
 # iter = 75500  time[fs]=75.50000
   C -0.904231320E+01  0.570958928E+00 -0.187095073E+00
   C  0.860505765E+01 -0.350498726E+00  0.869670916E-02
   H -0.443430898E+02 -0.566689766E+01 -0.335722901E+01
   H  0.429816189E+02  0.478582501E+01  0.373250336E+01
     4
 # iter = 76000  time[fs]=76.00000
   C -0.913017746E+01  0.576653236E+00 -0.188462947E+00
   C  0.868865175E+01 -0.354365188E+00  0.878437642E-02
   H -0.447448322E+02 -0.571884554E+01 -0.338749994E+01
   H  0.433707774E+02  0.482972266E+01  0.376665405E+01
     4
 # iter = 76500  time[fs]=76.50000
   C -0.921808018E+01  0.582350336E+00 -0.189831019E+00
   C  0.877228412E+01 -0.358234287E+00  0.887211697E-02
   H -0.451466601E+02 -0.577080640E+01 -0.341777788E+01
   H  0.437600239E+02  0.487363147E+01  0.380081326E+01
     4
 # iter = 77000  time[fs]=77.00000
   C -0.930602063E+01  0.588050175E+00 -0.191199286E+00
   C  0.885595402E+01 -0.362105975E+00  0.895992760E-02
   H -0.455485719E+02 -0.582278004E+01 -0.344806269E+01
   H  0.441493567E+02  0.491755123E+01  0.383498082E+01
     4
 # iter = 77500  time[fs]=77.50000
   C -0.939399810E+01  0.593752705E+00 -0.192567741E+00
   C  0.893966074E+01 -0.365980205E+00  0.904780528E-02
   H -0.459505663E+02 -0.587476623E+01 -0.347835426E+01
   H  0.445387743E+02  0.496148176E+01  0.386915660E+01
     4
 # iter = 78000  time[fs]=78.00000
   C -0.948201190E+01  0.599457879E+00 -0.193936380E+00
   C  0.902340360E+01 -0.369856933E+00  0.913574709E-02
   H -0.463526418E+02 -0.592676475E+01 -0.350865247E+01
   H  0.449282754E+02  0.500542288E+01  0.390334045E+01
     4
 # iter = 78500  time[fs]=78.50000
   C -0.957006133E+01  0.605165649E+00 -0.195305198E+00
   C  0.910718192E+01 -0.373736115E+00  0.922375023E-02
   H -0.467547969E+02 -0.597877541E+01 -0.353895721E+01
   H  0.453178583E+02  0.504937441E+01  0.393753225E+01
     4
 # iter = 79000  time[fs]=79.00000
   C -0.965814576E+01  0.610875972E+00 -0.196674190E+00
   C  0.919099504E+01 -0.377617708E+00  0.931181201E-02
   H -0.471570304E+02 -0.603079799E+01 -0.356926837E+01
   H  0.457075219E+02  0.509333617E+01  0.397173185E+01
     4
 # iter = 79500  time[fs]=79.50000
   C -0.974626454E+01  0.616588803E+00 -0.198043352E+00
   C  0.927484233E+01 -0.381501670E+00  0.939992986E-02
   H -0.475593409E+02 -0.608283230E+01 -0.359958584E+01
   H  0.460972646E+02  0.513730801E+01  0.400593912E+01
     4
 # iter = 80000  time[fs]=80.00000
   C -0.983441705E+01  0.622304098E+00 -0.199412679E+00
   C  0.935872316E+01 -0.385387961E+00  0.948810131E-02
   H -0.479617272E+02 -0.613487815E+01 -0.362990952E+01
   H  0.464870852E+02  0.518128974E+01  0.404015395E+01
