     4
 # iter = 25000  time[fs]=25.00000
   C -0.100111692E+01 -0.185102694E-01  0.259028932E-01
   C  0.990020255E+00 -0.641859268E-01 -0.324486254E-01
   H -0.531681453E+01  0.189058445E+00  0.494847071E+00
   H  0.535517195E+01  0.551935491E+00 -0.433995451E+00
     4
 # iter = 25500  time[fs]=25.50000
   C -0.104767835E+01 -0.196432323E-01  0.256878596E-01
   C  0.103264386E+01 -0.688770702E-01 -0.313009817E-01
   H -0.565241789E+01  0.200488192E+00  0.526239301E+00
   H  0.567330732E+01  0.586539985E+00 -0.459209450E+00
     4
 # iter = 26000  time[fs]=26.00000
   C -0.109723196E+01 -0.207257579E-01  0.255391419E-01
   C  0.107824242E+01 -0.736921414E-01 -0.302235040E-01
   H -0.599327118E+01  0.212133204E+00  0.558149857E+00
   H  0.599689926E+01  0.621811101E+00 -0.484895573E+00
     4
 # iter = 26500  time[fs]=26.50000
   C -0.114952802E+01 -0.217596190E-01  0.254466923E-01
   C  0.112656630E+01 -0.786213619E-01 -0.292054938E-01
   H -0.633878652E+01  0.223968711E+00  0.590520301E+00
   H  0.632535876E+01  0.657677539E+00 -0.511003192E+00
     4
 # iter = 27000  time[fs]=27.00000
   C -0.120433381E+01 -0.227469514E-01  0.254018556E-01
   C  0.117738316E+01 -0.836557874E-01 -0.282377780E-01
   H -0.668846455E+01  0.235973825E+00  0.623301159E+00
   H  0.665818204E+01  0.694078486E+00 -0.537489047E+00
     4
 # iter = 27500  time[fs]=27.50000
   C -0.126143470E+01 -0.236900983E-01  0.253972389E-01
   C  0.123047889E+01 -0.887872425E-01 -0.273125468E-01
   H -0.704187826E+01  0.248130793E+00  0.656450233E+00
   H  0.699493565E+01  0.730961707E+00 -0.564315942E+00
     4
 # iter = 28000  time[fs]=28.00000
   C -0.132063424E+01 -0.245914951E-01  0.254265634E-01
   C  0.128565769E+01 -0.940082624E-01 -0.264231833E-01
   H -0.739866019E+01  0.260424415E+00  0.689931291E+00
   H  0.733524457E+01  0.768282051E+00 -0.591451704E+00
     4
 # iter = 28500  time[fs]=28.50000
   C -0.138175365E+01 -0.254535869E-01  0.254845177E-01
   C  0.134274144E+01 -0.993120381E-01 -0.255640989E-01
   H -0.775849231E+01  0.272841589E+00  0.723713022E+00
   H  0.767878256E+01  0.806000253E+00 -0.618868347E+00
     4
 # iter = 29000  time[fs]=29.00000
   C -0.144463084E+01 -0.262787713E-01  0.255666187E-01
   C  0.140156877E+01 -0.104692364E+00 -0.247305821E-01
   H -0.812109780E+01  0.285370953E+00  0.757768213E+00
   H  0.802526443E+01  0.844081974E+00 -0.646541400E+00
     4
 # iter = 29500  time[fs]=29.50000
   C -0.150911923E+01 -0.270693602E-01  0.256690871E-01
   C  0.146199380E+01 -0.110143586E+00 -0.239186633E-01
   H -0.848623449E+01  0.298002597E+00  0.792073077E+00
   H  0.837443961E+01  0.882497033E+00 -0.674449357E+00
     4
 # iter = 30000  time[fs]=30.00000
   C -0.157508648E+01 -0.278275561E-01  0.257887378E-01
   C  0.152388485E+01 -0.115660557E+00 -0.231249985E-01
   H -0.885368943E+01  0.310727830E+00  0.826606717E+00
   H  0.872608699E+01  0.921218768E+00 -0.702573230E+00
     4
 # iter = 30500  time[fs]=30.50000
   C -0.164241320E+01 -0.285554386E-01  0.259228852E-01
   C  0.158712320E+01 -0.121238587E+00 -0.223467682E-01
   H -0.922327459E+01  0.323538992E+00  0.861350687E+00
   H  0.908001064E+01  0.960223525E+00 -0.730896182E+00
     4
 # iter = 31000  time[fs]=31.00000
   C -0.171099167E+01 -0.292549587E-01  0.260692633E-01
   C  0.165160176E+01 -0.126873404E+00 -0.215815926E-01
   H -0.959482316E+01  0.336429302E+00  0.896288630E+00
   H  0.943603618E+01  0.999490225E+00 -0.759403217E+00
     4
 # iter = 31500  time[fs]=31.50000
   C -0.178072471E+01 -0.299279381E-01  0.262259575E-01
   C  0.171722395E+01 -0.132561113E+00 -0.208274605E-01
   H -0.996818656E+01  0.349392732E+00  0.931405982E+00
   H  0.979400788E+01  0.103900001E+01 -0.788080932E+00
     4
 # iter = 32000  time[fs]=32.00000
   C -0.185152455E+01 -0.305760714E-01  0.263913476E-01
   C  0.178390255E+01 -0.138298158E+00 -0.200826689E-01
   H -0.103432320E+02  0.362423897E+00  0.966689723E+00
   H  0.101537861E+02  0.107873596E+01 -0.816917301E+00
     4
 # iter = 32500  time[fs]=32.50000
   C -0.192331185E+01 -0.312009317E-01  0.265640607E-01
   C  0.185155877E+01 -0.144081294E+00 -0.193457736E-01
   H -0.107198403E+02  0.375517975E+00  0.100212817E+01
   H  0.105152454E+02  0.111868281E+01 -0.845901496E+00
     4
 # iter = 33000  time[fs]=33.00000
   C -0.199601479E+01 -0.318039764E-01  0.267429308E-01
   C  0.192012129E+01 -0.149907554E+00 -0.186155472E-01
   H -0.110979041E+02  0.388670626E+00  0.103771080E+01
   H  0.108782724E+02  0.115882677E+01 -0.875023737E+00
     4
 # iter = 33500  time[fs]=33.50000
   C -0.206956831E+01 -0.323865546E-01  0.269269667E-01
   C  0.198952551E+01 -0.155774219E+00 -0.178909447E-01
   H -0.114773266E+02  0.401877937E+00  0.107342812E+01
   H  0.112427644E+02  0.119915534E+01 -0.904275163E+00
     4
 # iter = 34000  time[fs]=34.00000
   C -0.214391331E+01 -0.329499142E-01  0.271153233E-01
   C  0.205971279E+01 -0.161678798E+00 -0.171710747E-01
   H -0.118580200E+02  0.415136364E+00  0.110927152E+01
   H  0.116086286E+02  0.123965715E+01 -0.933647722E+00
     4
 # iter = 34500  time[fs]=34.50000
   C -0.221899609E+01 -0.334952091E-01  0.273072797E-01
   C  0.213062983E+01 -0.167619007E+00 -0.164551754E-01
   H -0.122399046E+02  0.428442691E+00  0.114523316E+01
   H  0.119757801E+02  0.128032183E+01 -0.963134078E+00
     4
 # iter = 35000  time[fs]=35.00000
   C -0.229476774E+01 -0.340235069E-01  0.275022194E-01
   C  0.220222812E+01 -0.173592742E+00 -0.157425945E-01
   H -0.126229076E+02  0.441793987E+00  0.118130591E+01
   H  0.123441415E+02  0.132113990E+01 -0.992727528E+00
     4
 # iter = 35500  time[fs]=35.50000
   C -0.237118363E+01 -0.345357950E-01  0.276996145E-01
   C  0.227446338E+01 -0.179598071E+00 -0.150327726E-01
   H -0.130069628E+02  0.455187581E+00  0.121748327E+01
   H  0.127136423E+02  0.136210267E+01 -0.102242194E+01
     4
 # iter = 36000  time[fs]=36.00000
   C -0.244820301E+01 -0.350329877E-01  0.278990123E-01
   C  0.234729521E+01 -0.185633208E+00 -0.143252291E-01
   H -0.133920094E+02  0.468621026E+00  0.125375925E+01
   H  0.130842175E+02  0.140320216E+01 -0.105221166E+01
     4
 # iter = 36500  time[fs]=36.50000
   C -0.252578854E+01 -0.355159317E-01  0.281000241E-01
   C  0.242068659E+01 -0.191696509E+00 -0.136195505E-01
   H -0.137779916E+02  0.482092076E+00  0.129012839E+01
   H  0.134558075E+02  0.144443101E+01 -0.108209153E+01
     4
 # iter = 37000  time[fs]=37.00000
   C -0.260390600E+01 -0.359854118E-01  0.283023156E-01
   C  0.249460362E+01 -0.197786451E+00 -0.129153807E-01
   H -0.141648582E+02  0.495598670E+00  0.132658563E+01
   H  0.138283574E+02  0.148578245E+01 -0.111205676E+01
     4
 # iter = 37500  time[fs]=37.50000
   C -0.268252399E+01 -0.364421562E-01  0.285055993E-01
   C  0.256901514E+01 -0.203901625E+00 -0.122124124E-01
   H -0.145525618E+02  0.509138906E+00  0.136312633E+01
   H  0.142018167E+02  0.152725020E+01 -0.114210293E+01
     4
 # iter = 38000  time[fs]=38.00000
   C -0.276161357E+01 -0.368868411E-01  0.287096274E-01
   C  0.264389252E+01 -0.210040726E+00 -0.115103804E-01
   H -0.149410590E+02  0.522711028E+00  0.139974619E+01
   H  0.145761384E+02  0.156882847E+01 -0.117222596E+01
     4
 # iter = 38500  time[fs]=38.50000
   C -0.284114812E+01 -0.373200950E-01  0.289141865E-01
   C  0.271920936E+01 -0.216202539E+00 -0.108090555E-01
   H -0.153303092E+02  0.536313414E+00  0.143644123E+01
   H  0.149512791E+02  0.161051185E+01 -0.120242205E+01
     4
 # iter = 39000  time[fs]=39.00000
   C -0.292110305E+01 -0.377425025E-01  0.291190924E-01
   C  0.279494132E+01 -0.222385938E+00 -0.101082395E-01
   H -0.157202750E+02  0.549944558E+00  0.147320777E+01
   H  0.153271987E+02  0.165229535E+01 -0.123268770E+01
     4
 # iter = 39500  time[fs]=39.50000
   C -0.300145563E+01 -0.381546083E-01  0.293241863E-01
   C  0.287106589E+01 -0.228589872E+00 -0.940776088E-02
   H -0.161109218E+02  0.563603063E+00  0.151004236E+01
   H  0.157038596E+02  0.169417429E+01 -0.126301962E+01
     4
 # iter = 40000  time[fs]=40.00000
   C -0.308218482E+01 -0.385569200E-01  0.295293314E-01
   C  0.294756223E+01 -0.234813364E+00 -0.870747127E-02
   H -0.165022171E+02  0.577287630E+00  0.154694183E+01
   H  0.160812271E+02  0.173614434E+01 -0.129341475E+01
     4
 # iter = 40500  time[fs]=40.50000
   C -0.316327111E+01 -0.389499115E-01  0.297344097E-01
   C  0.302441104E+01 -0.241055500E+00 -0.800724228E-02
   H -0.168941308E+02  0.590997050E+00  0.158390320E+01
   H  0.164592687E+02  0.177820142E+01 -0.132387026E+01
     4
 # iter = 41000  time[fs]=41.00000
   C -0.324469639E+01 -0.393340254E-01  0.299393195E-01
   C  0.310159438E+01 -0.247315427E+00 -0.730696282E-02
   H -0.172866348E+02  0.604730191E+00  0.162092370E+01
   H  0.168379539E+02  0.182034173E+01 -0.135438347E+01
     4
 # iter = 41500  time[fs]=41.50000
   C -0.332644382E+01 -0.397096758E-01  0.301439732E-01
   C  0.317909560E+01 -0.253592346E+00 -0.660653688E-02
   H -0.176797029E+02  0.618486000E+00  0.165800071E+01
   H  0.172172546E+02  0.186256172E+01 -0.138495189E+01
     4
 # iter = 42000  time[fs]=42.00000
   C -0.340849771E+01 -0.400772502E-01  0.303482959E-01
   C  0.325689918E+01 -0.259885509E+00 -0.590588149E-02
   H -0.180733104E+02  0.632263490E+00  0.169513183E+01
   H  0.175971440E+02  0.190485804E+01 -0.141557318E+01
     4
 # iter = 42500  time[fs]=42.50000
   C -0.349084345E+01 -0.404371118E-01  0.305522228E-01
   C  0.333499065E+01 -0.266194214E+00 -0.520492510E-02
   H -0.184674344E+02  0.646061734E+00  0.173231475E+01
   H  0.179775972E+02  0.194722756E+01 -0.144624516E+01
     4
 # iter = 43000  time[fs]=43.00000
   C -0.357346738E+01 -0.407896013E-01  0.307556990E-01
   C  0.341335651E+01 -0.272517803E+00 -0.450360609E-02
   H -0.188620532E+02  0.659879866E+00  0.176954736E+01
   H  0.183585909E+02  0.198966734E+01 -0.147696575E+01
     4
 # iter = 43500  time[fs]=43.50000
   C -0.365635675E+01 -0.411350387E-01  0.309586775E-01
   C  0.349198414E+01 -0.278855656E+00 -0.380187150E-02
   H -0.192571465E+02  0.673717070E+00  0.180682762E+01
   H  0.187401031E+02  0.203217459E+01 -0.150773302E+01
     4
 # iter = 44000  time[fs]=44.00000
   C -0.373949962E+01 -0.414737247E-01  0.311611182E-01
   C  0.357086174E+01 -0.285207192E+00 -0.309967598E-02
   H -0.196526952E+02  0.687572579E+00  0.184415366E+01
   H  0.191221130E+02  0.207474670E+01 -0.153854514E+01
     4
 # iter = 44500  time[fs]=44.50000
   C -0.382288479E+01 -0.418059421E-01  0.313629874E-01
   C  0.364997825E+01 -0.291571860E+00 -0.239698080E-02
   H -0.200486814E+02  0.701445671E+00  0.188152368E+01
   H  0.195046013E+02  0.211738120E+01 -0.156940039E+01
     4
 # iter = 45000  time[fs]=45.00000
   C -0.390650178E+01 -0.421319575E-01  0.315642568E-01
   C  0.372932329E+01 -0.297949143E+00 -0.169375304E-02
   H -0.204450880E+02  0.715335665E+00  0.191893601E+01
   H  0.198875493E+02  0.216007576E+01 -0.160029713E+01
     4
 # iter = 45500  time[fs]=45.50000
   C -0.399034072E+01 -0.424520221E-01  0.317649028E-01
   C  0.380888711E+01 -0.304338553E+00 -0.989964879E-03
   H -0.208418991E+02  0.729241919E+00  0.195638906E+01
   H  0.202709399E+02  0.220282817E+01 -0.163123383E+01
     4
 # iter = 46000  time[fs]=46.00000
   C -0.407439234E+01 -0.427663727E-01  0.319649059E-01
   C  0.388866057E+01 -0.310739629E+00 -0.285592974E-03
   H -0.212390996E+02  0.743163826E+00  0.199388132E+01
   H  0.206547565E+02  0.224563634E+01 -0.166220904E+01
     4
 # iter = 46500  time[fs]=46.50000
   C -0.415864794E+01 -0.430752331E-01  0.321642503E-01
   C  0.396863503E+01 -0.317151934E+00  0.419382104E-03
   H -0.216366752E+02  0.757100811E+00  0.203141137E+01
   H  0.210389837E+02  0.228849831E+01 -0.169322137E+01
     4
 # iter = 47000  time[fs]=47.00000
   C -0.424309928E+01 -0.433788149E-01  0.323629234E-01
   C  0.404880238E+01 -0.323575055E+00  0.112497633E-02
   H -0.220346122E+02  0.771052332E+00  0.206897787E+01
   H  0.214236066E+02  0.233141219E+01 -0.172426952E+01
     4
 # iter = 47500  time[fs]=47.50000
   C -0.432773862E+01 -0.436773180E-01  0.325609151E-01
   C  0.412915497E+01 -0.330008601E+00  0.183120267E-02
   H -0.224328980E+02  0.785017874E+00  0.210657954E+01
   H  0.218086115E+02  0.237437620E+01 -0.175535226E+01
     4
 # iter = 48000  time[fs]=48.00000
   C -0.441255864E+01 -0.439709319E-01  0.327582182E-01
   C  0.420968557E+01 -0.336452201E+00  0.253807141E-02
   H -0.228315204E+02  0.798996948E+00  0.214421517E+01
   H  0.221939849E+02  0.241738865E+01 -0.178646840E+01
     4
 # iter = 48500  time[fs]=48.50000
   C -0.449755244E+01 -0.442598359E-01  0.329548272E-01
   C  0.429038736E+01 -0.342905503E+00  0.324559051E-02
   H -0.232304677E+02  0.812989090E+00  0.218188361E+01
   H  0.225797145E+02  0.246044795E+01 -0.181761682E+01
     4
 # iter = 49000  time[fs]=49.00000
   C -0.458271347E+01 -0.445442004E-01  0.331507388E-01
   C  0.437125387E+01 -0.349368172E+00  0.395376587E-02
   H -0.236297290E+02  0.826993861E+00  0.221958376E+01
   H  0.229657881E+02  0.250355254E+01 -0.184879647E+01
     4
 # iter = 49500  time[fs]=49.50000
   C -0.466803554E+01 -0.448241866E-01  0.333459510E-01
   C  0.445227900E+01 -0.355839891E+00  0.466260160E-02
   H -0.240292940E+02  0.841010841E+00  0.225731460E+01
   H  0.233521945E+02  0.254670099E+01 -0.188000633E+01
     4
 # iter = 50000  time[fs]=50.00000
   C -0.475351281E+01 -0.450999480E-01  0.335404635E-01
   C  0.453345695E+01 -0.362320357E+00  0.537210021E-02
   H -0.244291526E+02  0.855039632E+00  0.229507512E+01
   H  0.237389228E+02  0.258989190E+01 -0.191124543E+01
     4
 # iter = 50500  time[fs]=50.50000
   C -0.483913969E+01 -0.453716304E-01  0.337342771E-01
   C  0.461478226E+01 -0.368809284E+00  0.608226284E-02
   H -0.248292955E+02  0.869079854E+00  0.233286439E+01
   H  0.241259627E+02  0.263312395E+01 -0.194251286E+01
     4
 # iter = 51000  time[fs]=51.00000
   C -0.492491093E+01 -0.456393723E-01  0.339273938E-01
   C  0.469624969E+01 -0.375306396E+00  0.679308939E-02
   H -0.252297135E+02  0.883131147E+00  0.237068150E+01
   H  0.245133044E+02  0.267639588E+01 -0.197380774E+01
     4
 # iter = 51500  time[fs]=51.50000
   C -0.501082150E+01 -0.459033057E-01  0.341198165E-01
   C  0.477785432E+01 -0.381811433E+00  0.750457873E-02
   H -0.256303982E+02  0.897193164E+00  0.240852560E+01
   H  0.249009386E+02  0.271970647E+01 -0.200512923E+01
     4
 # iter = 52000  time[fs]=52.00000
   C -0.509686666E+01 -0.461635562E-01  0.343115487E-01
   C  0.485959143E+01 -0.388324146E+00  0.821672876E-02
   H -0.260313414E+02  0.911265577E+00  0.244639587E+01
   H  0.252888562E+02  0.276305458E+01 -0.203647654E+01
     4
 # iter = 52500  time[fs]=52.50000
   C -0.518304186E+01 -0.464202437E-01  0.345025950E-01
   C  0.494145657E+01 -0.394844296E+00  0.892953660E-02
   H -0.264325351E+02  0.925348071E+00  0.248429152E+01
   H  0.256770488E+02  0.280643911E+01 -0.206784888E+01
     4
 # iter = 53000  time[fs]=53.00000
   C -0.526934280E+01 -0.466734822E-01  0.346929603E-01
   C  0.502344547E+01 -0.401371657E+00  0.964299864E-02
   H -0.268339719E+02  0.939440346E+00  0.252221181E+01
   H  0.260655081E+02  0.284985899E+01 -0.209924555E+01
     4
 # iter = 53500  time[fs]=53.50000
   C -0.535576537E+01 -0.469233810E-01  0.348826502E-01
   C  0.510555409E+01 -0.407906011E+00  0.103571107E-01
   H -0.272356447E+02  0.953542114E+00  0.256015602E+01
   H  0.264542264E+02  0.289331322E+01 -0.213066583E+01
     4
 # iter = 54000  time[fs]=54.00000
   C -0.544230566E+01 -0.471700439E-01  0.350716707E-01
   C  0.518777856E+01 -0.414447150E+00  0.110718679E-01
   H -0.276375466E+02  0.967653100E+00  0.259812346E+01
   H  0.268431961E+02  0.293680083E+01 -0.216210905E+01
     4
 # iter = 54500  time[fs]=54.50000
   C -0.552895993E+01 -0.474135704E-01  0.352600280E-01
   C  0.527011520E+01 -0.420994877E+00  0.117872652E-01
   H -0.280396711E+02  0.981773041E+00  0.263611348E+01
   H  0.272324102E+02  0.298032089E+01 -0.219357457E+01
     4
 # iter = 55000  time[fs]=55.00000
   C -0.561572461E+01 -0.476540558E-01  0.354477290E-01
   C  0.535256050E+01 -0.427549000E+00  0.125032970E-01
   H -0.284420118E+02  0.995901684E+00  0.267412545E+01
   H  0.276218616E+02  0.302387251E+01 -0.222506178E+01
     4
 # iter = 55500  time[fs]=55.50000
   C -0.570259631E+01 -0.478915908E-01  0.356347805E-01
   C  0.543511109E+01 -0.434109337E+00  0.132199572E-01
   H -0.288445627E+02  0.101003879E+01  0.271215876E+01
   H  0.280115439E+02  0.306745485E+01 -0.225657008E+01
     4
 # iter = 56000  time[fs]=56.00000
   C -0.578957177E+01 -0.481262625E-01  0.358211898E-01
   C  0.551776377E+01 -0.440675714E+00  0.139372398E-01
   H -0.292473181E+02  0.102418412E+01  0.275021284E+01
   H  0.284014507E+02  0.311106706E+01 -0.228809891E+01
     4
 # iter = 56500  time[fs]=56.50000
   C -0.587664787E+01 -0.483581545E-01  0.360069642E-01
   C  0.560051546E+01 -0.447247963E+00  0.146551382E-01
   H -0.296502725E+02  0.103833746E+01  0.278828712E+01
   H  0.287915759E+02  0.315470838E+01 -0.231964771E+01
     4
 # iter = 57000  time[fs]=57.00000
   C -0.596382164E+01 -0.485873464E-01  0.361921112E-01
   C  0.568336325E+01 -0.453825923E+00  0.153736457E-01
   H -0.300534204E+02  0.105249858E+01  0.282638108E+01
   H  0.291819138E+02  0.319837804E+01 -0.235121598E+01
     4
 # iter = 57500  time[fs]=57.50000
   C -0.605109024E+01 -0.488139150E-01  0.363766385E-01
   C  0.576630430E+01 -0.460409439E+00  0.160927557E-01
   H -0.304567568E+02  0.106666730E+01  0.286449420E+01
   H  0.295724587E+02  0.324207531E+01 -0.238280319E+01
     4
 # iter = 58000  time[fs]=58.00000
   C -0.613845092E+01 -0.490379338E-01  0.365605537E-01
   C  0.584933594E+01 -0.466998364E+00  0.168124611E-01
   H -0.308602768E+02  0.108084340E+01  0.290262599E+01
   H  0.299632052E+02  0.328579949E+01 -0.241440887E+01
     4
 # iter = 58500  time[fs]=58.50000
   C -0.622590107E+01 -0.492594732E-01  0.367438646E-01
   C  0.593245558E+01 -0.473592554E+00  0.175327548E-01
   H -0.312639756E+02  0.109502670E+01  0.294077596E+01
   H  0.303541482E+02  0.332954991E+01 -0.244603255E+01
     4
 # iter = 59000  time[fs]=59.00000
   C -0.631343819E+01 -0.494786010E-01  0.369265791E-01
   C  0.601566075E+01 -0.480191872E+00  0.182536299E-01
   H -0.316678486E+02  0.110921702E+01  0.297894367E+01
   H  0.307452827E+02  0.337332592E+01 -0.247767378E+01
     4
 # iter = 59500  time[fs]=59.50000
   C -0.640105985E+01 -0.496953822E-01  0.371087049E-01
   C  0.609894907E+01 -0.486796188E+00  0.189750790E-01
   H -0.320718916E+02  0.112341418E+01  0.301712868E+01
   H  0.311366039E+02  0.341712688E+01 -0.250933213E+01
     4
 # iter = 60000  time[fs]=60.00000
   C -0.648876376E+01 -0.499098794E-01  0.372902498E-01
   C  0.618231826E+01 -0.493405372E+00  0.196970951E-01
   H -0.324761002E+02  0.113761800E+01  0.305533055E+01
   H  0.315281071E+02  0.346095221E+01 -0.254100719E+01
     4
 # iter = 60500  time[fs]=60.50000
   C -0.657654769E+01 -0.501221526E-01  0.374712218E-01
   C  0.626576614E+01 -0.500019304E+00  0.204196708E-01
   H -0.328804705E+02  0.115182834E+01  0.309354888E+01
   H  0.319197880E+02  0.350480130E+01 -0.257269854E+01
     4
 # iter = 61000  time[fs]=61.00000
   C -0.666440950E+01 -0.503322598E-01  0.376516284E-01
   C  0.634929061E+01 -0.506637866E+00  0.211427989E-01
   H -0.332849984E+02  0.116604502E+01  0.313178328E+01
   H  0.323116421E+02  0.354867361E+01 -0.260440580E+01
     4
 # iter = 61500  time[fs]=61.50000
   C -0.675234715E+01 -0.505402566E-01  0.378314776E-01
   C  0.643288964E+01 -0.513260944E+00  0.218664722E-01
   H -0.336896803E+02  0.118026790E+01  0.317003336E+01
   H  0.327036655E+02  0.359256859E+01 -0.263612860E+01
     4
 # iter = 62000  time[fs]=62.00000
   C -0.684035865E+01 -0.507461967E-01  0.380107769E-01
   C  0.651656128E+01 -0.519888428E+00  0.225906835E-01
   H -0.340945124E+02  0.119449683E+01  0.320829876E+01
   H  0.330958540E+02  0.363648571E+01 -0.266786658E+01
     4
 # iter = 62500  time[fs]=62.50000
   C -0.692844212E+01 -0.509501315E-01  0.381895340E-01
   C  0.660030367E+01 -0.526520213E+00  0.233154257E-01
   H -0.344994913E+02  0.120873167E+01  0.324657913E+01
   H  0.334882038E+02  0.368042448E+01 -0.269961938E+01
     4
 # iter = 63000  time[fs]=63.00000
   C -0.701659572E+01 -0.511521111E-01  0.383677565E-01
   C  0.668411501E+01 -0.533156197E+00  0.240406917E-01
   H -0.349046135E+02  0.122297228E+01  0.328487411E+01
   H  0.338807113E+02  0.372438439E+01 -0.273138667E+01
     4
 # iter = 63500  time[fs]=63.50000
   C -0.710481768E+01 -0.513521832E-01  0.385454519E-01
   C  0.676799355E+01 -0.539796281E+00  0.247664743E-01
   H -0.353098758E+02  0.123721854E+01  0.332318339E+01
   H  0.342733727E+02  0.376836499E+01 -0.276316813E+01
     4
 # iter = 64000  time[fs]=64.00000
   C -0.719310632E+01 -0.515503943E-01  0.387226275E-01
   C  0.685193763E+01 -0.546440372E+00  0.254927666E-01
   H -0.357152750E+02  0.125147030E+01  0.336150663E+01
   H  0.346661846E+02  0.381236581E+01 -0.279496344E+01
     4
 # iter = 64500  time[fs]=64.50000
   C -0.728146000E+01 -0.517467888E-01  0.388992906E-01
   C  0.693594564E+01 -0.553088376E+00  0.262195616E-01
   H -0.361208080E+02  0.126572746E+01  0.339984353E+01
   H  0.350591437E+02  0.385638640E+01 -0.282677229E+01
     4
 # iter = 65000  time[fs]=65.00000
   C -0.736987714E+01 -0.519414101E-01  0.390754487E-01
   C  0.702001602E+01 -0.559740206E+00  0.269468524E-01
   H -0.365264719E+02  0.127998989E+01  0.343819380E+01
   H  0.354522467E+02  0.390042635E+01 -0.285859438E+01
     4
 # iter = 65500  time[fs]=65.50000
   C -0.745835621E+01 -0.521342996E-01  0.392511087E-01
   C  0.710414727E+01 -0.566395775E+00  0.276746323E-01
   H -0.369322638E+02  0.129425747E+01  0.347655713E+01
   H  0.358454905E+02  0.394448524E+01 -0.289042945E+01
     4
 # iter = 66000  time[fs]=66.00000
   C -0.754689575E+01 -0.523254976E-01  0.394262777E-01
   C  0.718833795E+01 -0.573055001E+00  0.284028945E-01
   H -0.373381809E+02  0.130853010E+01  0.351493326E+01
   H  0.362388720E+02  0.398856266E+01 -0.292227719E+01
     4
 # iter = 66500  time[fs]=66.50000
   C -0.763549434E+01 -0.525150429E-01  0.396009627E-01
   C  0.727258666E+01 -0.579717803E+00  0.291316323E-01
   H -0.377442205E+02  0.132280766E+01  0.355332191E+01
   H  0.366323882E+02  0.403265824E+01 -0.295413736E+01
     4
 # iter = 67000  time[fs]=67.00000
   C -0.772415060E+01 -0.527029731E-01  0.397751706E-01
   C  0.735689204E+01 -0.586384104E+00  0.298608393E-01
   H -0.381503801E+02  0.133709005E+01  0.359172281E+01
   H  0.370260364E+02  0.407677158E+01 -0.298600969E+01
     4
 # iter = 67500  time[fs]=67.50000
   C -0.781286322E+01 -0.528893245E-01  0.399489081E-01
   C  0.744125281E+01 -0.593053828E+00  0.305905089E-01
   H -0.385566570E+02  0.135137718E+01  0.363013571E+01
   H  0.374198136E+02  0.412090233E+01 -0.301789393E+01
     4
 # iter = 68000  time[fs]=68.00000
   C -0.790163091E+01 -0.530741323E-01  0.401221818E-01
   C  0.752566769E+01 -0.599726903E+00  0.313206347E-01
   H -0.389630490E+02  0.136566894E+01  0.366856037E+01
   H  0.378137174E+02  0.416505013E+01 -0.304978983E+01
     4
 # iter = 68500  time[fs]=68.50000
   C -0.799045244E+01 -0.532574303E-01  0.402949984E-01
   C  0.761013547E+01 -0.606403258E+00  0.320512105E-01
   H -0.393695535E+02  0.137996523E+01  0.370699655E+01
   H  0.382077450E+02  0.420921464E+01 -0.308169717E+01
     4
 # iter = 69000  time[fs]=69.00000
   C -0.807932661E+01 -0.534392517E-01  0.404673643E-01
   C  0.769465496E+01 -0.613082825E+00  0.327822301E-01
   H -0.397761683E+02  0.139426596E+01  0.374544401E+01
   H  0.386018939E+02  0.425339553E+01 -0.311361570E+01
     4
 # iter = 69500  time[fs]=69.50000
   C -0.816825226E+01 -0.536196281E-01  0.406392859E-01
   C  0.777922504E+01 -0.619765538E+00  0.335136872E-01
   H -0.401828913E+02  0.140857106E+01  0.378390253E+01
   H  0.389961618E+02  0.429759247E+01 -0.314554521E+01
     4
 # iter = 70000  time[fs]=70.00000
   C -0.825722826E+01 -0.537985905E-01  0.408107693E-01
   C  0.786384459E+01 -0.626451331E+00  0.342455760E-01
   H -0.405897201E+02  0.142288041E+01  0.382237188E+01
   H  0.393905461E+02  0.434180515E+01 -0.317748548E+01
     4
 # iter = 70500  time[fs]=70.50000
   C -0.834625355E+01 -0.539761688E-01  0.409818208E-01
   C  0.794851255E+01 -0.633140144E+00  0.349778904E-01
   H -0.409966528E+02  0.143719396E+01  0.386085186E+01
   H  0.397850447E+02  0.438603326E+01 -0.320943630E+01
     4
 # iter = 71000  time[fs]=71.00000
   C -0.843532705E+01 -0.541523919E-01  0.411524465E-01
   C  0.803322788E+01 -0.639831914E+00  0.357106246E-01
   H -0.414036872E+02  0.145151160E+01  0.389934227E+01
   H  0.401796553E+02  0.443027651E+01 -0.324139747E+01
     4
 # iter = 71500  time[fs]=71.50000
   C -0.852444775E+01 -0.543272881E-01  0.413226522E-01
   C  0.811798958E+01 -0.646526585E+00  0.364437729E-01
   H -0.418108214E+02  0.146583327E+01  0.393784289E+01
   H  0.405743756E+02  0.447453461E+01 -0.327336879E+01
     4
 # iter = 72000  time[fs]=72.00000
   C -0.861361467E+01 -0.545008844E-01  0.414924438E-01
   C  0.820279667E+01 -0.653224098E+00  0.371773296E-01
   H -0.422180535E+02  0.148015888E+01  0.397635354E+01
   H  0.409692037E+02  0.451880728E+01 -0.330535006E+01
     4
 # iter = 72500  time[fs]=72.50000
   C -0.870282685E+01 -0.546732074E-01  0.416618271E-01
   C  0.828764822E+01 -0.659924399E+00  0.379112891E-01
   H -0.426253817E+02  0.149448836E+01  0.401487403E+01
   H  0.413641374E+02  0.456309425E+01 -0.333734111E+01
     4
 # iter = 73000  time[fs]=73.00000
   C -0.879208336E+01 -0.548442828E-01  0.418308078E-01
   C  0.837254331E+01 -0.666627433E+00  0.386456459E-01
   H -0.430328040E+02  0.150882163E+01  0.405340417E+01
   H  0.417591748E+02  0.460739525E+01 -0.336934175E+01
     4
 # iter = 73500  time[fs]=73.50000
   C -0.888138330E+01 -0.550141353E-01  0.419993914E-01
   C  0.845748106E+01 -0.673333148E+00  0.393803947E-01
   H -0.434403188E+02  0.152315864E+01  0.409194378E+01
   H  0.421543139E+02  0.465171003E+01 -0.340135179E+01
     4
 # iter = 74000  time[fs]=74.00000
   C -0.897072579E+01 -0.551827893E-01  0.421675833E-01
   C  0.854246060E+01 -0.680041494E+00  0.401155301E-01
   H -0.438479244E+02  0.153749930E+01  0.413049269E+01
   H  0.425495529E+02  0.469603833E+01 -0.343337108E+01
     4
 # iter = 74500  time[fs]=74.50000
   C -0.906010998E+01 -0.553502681E-01  0.423353890E-01
   C  0.862748111E+01 -0.686752421E+00  0.408510470E-01
   H -0.442556189E+02  0.155184355E+01  0.416905074E+01
   H  0.429448899E+02  0.474037992E+01 -0.346539945E+01
     4
 # iter = 75000  time[fs]=75.00000
   C -0.914953506E+01 -0.555165946E-01  0.425028136E-01
   C  0.871254176E+01 -0.693465881E+00  0.415869401E-01
   H -0.446634010E+02  0.156619132E+01  0.420761775E+01
   H  0.433403230E+02  0.478473455E+01 -0.349743672E+01
     4
 # iter = 75500  time[fs]=75.50000
   C -0.923900023E+01 -0.556817910E-01  0.426698625E-01
   C  0.879764178E+01 -0.700181828E+00  0.423232045E-01
   H -0.450712688E+02  0.158054256E+01  0.424619356E+01
   H  0.437358507E+02  0.482910200E+01 -0.352948274E+01
     4
 # iter = 76000  time[fs]=76.00000
   C -0.932850470E+01 -0.558458787E-01  0.428365407E-01
   C  0.888278039E+01 -0.706900216E+00  0.430598352E-01
   H -0.454792210E+02  0.159489719E+01  0.428477803E+01
   H  0.441314712E+02  0.487348204E+01 -0.356153736E+01
     4
 # iter = 76500  time[fs]=76.50000
   C -0.941804772E+01 -0.560088788E-01  0.430028533E-01
   C  0.896795687E+01 -0.713621000E+00  0.437968273E-01
   H -0.458872561E+02  0.160925516E+01  0.432337100E+01
   H  0.445271829E+02  0.491787445E+01 -0.359360043E+01
     4
 # iter = 77000  time[fs]=77.00000
   C -0.950762855E+01 -0.561708116E-01  0.431688050E-01
   C  0.905317048E+01 -0.720344139E+00  0.445341760E-01
   H -0.462953725E+02  0.162361642E+01  0.436197231E+01
   H  0.449229841E+02  0.496227902E+01 -0.362567180E+01
     4
 # iter = 77500  time[fs]=77.50000
   C -0.959724649E+01 -0.563316968E-01  0.433344008E-01
   C  0.913842052E+01 -0.727069590E+00  0.452718767E-01
   H -0.467035688E+02  0.163798089E+01  0.440058184E+01
   H  0.453188733E+02  0.500669553E+01 -0.365775133E+01
     4
 # iter = 78000  time[fs]=78.00000
   C -0.968690084E+01 -0.564915538E-01  0.434996455E-01
   C  0.922370631E+01 -0.733797311E+00  0.460099246E-01
   H -0.471118438E+02  0.165234854E+01  0.443919943E+01
   H  0.457148489E+02  0.505112380E+01 -0.368983888E+01
     4
 # iter = 78500  time[fs]=78.50000
   C -0.977659093E+01 -0.566504014E-01  0.436645436E-01
   C  0.930902719E+01 -0.740527265E+00  0.467483152E-01
   H -0.475201959E+02  0.166671930E+01  0.447782495E+01
   H  0.461109096E+02  0.509556362E+01 -0.372193431E+01
     4
 # iter = 79000  time[fs]=79.00000
   C -0.986631610E+01 -0.568082577E-01  0.438290998E-01
   C  0.939438251E+01 -0.747259411E+00  0.474870441E-01
   H -0.479286240E+02  0.168109312E+01  0.451645826E+01
   H  0.465070539E+02  0.514001479E+01 -0.375403749E+01
     4
 # iter = 79500  time[fs]=79.50000
   C -0.995607570E+01 -0.569651405E-01  0.439933186E-01
   C  0.947977165E+01 -0.753993712E+00  0.482261068E-01
   H -0.483371267E+02  0.169546994E+01  0.455509924E+01
   H  0.469032803E+02  0.518447714E+01 -0.378614830E+01
     4
 # iter = 80000  time[fs]=80.00000
   C -0.100458691E+02 -0.571210672E-01  0.441572044E-01
   C  0.956519399E+01 -0.760730131E+00  0.489654991E-01
   H -0.487457028E+02  0.170984973E+01  0.459374776E+01
   H  0.472995874E+02  0.522895047E+01 -0.381826660E+01
