     4
 # iter = 25000  time[fs]=25.00000
   C -0.944667385E+00 -0.236135946E-01  0.245525431E-01
   C  0.102684077E+01  0.268350647E-01 -0.829085227E-02
   H -0.527067323E+01  0.353467601E+00 -0.355628903E+00
   H  0.529957555E+01  0.259533206E+00 -0.371653784E+00
     4
 # iter = 25500  time[fs]=25.50000
   C -0.986375233E+00 -0.264906072E-01  0.269834845E-01
   C  0.106952446E+01  0.263963056E-01 -0.665381733E-02
   H -0.560124195E+01  0.373249276E+00 -0.377450703E+00
   H  0.562137493E+01  0.273782937E+00 -0.393712727E+00
     4
 # iter = 26000  time[fs]=26.00000
   C -0.103096491E+01 -0.294800560E-01  0.295015627E-01
   C  0.111511047E+01  0.260153055E-01 -0.503769191E-02
   H -0.593731154E+01  0.393435488E+00 -0.399683217E+00
   H  0.594842932E+01  0.288284256E+00 -0.416155685E+00
     4
 # iter = 26500  time[fs]=26.50000
   C -0.107820663E+01 -0.325719162E-01  0.320977249E-01
   C  0.116336552E+01  0.256882870E-01 -0.344080684E-02
   H -0.627826393E+01  0.413979061E+00 -0.422279835E+00
   H  0.628016260E+01  0.303009372E+00 -0.438940663E+00
     4
 # iter = 27000  time[fs]=27.00000
   C -0.112788437E+01 -0.357571776E-01  0.347640501E-01
   C  0.121407081E+01  0.254115074E-01 -0.186149619E-02
   H -0.662357444E+01  0.434840415E+00 -0.445201243E+00
   H  0.661608325E+01  0.317934655E+00 -0.462031912E+00
     4
 # iter = 27500  time[fs]=27.50000
   C -0.117979740E+01 -0.390277419E-01  0.374935963E-01
   C  0.126702341E+01  0.251813458E-01 -0.298157428E-03
   H -0.697279469E+01  0.455986051E+00 -0.468414009E+00
   H  0.695576940E+01  0.333039875E+00 -0.485398794E+00
     4
 # iter = 28000  time[fs]=28.00000
   C -0.123376072E+01 -0.423763311E-01  0.402802696E-01
   C  0.132203655E+01  0.249943582E-01  0.125071419E-02
   H -0.732553908E+01  0.477387393E+00 -0.491889488E+00
   H  0.729885681E+01  0.348307598E+00 -0.509014882E+00
     4
 # iter = 28500  time[fs]=28.50000
   C -0.128960494E+01 -0.457964038E-01  0.431187099E-01
   C  0.137893938E+01  0.248473090E-01  0.278650843E-02
   H -0.768147404E+01  0.499019883E+00 -0.515602968E+00
   H  0.764502925E+01  0.363722716E+00 -0.532857244E+00
     4
 # iter = 29000  time[fs]=29.00000
   C -0.134717562E+01 -0.492820793E-01  0.460041928E-01
   C  0.143757627E+01  0.247371854E-01  0.431049432E-02
   H -0.804030941E+01  0.520862274E+00 -0.539532993E+00
   H  0.799401076E+01  0.379272058E+00 -0.556905872E+00
     4
 # iter = 29500  time[fs]=29.50000
   C -0.140633241E+01 -0.528280677E-01  0.489325450E-01
   C  0.149780592E+01  0.246612009E-01  0.582382144E-02
   H -0.840179139E+01  0.542896068E+00 -0.563660827E+00
   H  0.834555932E+01  0.394944083E+00 -0.581143217E+00
     4
 # iter = 30000  time[fs]=30.00000
   C -0.146694804E+01 -0.564296075E-01  0.519000708E-01
   C  0.155950022E+01  0.246167902E-01  0.732752546E-02
   H -0.876569699E+01  0.565105071E+00 -0.587970017E+00
   H  0.869946169E+01  0.410728630E+00 -0.605553813E+00
     4
 # iter = 30500  time[fs]=30.50000
   C -0.152890721E+01 -0.600824079E-01  0.549034895E-01
   C  0.162254318E+01  0.246015995E-01  0.882253601E-02
   H -0.913182930E+01  0.587475027E+00 -0.612446043E+00
   H  0.905552918E+01  0.426616713E+00 -0.630123966E+00
     4
 # iter = 31000  time[fs]=31.00000
   C -0.159210553E+01 -0.637825984E-01  0.579398812E-01
   C  0.168682986E+01  0.246134744E-01  0.103096856E-01
   H -0.950001371E+01  0.609993325E+00 -0.637076032E+00
   H  0.941359410E+01  0.442600346E+00 -0.654841501E+00
     4
 # iter = 31500  time[fs]=31.50000
   C -0.165644850E+01 -0.675266822E-01  0.610066405E-01
   C  0.175226526E+01  0.246504451E-01  0.117897186E-01
   H -0.987009478E+01  0.632648761E+00 -0.661848519E+00
   H  0.977350689E+01  0.458672412E+00 -0.679695550E+00
     4
 # iter = 32000  time[fs]=32.00000
   C -0.172185053E+01 -0.713114959E-01  0.641014362E-01
   C  0.181876336E+01  0.247107130E-01  0.132633006E-01
   H -0.102419335E+02  0.655431334E+00 -0.686753253E+00
   H  0.101351336E+02  0.474826533E+00 -0.704676375E+00
     4
 # iter = 32500  time[fs]=32.50000
   C -0.178823404E+01 -0.751341730E-01  0.672221772E-01
   C  0.188624622E+01  0.247926353E-01  0.147310261E-01
   H -0.106154054E+02  0.678332086E+00 -0.711781035E+00
   H  0.104983540E+02  0.491056984E+00 -0.729775219E+00
     4
 # iter = 33000  time[fs]=33.00000
   C -0.185552865E+01 -0.789921119E-01  0.703669827E-01
   C  0.195464315E+01  0.248947119E-01  0.161934269E-01
   H -0.109903980E+02  0.701342961E+00 -0.736923576E+00
   H  0.108630596E+02  0.507358601E+00 -0.754984181E+00
     4
 # iter = 33500  time[fs]=33.50000
   C -0.192367041E+01 -0.828829471E-01  0.735341569E-01
   C  0.202388994E+01  0.250155722E-01  0.176509789E-01
   H -0.113668103E+02  0.724456688E+00 -0.762173388E+00
   H  0.112291523E+02  0.523726717E+00 -0.780296113E+00
     4
 # iter = 34000  time[fs]=34.00000
   C -0.199260119E+01 -0.868045242E-01  0.767221671E-01
   C  0.209392820E+01  0.251539633E-01  0.191041082E-01
   H -0.117445502E+02  0.747666686E+00 -0.787523679E+00
   H  0.115965431E+02  0.540157095E+00 -0.805704523E+00
     4
 # iter = 34500  time[fs]=34.50000
   C -0.206226802E+01 -0.907548775E-01  0.799296241E-01
   C  0.216470478E+01  0.253087385E-01  0.205531970E-01
   H -0.121235347E+02  0.770966977E+00 -0.812968275E+00
   H  0.119651514E+02  0.556645886E+00 -0.831203504E+00
     4
 # iter = 35000  time[fs]=35.00000
   C -0.213262258E+01 -0.947322103E-01  0.831552662E-01
   C  0.223617117E+01  0.254788476E-01  0.219985886E-01
   H -0.125036875E+02  0.794352117E+00 -0.838501547E+00
   H  0.123349032E+02  0.573189575E+00 -0.856787665E+00
     4
 # iter = 35500  time[fs]=35.50000
   C -0.220362076E+01 -0.987348777E-01  0.863979448E-01
   C  0.230828307E+01  0.256633275E-01  0.234405916E-01
   H -0.128849395E+02  0.817817135E+00 -0.864118347E+00
   H  0.127057313E+02  0.589784951E+00 -0.882452071E+00
     4
 # iter = 36000  time[fs]=36.00000
   C -0.227522216E+01 -0.102761371E+00  0.896566117E-01
   C  0.238099996E+01  0.258612940E-01  0.248794840E-01
   H -0.132672272E+02  0.841357480E+00 -0.889813958E+00
   H  0.130775738E+02  0.606429071E+00 -0.908192199E+00
     4
 # iter = 36500  time[fs]=36.50000
   C -0.234738978E+01 -0.106810303E+00  0.929303082E-01
   C  0.245428470E+01  0.260719342E-01  0.263155165E-01
   H -0.136504922E+02  0.864968974E+00 -0.915584047E+00
   H  0.134503741E+02  0.623119230E+00 -0.934003888E+00
     4
 # iter = 37000  time[fs]=37.00000
   C -0.242008963E+01 -0.110880399E+00  0.962181562E-01
   C  0.252810321E+01  0.262945000E-01  0.277489157E-01
   H -0.140346811E+02  0.888647773E+00 -0.941424622E+00
   H  0.138240800E+02  0.639852938E+00 -0.959883307E+00
     4
 # iter = 37500  time[fs]=37.50000
   C -0.249329050E+01 -0.114970483E+00  0.995193488E-01
   C  0.260242414E+01  0.265283018E-01  0.291798867E-01
   H -0.144197444E+02  0.912390336E+00 -0.967332001E+00
   H  0.141986433E+02  0.656627900E+00 -0.985826918E+00
     4
 # iter = 38000  time[fs]=38.00000
   C -0.256696362E+01 -0.119079467E+00  0.102833144E+00
   C  0.267721864E+01  0.267727032E-01  0.306086153E-01
   H -0.148056365E+02  0.936193388E+00 -0.993302782E+00
   H  0.145740196E+02  0.673441991E+00 -0.101183145E+01
     4
 # iter = 38500  time[fs]=38.50000
   C -0.264108246E+01 -0.123206349E+00  0.106158858E+00
   C  0.275246011E+01  0.270271161E-01  0.320352701E-01
   H -0.151923153E+02  0.960053899E+00 -0.101933381E+01
   H  0.149501677E+02  0.690293246E+00 -0.103789387E+01
     4
 # iter = 39000  time[fs]=39.00000
   C -0.271562254E+01 -0.127350196E+00  0.109495858E+00
   C  0.282812396E+01  0.272909961E-01  0.334600047E-01
   H -0.155797417E+02  0.983969060E+00 -0.104542216E+01
   H  0.153270495E+02  0.707179841E+00 -0.106401137E+01
     4
 # iter = 39500  time[fs]=39.50000
   C -0.279056118E+01 -0.131510147E+00  0.112843561E+00
   C  0.290418747E+01  0.275638390E-01  0.348829586E-01
   H -0.159678792E+02  0.100793626E+01 -0.107156511E+01
   H  0.157046294E+02  0.724100080E+00 -0.109018133E+01
     4
 # iter = 40000  time[fs]=40.00000
   C -0.286587739E+01 -0.135685399E+00  0.116201423E+00
   C  0.298062958E+01  0.278451767E-01  0.363042593E-01
   H -0.163566942E+02  0.103195307E+01 -0.109776012E+01
   H  0.160828744E+02  0.741052385E+00 -0.111640130E+01
     4
 # iter = 40500  time[fs]=40.50000
   C -0.294155169E+01 -0.139875206E+00  0.119568944E+00
   C  0.305743075E+01  0.281345746E-01  0.377240232E-01
   H -0.167461552E+02  0.105601722E+01 -0.112400484E+01
   H  0.164617538E+02  0.758035285E+00 -0.114266902E+01
     4
 # iter = 41000  time[fs]=41.00000
   C -0.301756600E+01 -0.144078872E+00  0.122945655E+00
   C  0.313457283E+01  0.284316282E-01  0.391423568E-01
   H -0.171362328E+02  0.108012660E+01 -0.115029706E+01
   H  0.168412389E+02  0.775047405E+00 -0.116898236E+01
     4
 # iter = 41500  time[fs]=41.50000
   C -0.309390348E+01 -0.148295750E+00  0.126331120E+00
   C  0.321203895E+01  0.287359609E-01  0.405593576E-01
   H -0.175268996E+02  0.110427923E+01 -0.117663471E+01
   H  0.172213028E+02  0.792087461E+00 -0.119533934E+01
     4
 # iter = 42000  time[fs]=42.00000
   C -0.317054844E+01 -0.152525234E+00  0.129724934E+00
   C  0.328981337E+01  0.290472214E-01  0.419751152E-01
   H -0.179181299E+02  0.112847326E+01 -0.120301585E+01
   H  0.176019204E+02  0.809154250E+00 -0.122173809E+01
     4
 # iter = 42500  time[fs]=42.50000
   C -0.324748625E+01 -0.156766756E+00  0.133126719E+00
   C  0.336788142E+01  0.293650817E-01  0.433897116E-01
   H -0.183098996E+02  0.115270696E+01 -0.122943867E+01
   H  0.179830680E+02  0.826246643E+00 -0.124817686E+01
     4
 # iter = 43000  time[fs]=43.00000
   C -0.332470327E+01 -0.161019786E+00  0.136536118E+00
   C  0.344622942E+01  0.296892353E-01  0.448032226E-01
   H -0.187021862E+02  0.117697869E+01 -0.125590147E+01
   H  0.183647237E+02  0.843363580E+00 -0.127465401E+01
     4
 # iter = 43500  time[fs]=43.50000
   C -0.340218671E+01 -0.165283827E+00  0.139952801E+00
   C  0.352484453E+01  0.300193951E-01  0.462157179E-01
   H -0.190949685E+02  0.120128692E+01 -0.128240265E+01
   H  0.187468667E+02  0.860504067E+00 -0.130116801E+01
     4
 # iter = 44000  time[fs]=44.00000
   C -0.347992462E+01 -0.169558411E+00  0.143376456E+00
   C  0.360371479E+01  0.303552925E-01  0.476272616E-01
   H -0.194882265E+02  0.122563020E+01 -0.130894069E+01
   H  0.191294773E+02  0.877667165E+00 -0.132771738E+01
     4
 # iter = 44500  time[fs]=44.50000
   C -0.355790578E+01 -0.173843100E+00  0.146806792E+00
   C  0.368282894E+01  0.306966752E-01  0.490379132E-01
   H -0.198819414E+02  0.125000719E+01 -0.133551417E+01
   H  0.195125372E+02  0.894851991E+00 -0.135430078E+01
     4
 # iter = 45000  time[fs]=45.00000
   C -0.363611969E+01 -0.178137479E+00  0.150243533E+00
   C  0.376217643E+01  0.310433065E-01  0.504477275E-01
   H -0.202760955E+02  0.127441659E+01 -0.136212174E+01
   H  0.198960290E+02  0.912057712E+00 -0.138091689E+01
     4
 # iter = 45500  time[fs]=45.50000
   C -0.371455645E+01 -0.182441161E+00  0.153686422E+00
   C  0.384174737E+01  0.313949639E-01  0.518567553E-01
   H -0.206706722E+02  0.129885720E+01 -0.138876215E+01
   H  0.202799363E+02  0.929283543E+00 -0.140756451E+01
     4
 # iter = 46000  time[fs]=46.00000
   C -0.379320678E+01 -0.186753779E+00  0.157135214E+00
   C  0.392153243E+01  0.317514381E-01  0.532650437E-01
   H -0.210656555E+02  0.132332787E+01 -0.141543419E+01
   H  0.206642437E+02  0.946528737E+00 -0.143424247E+01
     4
 # iter = 46500  time[fs]=46.50000
   C -0.387206192E+01 -0.191074985E+00  0.160589681E+00
   C  0.400152284E+01  0.321125318E-01  0.546726363E-01
   H -0.214610306E+02  0.134782752E+01 -0.144213671E+01
   H  0.210489364E+02  0.963792594E+00 -0.146094969E+01
     4
 # iter = 47000  time[fs]=47.00000
   C -0.395111365E+01 -0.195404455E+00  0.164049606E+00
   C  0.408171034E+01  0.324780591E-01  0.560795737E-01
   H -0.218567834E+02  0.137235511E+01 -0.146886866E+01
   H  0.214340006E+02  0.981074444E+00 -0.148768512E+01
     4
 # iter = 47500  time[fs]=47.50000
   C -0.403035417E+01 -0.199741877E+00  0.167514784E+00
   C  0.416208714E+01  0.328478448E-01  0.574858935E-01
   H -0.222529005E+02  0.139690969E+01 -0.149562900E+01
   H  0.218194232E+02  0.998373658E+00 -0.151444778E+01
     4
 # iter = 48000  time[fs]=48.00000
   C -0.410977616E+01 -0.204086960E+00  0.170985023E+00
   C  0.424264586E+01  0.332217230E-01  0.588916310E-01
   H -0.226493690E+02  0.142149031E+01 -0.152241677E+01
   H  0.222051917E+02  0.101568963E+01 -0.154123675E+01
     4
 # iter = 48500  time[fs]=48.50000
   C -0.418937267E+01 -0.208439427E+00  0.174460137E+00
   C  0.432337957E+01  0.335995371E-01  0.602968188E-01
   H -0.230461771E+02  0.144609611E+01 -0.154923105E+01
   H  0.225912943E+02  0.103302181E+01 -0.156805113E+01
     4
 # iter = 49000  time[fs]=49.00000
   C -0.426913715E+01 -0.212799014E+00  0.177939955E+00
   C  0.440428167E+01  0.339811390E-01  0.617014874E-01
   H -0.234433132E+02  0.147072626E+01 -0.157607096E+01
   H  0.229777196E+02  0.105036963E+01 -0.159489008E+01
     4
 # iter = 49500  time[fs]=49.50000
   C -0.434906338E+01 -0.217165472E+00  0.181424310E+00
   C  0.448534594E+01  0.343663884E-01  0.631056653E-01
   H -0.238407664E+02  0.149537995E+01 -0.160293567E+01
   H  0.233644570E+02  0.106773259E+01 -0.162175280E+01
     4
 # iter = 50000  time[fs]=50.00000
   C -0.442914547E+01 -0.221538565E+00  0.184913048E+00
   C  0.456656648E+01  0.347551522E-01  0.645093790E-01
   H -0.242385264E+02  0.152005643E+01 -0.162982438E+01
   H  0.237514964E+02  0.108511020E+01 -0.164863853E+01
     4
 # iter = 50500  time[fs]=50.50000
   C -0.450937784E+01 -0.225918067E+00  0.188406018E+00
   C  0.464793770E+01  0.351473044E-01  0.659126535E-01
   H -0.246365833E+02  0.154475499E+01 -0.165673634E+01
   H  0.241388280E+02  0.110250199E+01 -0.167554654E+01
     4
 # iter = 51000  time[fs]=51.00000
   C -0.458975520E+01 -0.230303765E+00  0.191903081E+00
   C  0.472945427E+01  0.355427251E-01  0.673155120E-01
   H -0.250349276E+02  0.156947493E+01 -0.168367083E+01
   H  0.245264426E+02  0.111990752E+01 -0.170247613E+01
     4
 # iter = 51500  time[fs]=51.50000
   C -0.467027251E+01 -0.234695454E+00  0.195404102E+00
   C  0.481111116E+01  0.359413006E-01  0.687179763E-01
   H -0.254335505E+02  0.159421560E+01 -0.171062716E+01
   H  0.249143313E+02  0.113732635E+01 -0.172942665E+01
     4
 # iter = 52000  time[fs]=52.00000
   C -0.475092499E+01 -0.239092941E+00  0.198908952E+00
   C  0.489290357E+01  0.363429229E-01  0.701200669E-01
   H -0.258324434E+02  0.161897638E+01 -0.173760467E+01
   H  0.253024858E+02  0.115475809E+01 -0.175639745E+01
     4
 # iter = 52500  time[fs]=52.50000
   C -0.483170810E+01 -0.243496040E+00  0.202417510E+00
   C  0.497482694E+01  0.367474889E-01  0.715218029E-01
   H -0.262315980E+02  0.164375666E+01 -0.176460273E+01
   H  0.256908980E+02  0.117220235E+01 -0.178338795E+01
     4
 # iter = 53000  time[fs]=53.00000
   C -0.491261749E+01 -0.247904575E+00  0.205929659E+00
   C  0.505687693E+01  0.371549008E-01  0.729232024E-01
   H -0.266310066E+02  0.166855588E+01 -0.179162075E+01
   H  0.260795602E+02  0.118965876E+01 -0.181039754E+01
     4
 # iter = 53500  time[fs]=53.50000
   C -0.499364904E+01 -0.252318378E+00  0.209445289E+00
   C  0.513904940E+01  0.375650652E-01  0.743242822E-01
   H -0.270306616E+02  0.169337348E+01 -0.181865814E+01
   H  0.264684651E+02  0.120712696E+01 -0.183742570E+01
     4
 # iter = 54000  time[fs]=54.00000
   C -0.507479882E+01 -0.256737287E+00  0.212964293E+00
   C  0.522134040E+01  0.379778932E-01  0.757250584E-01
   H -0.274305560E+02  0.171820895E+01 -0.184571435E+01
   H  0.268576056E+02  0.122460661E+01 -0.186447188E+01
     4
 # iter = 54500  time[fs]=54.50000
   C -0.515606309E+01 -0.261161149E+00  0.216486570E+00
   C  0.530374618E+01  0.383932998E-01  0.771255459E-01
   H -0.278306828E+02  0.174306177E+01 -0.187278886E+01
   H  0.272469750E+02  0.124209740E+01 -0.189153557E+01
     4
 # iter = 55000  time[fs]=55.00000
   C -0.523743824E+01 -0.265589816E+00  0.220012024E+00
   C  0.538626314E+01  0.388112042E-01  0.785257588E-01
   H -0.282310356E+02  0.176793147E+01 -0.189988117E+01
   H  0.276365669E+02  0.125959900E+01 -0.191861629E+01
     4
 # iter = 55500  time[fs]=55.50000
   C -0.531892087E+01 -0.270023149E+00  0.223540561E+00
   C  0.546888785E+01  0.392315288E-01  0.799257104E-01
   H -0.286316080E+02  0.179281759E+01 -0.192699077E+01
   H  0.280263751E+02  0.127711111E+01 -0.194571358E+01
     4
 # iter = 56000  time[fs]=56.00000
   C -0.540050771E+01 -0.274461011E+00  0.227072093E+00
   C  0.555161705E+01  0.396541998E-01  0.813254133E-01
   H -0.290323939E+02  0.181771969E+01 -0.195411722E+01
   H  0.284163935E+02  0.129463346E+01 -0.197282698E+01
     4
 # iter = 56500  time[fs]=56.50000
   C -0.548219562E+01 -0.278903274E+00  0.230606535E+00
   C  0.563444758E+01  0.400791464E-01  0.827248792E-01
   H -0.294333877E+02  0.184263733E+01 -0.198126006E+01
   H  0.288066166E+02  0.131216577E+01 -0.199995607E+01
     4
 # iter = 57000  time[fs]=57.00000
   C -0.556398162E+01 -0.283349815E+00  0.234143805E+00
   C  0.571737645E+01  0.405063009E-01  0.841241195E-01
   H -0.298345836E+02  0.186757011E+01 -0.200841885E+01
   H  0.291970389E+02  0.132970776E+01 -0.202710042E+01
     4
 # iter = 57500  time[fs]=57.50000
   C -0.564586284E+01 -0.287800514E+00  0.237683826E+00
   C  0.580040079E+01  0.409355984E-01  0.855231445E-01
   H -0.302359765E+02  0.189251763E+01 -0.203559320E+01
   H  0.295876551E+02  0.134725920E+01 -0.205425965E+01
     4
 # iter = 58000  time[fs]=58.00000
   C -0.572783653E+01 -0.292255257E+00  0.241226521E+00
   C  0.588351785E+01  0.413669770E-01  0.869219644E-01
   H -0.306375611E+02  0.191747952E+01 -0.206278269E+01
   H  0.299784601E+02  0.136481983E+01 -0.208143337E+01
     4
 # iter = 58500  time[fs]=58.50000
   C -0.580990007E+01 -0.296713936E+00  0.244771820E+00
   C  0.596672499E+01  0.418003771E-01  0.883205885E-01
   H -0.310393325E+02  0.194245542E+01 -0.208998695E+01
   H  0.303694491E+02  0.138238942E+01 -0.210862121E+01
     4
 # iter = 59000  time[fs]=59.00000
   C -0.589205094E+01 -0.301176444E+00  0.248319653E+00
   C  0.605001968E+01  0.422357417E-01  0.897190259E-01
   H -0.314412860E+02  0.196744497E+01 -0.211720561E+01
   H  0.307606174E+02  0.139996774E+01 -0.213582283E+01
     4
 # iter = 59500  time[fs]=59.50000
   C -0.597428670E+01 -0.305642682E+00  0.251869953E+00
   C  0.613339950E+01  0.426730159E-01  0.911172849E-01
   H -0.318434169E+02  0.199244784E+01 -0.214443831E+01
   H  0.311519605E+02  0.141755458E+01 -0.216303787E+01
     4
 # iter = 60000  time[fs]=60.00000
   C -0.605660504E+01 -0.310112551E+00  0.255422657E+00
   C  0.621686210E+01  0.431121473E-01  0.925153736E-01
   H -0.322457209E+02  0.201746370E+01 -0.217168471E+01
   H  0.315434741E+02  0.143514972E+01 -0.219026601E+01
     4
 # iter = 60500  time[fs]=60.50000
   C -0.613900373E+01 -0.314585958E+00  0.258977703E+00
   C  0.630040527E+01  0.435530853E-01  0.939132997E-01
   H -0.326481937E+02  0.204249223E+01 -0.219894448E+01
   H  0.319351540E+02  0.145275296E+01 -0.221750693E+01
     4
 # iter = 61000  time[fs]=61.00000
   C -0.622148062E+01 -0.319062814E+00  0.262535032E+00
   C  0.638402684E+01  0.439957814E-01  0.953110703E-01
   H -0.330508312E+02  0.206753314E+01 -0.222621730E+01
   H  0.323269961E+02  0.147036411E+01 -0.224476033E+01
     4
 # iter = 61500  time[fs]=61.50000
   C -0.630403364E+01 -0.323543032E+00  0.266094587E+00
   C  0.646772475E+01  0.444401890E-01  0.967086922E-01
   H -0.334536296E+02  0.209258614E+01 -0.225350287E+01
   H  0.327189967E+02  0.148798298E+01 -0.227202591E+01
     4
 # iter = 62000  time[fs]=62.00000
   C -0.638666082E+01 -0.328026528E+00  0.269656313E+00
   C  0.655149700E+01  0.448862633E-01  0.981061721E-01
   H -0.338565849E+02  0.211765094E+01 -0.228080089E+01
   H  0.331111518E+02  0.150560939E+01 -0.229930339E+01
     4
 # iter = 62500  time[fs]=62.50000
   C -0.646936024E+01 -0.332513222E+00  0.273220157E+00
   C  0.663534169E+01  0.453339610E-01  0.995035160E-01
   H -0.342596934E+02  0.214272726E+01 -0.230811107E+01
   H  0.335034580E+02  0.152324317E+01 -0.232659250E+01
     4
 # iter = 63000  time[fs]=63.00000
   C -0.655213007E+01 -0.337003037E+00  0.276786068E+00
   C  0.671925697E+01  0.457832406E-01  0.100900730E+00
   H -0.346629518E+02  0.216781486E+01 -0.233543313E+01
   H  0.338959117E+02  0.154088413E+01 -0.235389296E+01
     4
 # iter = 63500  time[fs]=63.50000
   C -0.663496854E+01 -0.341495897E+00  0.280353997E+00
   C  0.680324107E+01  0.462340622E-01  0.102297819E+00
   H -0.350663564E+02  0.219291347E+01 -0.236276681E+01
   H  0.342885095E+02  0.155853213E+01 -0.238120452E+01
     4
 # iter = 64000  time[fs]=64.00000
   C -0.671787393E+01 -0.345991731E+00  0.283923896E+00
   C  0.688729228E+01  0.466863870E-01  0.103694790E+00
   H -0.354699041E+02  0.221802285E+01 -0.239011186E+01
   H  0.346812482E+02  0.157618700E+01 -0.240852694E+01
     4
 # iter = 64500  time[fs]=64.50000
   C -0.680084461E+01 -0.350490468E+00  0.287495719E+00
   C  0.697140894E+01  0.471401780E-01  0.105091646E+00
   H -0.358735915E+02  0.224314276E+01 -0.241746801E+01
   H  0.350741246E+02  0.159384859E+01 -0.243585996E+01
     4
 # iter = 65000  time[fs]=65.00000
   C -0.688387899E+01 -0.354992042E+00  0.291069422E+00
   C  0.705558947E+01  0.475953993E-01  0.106488393E+00
   H -0.362774157E+02  0.226827298E+01 -0.244483504E+01
   H  0.354671357E+02  0.161151675E+01 -0.246320337E+01
     4
 # iter = 65500  time[fs]=65.50000
   C -0.696697554E+01 -0.359496387E+00  0.294644963E+00
   C  0.713983234E+01  0.480520163E-01  0.107885035E+00
   H -0.366813735E+02  0.229341327E+01 -0.247221269E+01
   H  0.358602786E+02  0.162919134E+01 -0.249055694E+01
     4
 # iter = 66000  time[fs]=66.00000
   C -0.705013278E+01 -0.364003441E+00  0.298222300E+00
   C  0.722413605E+01  0.485099957E-01  0.109281577E+00
   H -0.370854622E+02  0.231856343E+01 -0.249960076E+01
   H  0.362535503E+02  0.164687221E+01 -0.251792045E+01
     4
 # iter = 66500  time[fs]=66.50000
   C -0.713334928E+01 -0.368513143E+00  0.301801392E+00
   C  0.730849919E+01  0.489693053E-01  0.110678023E+00
   H -0.374896788E+02  0.234372325E+01 -0.252699901E+01
   H  0.366469481E+02  0.166455925E+01 -0.254529368E+01
     4
 # iter = 67000  time[fs]=67.00000
   C -0.721662368E+01 -0.373025433E+00  0.305382202E+00
   C  0.739292038E+01  0.494299138E-01  0.112074377E+00
   H -0.378940208E+02  0.236889252E+01 -0.255440724E+01
   H  0.370404693E+02  0.168225231E+01 -0.257267644E+01
     4
 # iter = 67500  time[fs]=67.50000
   C -0.729995463E+01 -0.377540257E+00  0.308964691E+00
   C  0.747739827E+01  0.498917914E-01  0.113470642E+00
   H -0.382984854E+02  0.239407105E+01 -0.258182524E+01
   H  0.374341114E+02  0.169995127E+01 -0.260006853E+01
     4
 # iter = 68000  time[fs]=68.00000
   C -0.738334085E+01 -0.382057557E+00  0.312548824E+00
   C  0.756193158E+01  0.503549088E-01  0.114866823E+00
   H -0.387030700E+02  0.241925865E+01 -0.260925280E+01
   H  0.378278718E+02  0.171765601E+01 -0.262746975E+01
     4
 # iter = 68500  time[fs]=68.50000
   C -0.746678110E+01 -0.386577282E+00  0.316134565E+00
   C  0.764651906E+01  0.508192381E-01  0.116262923E+00
   H -0.391077723E+02  0.244445514E+01 -0.263668975E+01
   H  0.382217482E+02  0.173536641E+01 -0.265487993E+01
     4
 # iter = 69000  time[fs]=69.00000
   C -0.755027418E+01 -0.391099378E+00  0.319721881E+00
   C  0.773115951E+01  0.512847520E-01  0.117658944E+00
   H -0.395125899E+02  0.246966033E+01 -0.266413588E+01
   H  0.386157380E+02  0.175308236E+01 -0.268229887E+01
     4
 # iter = 69500  time[fs]=69.50000
   C -0.763381892E+01 -0.395623798E+00  0.323310738E+00
   C  0.781585176E+01  0.517514243E-01  0.119054891E+00
   H -0.399175203E+02  0.249487406E+01 -0.269159102E+01
   H  0.390098391E+02  0.177080374E+01 -0.270972641E+01
     4
 # iter = 70000  time[fs]=70.00000
   C -0.771741418E+01 -0.400150491E+00  0.326901105E+00
   C  0.790059467E+01  0.522192296E-01  0.120450766E+00
   H -0.403225613E+02  0.252009615E+01 -0.271905498E+01
   H  0.394040492E+02  0.178853045E+01 -0.273716237E+01
     4
 # iter = 70500  time[fs]=70.50000
   C -0.780105890E+01 -0.404679412E+00  0.330492950E+00
   C  0.798538716E+01  0.526881431E-01  0.121846572E+00
   H -0.407277108E+02  0.254532645E+01 -0.274652760E+01
   H  0.397983661E+02  0.180626238E+01 -0.276460660E+01
     4
 # iter = 71000  time[fs]=71.00000
   C -0.788475199E+01 -0.409210514E+00  0.334086244E+00
   C  0.807022817E+01  0.531581410E-01  0.123242312E+00
   H -0.411329667E+02  0.257056479E+01 -0.277400871E+01
   H  0.401927878E+02  0.182399943E+01 -0.279205892E+01
     4
 # iter = 71500  time[fs]=71.50000
   C -0.796849245E+01 -0.413743753E+00  0.337680957E+00
   C  0.815511666E+01  0.536292003E-01  0.124637989E+00
   H -0.415383267E+02  0.259581103E+01 -0.280149815E+01
   H  0.405873122E+02  0.184174150E+01 -0.281951919E+01
     4
 # iter = 72000  time[fs]=72.00000
   C -0.805227927E+01 -0.418279087E+00  0.341277062E+00
   C  0.824005165E+01  0.541012985E-01  0.126033605E+00
   H -0.419437891E+02  0.262106500E+01 -0.282899576E+01
   H  0.409819374E+02  0.185948849E+01 -0.284698725E+01
     4
 # iter = 72500  time[fs]=72.50000
   C -0.813611151E+01 -0.422816473E+00  0.344874531E+00
   C  0.832503216E+01  0.545744140E-01  0.127429162E+00
   H -0.423493517E+02  0.264632658E+01 -0.285650139E+01
   H  0.413766615E+02  0.187724032E+01 -0.287446297E+01
     4
 # iter = 73000  time[fs]=73.00000
   C -0.821998821E+01 -0.427355873E+00  0.348473336E+00
   C  0.841005727E+01  0.550485256E-01  0.128824663E+00
   H -0.427550127E+02  0.267159560E+01 -0.288401488E+01
   H  0.417714825E+02  0.189499689E+01 -0.290194618E+01
     4
 # iter = 73500  time[fs]=73.50000
   C -0.830390849E+01 -0.431897245E+00  0.352073453E+00
   C  0.849512606E+01  0.555236130E-01  0.130220110E+00
   H -0.431607703E+02  0.269687195E+01 -0.291153610E+01
   H  0.421663986E+02  0.191275811E+01 -0.292943676E+01
     4
 # iter = 74000  time[fs]=74.00000
   C -0.838787145E+01 -0.436440553E+00  0.355674856E+00
   C  0.858023766E+01  0.559996564E-01  0.131615505E+00
   H -0.435666227E+02  0.272215548E+01 -0.293906489E+01
   H  0.425614081E+02  0.193052390E+01 -0.295693458E+01
     4
 # iter = 74500  time[fs]=74.50000
   C -0.847187625E+01 -0.440985759E+00  0.359277521E+00
   C  0.866539121E+01  0.564766365E-01  0.133010851E+00
   H -0.439725681E+02  0.274744606E+01 -0.296660113E+01
   H  0.429565093E+02  0.194829418E+01 -0.298443949E+01
     4
 # iter = 75000  time[fs]=75.00000
   C -0.855592207E+01 -0.445532827E+00  0.362881424E+00
   C  0.875058589E+01  0.569545347E-01  0.134406149E+00
   H -0.443786049E+02  0.277274357E+01 -0.299414469E+01
   H  0.433517006E+02  0.196606885E+01 -0.301195137E+01
     4
 # iter = 75500  time[fs]=75.50000
   C -0.864000809E+01 -0.450081723E+00  0.366486542E+00
   C  0.883582087E+01  0.574333328E-01  0.135801401E+00
   H -0.447847313E+02  0.279804788E+01 -0.302169542E+01
   H  0.437469802E+02  0.198384785E+01 -0.303947010E+01
     4
 # iter = 76000  time[fs]=76.00000
   C -0.872413353E+01 -0.454632412E+00  0.370092853E+00
   C  0.892109540E+01  0.579130133E-01  0.137196608E+00
   H -0.451909458E+02  0.282335888E+01 -0.304925321E+01
   H  0.441423466E+02  0.200163110E+01 -0.306699556E+01
     4
 # iter = 76500  time[fs]=76.50000
   C -0.880829764E+01 -0.459184861E+00  0.373700334E+00
   C  0.900640869E+01  0.583935591E-01  0.138591774E+00
   H -0.455972469E+02  0.284867645E+01 -0.307681793E+01
   H  0.445377982E+02  0.201941852E+01 -0.309452763E+01
     4
 # iter = 77000  time[fs]=77.00000
   C -0.889249969E+01 -0.463739038E+00  0.377308965E+00
   C  0.909176002E+01  0.588749535E-01  0.139986898E+00
   H -0.460036329E+02  0.287400047E+01 -0.310438946E+01
   H  0.449333336E+02  0.203721003E+01 -0.312206619E+01
     4
 # iter = 77500  time[fs]=77.50000
   C -0.897673895E+01 -0.468294912E+00  0.380918725E+00
   C  0.917714866E+01  0.593571805E-01  0.141381984E+00
   H -0.464101025E+02  0.289933083E+01 -0.313196769E+01
   H  0.453289514E+02  0.205500558E+01 -0.314961113E+01
     4
 # iter = 78000  time[fs]=78.00000
   C -0.906101472E+01 -0.472852452E+00  0.384529593E+00
   C  0.926257392E+01  0.598402242E-01  0.142777032E+00
   H -0.468166541E+02  0.292466743E+01 -0.315955250E+01
   H  0.457246500E+02  0.207280508E+01 -0.317716234E+01
     4
 # iter = 78500  time[fs]=78.50000
   C -0.914532633E+01 -0.477411629E+00  0.388141550E+00
   C  0.934803511E+01  0.603240695E-01  0.144172043E+00
   H -0.472232864E+02  0.295001016E+01 -0.318714377E+01
   H  0.461204281E+02  0.209060848E+01 -0.320471972E+01
     4
 # iter = 79000  time[fs]=79.00000
   C -0.922967313E+01 -0.481972414E+00  0.391754577E+00
   C  0.943353159E+01  0.608087014E-01  0.145567020E+00
   H -0.476299980E+02  0.297535891E+01 -0.321474141E+01
   H  0.465162843E+02  0.210841570E+01 -0.323228316E+01
     4
 # iter = 79500  time[fs]=79.50000
   C -0.931405446E+01 -0.486534778E+00  0.395368656E+00
   C  0.951906269E+01  0.612941056E-01  0.146961964E+00
   H -0.480367875E+02  0.300071359E+01 -0.324234530E+01
   H  0.469122174E+02  0.212622668E+01 -0.325985257E+01
     4
 # iter = 80000  time[fs]=80.00000
   C -0.939846970E+01 -0.491098694E+00  0.398983768E+00
   C  0.960462780E+01  0.617802679E-01  0.148356876E+00
   H -0.484436537E+02  0.302607410E+01 -0.326995535E+01
   H  0.473082260E+02  0.214404137E+01 -0.328742784E+01
