     4
 # iter = 25000  time[fs]=25.00000
   C -0.104503549E+01 -0.590332075E-01 -0.363890862E-02
   C  0.998253468E+00  0.112473090E-02 -0.405907558E-01
   H -0.534942764E+01  0.653490715E+00 -0.384203636E-01
   H  0.536636256E+01 -0.433368458E+00 -0.224814491E+00
     4
 # iter = 25500  time[fs]=25.50000
   C -0.109588237E+01 -0.625164264E-01 -0.290870901E-02
   C  0.104182911E+01  0.238248791E-02 -0.407512301E-01
   H -0.568449383E+01  0.696893099E+00 -0.403332431E-01
   H  0.568821755E+01 -0.462470358E+00 -0.237834154E+00
     4
 # iter = 26000  time[fs]=26.00000
   C -0.114953208E+01 -0.661335903E-01 -0.211808443E-02
   C  0.108824092E+01  0.374342256E-02 -0.409534164E-01
   H -0.602511922E+01  0.741106971E+00 -0.422725815E-01
   H  0.601523157E+01 -0.492014538E+00 -0.251051913E+00
     4
 # iter = 26500  time[fs]=26.50000
   C -0.120574577E+01 -0.698740139E-01 -0.127337869E-02
   C  0.113724476E+01  0.520058388E-02 -0.411929011E-01
   H -0.637068169E+01  0.786041782E+00 -0.442359243E-01
   H  0.634684619E+01 -0.521955261E+00 -0.264447061E+00
     4
 # iter = 27000  time[fs]=27.00000
   C -0.126430263E+01 -0.737279851E-01 -0.380199843E-03
   C  0.118861552E+01  0.674737700E-02 -0.414657355E-01
   H -0.672065246E+01  0.831620839E+00 -0.462211465E-01
   H  0.668258400E+01 -0.552253240E+00 -0.278001811E+00
     4
 # iter = 27500  time[fs]=27.50000
   C -0.132500031E+01 -0.776866681E-01  0.556506672E-03
   C  0.124214740E+01  0.837759093E-02 -0.417684091E-01
   H -0.707457924E+01  0.877778691E+00 -0.482263944E-01
   H  0.702203445E+01 -0.582874522E+00 -0.291700796E+00
     4
 # iter = 28000  time[fs]=28.00000
   C -0.138765457E+01 -0.817420220E-01  0.153238513E-02
   C  0.129765327E+01  0.100854130E-01 -0.420978143E-01
   H -0.743207272E+01  0.924459094E+00 -0.502500392E-01
   H  0.736484244E+01 -0.613789603E+00 -0.305530668E+00
     4
 # iter = 28500  time[fs]=28.50000
   C -0.145209833E+01 -0.858867298E-01  0.254360025E-02
   C  0.135496373E+01  0.118654317E-01 -0.424512070E-01
   H -0.779279591E+01  0.971613401E+00 -0.522906421E-01
   H  0.771069917E+01 -0.644972699E+00 -0.319479774E+00
     4
 # iter = 29000  time[fs]=29.00000
   C -0.151818060E+01 -0.901141331E-01  0.358677332E-02
   C  0.141392582E+01  0.137126294E-01 -0.428261668E-01
   H -0.815645547E+01  0.101919928E+01 -0.543469248E-01
   H  0.805933476E+01 -0.676401173E+00 -0.333537888E+00
     4
 # iter = 29500  time[fs]=29.50000
   C -0.158576510E+01 -0.944181726E-01  0.465892463E-02
   C  0.147440164E+01  0.156223686E-01 -0.432205602E-01
   H -0.852279474E+01  0.106717971E+01 -0.564177464E-01
   H  0.841051219E+01 -0.708055051E+00 -0.347696000E+00
     4
 # iter = 30000  time[fs]=30.00000
   C -0.165472903E+01 -0.987933325E-01  0.575742226E-02
   C  0.153626699E+01  0.175903731E-01 -0.436325051E-01
   H -0.889158808E+01  0.111552209E+01 -0.585020846E-01
   H  0.876402234E+01 -0.739916631E+00 -0.361946133E+00
     4
 # iter = 30500  time[fs]=30.50000
   C -0.172496170E+01 -0.103234590E+00  0.687993711E-02
   C  0.159941003E+01  0.196127062E-01 -0.440603400E-01
   H -0.926263620E+01  0.116419766E+01 -0.605990193E-01
   H  0.911967995E+01 -0.771970164E+00 -0.376281197E+00
     4
 # iter = 31000  time[fs]=31.00000
   C -0.179636333E+01 -0.107737367E+00  0.802440370E-02
   C  0.166372998E+01  0.216857476E-01 -0.445025958E-01
   H -0.963576233E+01  0.121318084E+01 -0.627077198E-01
   H  0.947732019E+01 -0.804201577E+00 -0.390694863E+00
     4
 # iter = 31500  time[fs]=31.50000
   C -0.186884393E+01 -0.112297490E+00  0.918898606E-02
   C  0.172913599E+01  0.238061699E-01 -0.449579716E-01
   H -0.100108091E+02  0.126244887E+01 -0.648274338E-01
   H  0.983679589E+01 -0.836598254E+00 -0.405181467E+00
     4
 # iter = 32000  time[fs]=32.00000
   C -0.194232223E+01 -0.116911147E+00  0.103720484E-01
   C  0.179554606E+01  0.259709152E-01 -0.454253127E-01
   H -0.103876356E+02  0.131198134E+01 -0.669574772E-01
   H  0.101979751E+02 -0.869148843E+00 -0.419735916E+00
     4
 # iter = 32500  time[fs]=32.50000
   C -0.201672477E+01 -0.121574855E+00  0.115721294E-01
   C  0.186288610E+01  0.281771731E-01 -0.459035926E-01
   H -0.107661158E+02  0.136175994E+01 -0.690972270E-01
   H  0.105607393E+02 -0.901843096E+00 -0.434353618E+00
     4
 # iter = 33000  time[fs]=33.00000
   C -0.209198505E+01 -0.126285428E+00  0.127879207E-01
   C  0.193108904E+01  0.304223594E-01 -0.463918963E-01
   H -0.111461359E+02  0.141176815E+01 -0.712461136E-01
   H  0.109249814E+02 -0.934671733E+00 -0.449030421E+00
     4
 # iter = 33500  time[fs]=33.50000
   C -0.216804277E+01 -0.131039946E+00  0.140182476E-01
   C  0.200009410E+01  0.327040966E-01 -0.468894066E-01
   H -0.115275933E+02  0.146199105E+01 -0.734036155E-01
   H  0.112906045E+02 -0.967626327E+00 -0.463762557E+00
     4
 # iter = 34000  time[fs]=34.00000
   C -0.224484318E+01 -0.135835730E+00  0.152620529E-01
   C  0.206984610E+01  0.350201954E-01 -0.473953916E-01
   H -0.119103949E+02  0.151241509E+01 -0.755692536E-01
   H  0.116575209E+02 -0.100069920E+01 -0.478546601E+00
     4
 # iter = 34500  time[fs]=34.50000
   C -0.232233644E+01 -0.140670319E+00  0.165183829E-01
   C  0.214029486E+01  0.373686381E-01 -0.479091950E-01
   H -0.122944564E+02  0.156302795E+01 -0.777425872E-01
   H  0.120256504E+02 -0.103388336E+01 -0.493379426E+00
     4
 # iter = 35000  time[fs]=35.00000
   C -0.240047718E+01 -0.145541450E+00  0.177863750E-01
   C  0.221139463E+01  0.397475634E-01 -0.484302259E-01
   H -0.126797007E+02  0.161381837E+01 -0.799232097E-01
   H  0.123949202E+02 -0.106717237E+01 -0.508258175E+00
     4
 # iter = 35500  time[fs]=35.50000
   C -0.247922396E+01 -0.150447037E+00  0.190652472E-01
   C  0.228310371E+01  0.421552523E-01 -0.489579522E-01
   H -0.130660576E+02  0.166477608E+01 -0.821107454E-01
   H  0.127652635E+02 -0.110056036E+01 -0.523180230E+00
     4
 # iter = 36000  time[fs]=36.00000
   C -0.255853889E+01 -0.155385157E+00  0.203542890E-01
   C  0.235538392E+01  0.445901151E-01 -0.494918926E-01
   H -0.134534627E+02  0.171589165E+01 -0.843048465E-01
   H  0.131366191E+02 -0.113404191E+01 -0.538143184E+00
     4
 # iter = 36500  time[fs]=36.50000
   C -0.263838726E+01 -0.160354030E+00  0.216528533E-01
   C  0.242820035E+01  0.470506805E-01 -0.500316115E-01
   H -0.138418571E+02  0.176715642E+01 -0.865051902E-01
   H  0.135089307E+02 -0.116761204E+01 -0.553144822E+00
     4
 # iter = 37000  time[fs]=37.00000
   C -0.271873723E+01 -0.165352013E+00  0.229603495E-01
   C  0.250152092E+01  0.495355849E-01 -0.505767138E-01
   H -0.142311863E+02  0.181856240E+01 -0.887114768E-01
   H  0.138821466E+02 -0.120126613E+01 -0.568183101E+00
     4
 # iter = 37500  time[fs]=37.50000
   C -0.279955952E+01 -0.170377581E+00  0.242762375E-01
   C  0.257531618E+01  0.520435629E-01 -0.511268398E-01
   H -0.146214004E+02  0.187010223E+01 -0.909234272E-01
   H  0.142562191E+02 -0.123499994E+01 -0.583256134E+00
     4
 # iter = 38000  time[fs]=38.00000
   C -0.288082719E+01 -0.175429321E+00  0.256000223E-01
   C  0.264955900E+01  0.545734387E-01 -0.516816619E-01
   H -0.150124532E+02  0.192176910E+01 -0.931407812E-01
   H  0.146311039E+02 -0.126880951E+01 -0.598362169E+00
     4
 # iter = 38500  time[fs]=38.50000
   C -0.296251538E+01 -0.180505917E+00  0.269312493E-01
   C  0.272422440E+01  0.571241189E-01 -0.522408811E-01
   H -0.154043020E+02  0.197355670E+01 -0.953632959E-01
   H  0.150067601E+02 -0.130269117E+01 -0.613499587E+00
     4
 # iter = 39000  time[fs]=39.00000
   C -0.304460115E+01 -0.185606149E+00  0.282695003E-01
   C  0.279928926E+01  0.596945848E-01 -0.528042237E-01
   H -0.157969070E+02  0.202545916E+01 -0.975907443E-01
   H  0.153831498E+02 -0.133664151E+01 -0.628666877E+00
     4
 # iter = 39500  time[fs]=39.50000
   C -0.312706325E+01 -0.190728876E+00  0.296143897E-01
   C  0.287473224E+01  0.622838868E-01 -0.533714389E-01
   H -0.161902314E+02  0.207747105E+01 -0.998229136E-01
   H  0.157602378E+02 -0.137065735E+01 -0.643862638E+00
     4
 # iter = 40000  time[fs]=40.00000
   C -0.320988202E+01 -0.195873038E+00  0.309655616E-01
   C  0.295053354E+01  0.648911383E-01 -0.539422963E-01
   H -0.165842412E+02  0.212958729E+01 -0.102059604E+00
   H  0.161379911E+02 -0.140473573E+01 -0.659085560E+00
     4
 # iter = 40500  time[fs]=40.50000
   C -0.329303921E+01 -0.201037641E+00  0.323226867E-01
   C  0.302667480E+01  0.675155106E-01 -0.545165840E-01
   H -0.169789043E+02  0.218180315E+01 -0.104300630E+00
   H  0.165163792E+02 -0.143887387E+01 -0.674334422E+00
     4
 # iter = 41000  time[fs]=41.00000
   C -0.337651784E+01 -0.206221758E+00  0.336854599E-01
   C  0.310313898E+01  0.701562283E-01 -0.550941069E-01
   H -0.173741911E+02  0.223411420E+01 -0.106545813E+00
   H  0.168953734E+02 -0.147306919E+01 -0.689608080E+00
     4
 # iter = 41500  time[fs]=41.50000
   C -0.346030214E+01 -0.211424521E+00  0.350535980E-01
   C  0.317991019E+01  0.728125650E-01 -0.556746847E-01
   H -0.177700737E+02  0.228651630E+01 -0.108794989E+00
   H  0.172749470E+02 -0.150731924E+01 -0.704905466E+00
     4
 # iter = 42000  time[fs]=42.00000
   C -0.354437741E+01 -0.216645115E+00  0.364268380E-01
   C  0.325697365E+01  0.754838394E-01 -0.562581509E-01
   H -0.181665262E+02  0.233900559E+01 -0.111048002E+00
   H  0.176550750E+02 -0.154162175E+01 -0.720225577E+00
     4
 # iter = 42500  time[fs]=42.50000
   C -0.362872992E+01 -0.221882776E+00  0.378049347E-01
   C  0.333431556E+01  0.781694121E-01 -0.568443512E-01
   H -0.185635241E+02  0.239157842E+01 -0.113304705E+00
   H  0.180357340E+02 -0.157597458E+01 -0.735567470E+00
     4
 # iter = 43000  time[fs]=43.00000
   C -0.371334685E+01 -0.227136787E+00  0.391876600E-01
   C  0.341192305E+01  0.808686819E-01 -0.574331427E-01
   H -0.189610446E+02  0.244423139E+01 -0.115564958E+00
   H  0.184169017E+02 -0.161037571E+01 -0.750930260E+00
     4
 # iter = 43500  time[fs]=43.50000
   C -0.379821622E+01 -0.232406473E+00  0.405748004E-01
   C  0.348978405E+01  0.835810833E-01 -0.580243924E-01
   H -0.193590662E+02  0.249696126E+01 -0.117828631E+00
   H  0.187985576E+02 -0.164482323E+01 -0.766313115E+00
     4
 # iter = 44000  time[fs]=44.00000
   C -0.388332679E+01 -0.237691197E+00  0.419661569E-01
   C  0.356788729E+01  0.863060838E-01 -0.586179770E-01
   H -0.197575687E+02  0.254976503E+01 -0.120095598E+00
   H  0.191806822E+02 -0.167931538E+01 -0.781715249E+00
     4
 # iter = 44500  time[fs]=44.50000
   C -0.396866805E+01 -0.242990362E+00  0.433615429E-01
   C  0.364622217E+01  0.890431815E-01 -0.592137813E-01
   H -0.201565331E+02  0.260263984E+01 -0.122365743E+00
   H  0.195632570E+02 -0.171385044E+01 -0.797135922E+00
     4
 # iter = 45000  time[fs]=45.00000
   C -0.405423011E+01 -0.248303401E+00  0.447607835E-01
   C  0.372477877E+01  0.917919025E-01 -0.598116982E-01
   H -0.205559415E+02  0.265558299E+01 -0.124638953E+00
   H  0.199462647E+02 -0.174842682E+01 -0.812574436E+00
     4
 # iter = 45500  time[fs]=45.50000
   C -0.414000368E+01 -0.253629783E+00  0.461637148E-01
   C  0.380354776E+01  0.945517994E-01 -0.604116274E-01
   H -0.209557768E+02  0.270859195E+01 -0.126915123E+00
   H  0.203296890E+02 -0.178304303E+01 -0.828030128E+00
     4
 # iter = 46000  time[fs]=46.00000
   C -0.422598003E+01 -0.258969001E+00  0.475701827E-01
   C  0.388252035E+01  0.973224494E-01 -0.610134755E-01
   H -0.213560233E+02  0.276166430E+01 -0.129194153E+00
   H  0.207135144E+02 -0.181769761E+01 -0.843502375E+00
     4
 # iter = 46500  time[fs]=46.50000
   C -0.431215093E+01 -0.264320581E+00  0.489800422E-01
   C  0.396168828E+01  0.100103452E+00 -0.616171548E-01
   H -0.217566656E+02  0.281479778E+01 -0.131475946E+00
   H  0.210977263E+02 -0.185238923E+01 -0.858990583E+00
     4
 # iter = 47000  time[fs]=47.00000
   C -0.439850862E+01 -0.269684069E+00  0.503931570E-01
   C  0.404104376E+01  0.102894429E+00 -0.622225832E-01
   H -0.221576896E+02  0.286799021E+01 -0.133760412E+00
   H  0.214823108E+02 -0.188711660E+01 -0.874494192E+00
     4
 # iter = 47500  time[fs]=47.50000
   C -0.448504580E+01 -0.275059037E+00  0.518093985E-01
   C  0.412057943E+01  0.105695021E+00 -0.628296837E-01
   H -0.225590816E+02  0.292123957E+01 -0.136047464E+00
   H  0.218672548E+02 -0.192187848E+01 -0.890012670E+00
     4
 # iter = 48000  time[fs]=48.00000
   C -0.457175554E+01 -0.280445080E+00  0.532286452E-01
   C  0.420028835E+01  0.108504886E+00 -0.634383840E-01
   H -0.229608288E+02  0.297454390E+01 -0.138337020E+00
   H  0.222525457E+02 -0.195667374E+01 -0.905545509E+00
     4
 # iter = 48500  time[fs]=48.50000
   C -0.465863131E+01 -0.285841813E+00  0.546507827E-01
   C  0.428016396E+01  0.111323702E+00 -0.640486161E-01
   H -0.233629190E+02  0.302790135E+01 -0.140629002E+00
   H  0.226381719E+02 -0.199150126E+01 -0.921092231E+00
     4
 # iter = 49000  time[fs]=49.00000
   C -0.474566694E+01 -0.291248868E+00  0.560757026E-01
   C  0.436020003E+01  0.114151162E+00 -0.646603161E-01
   H -0.237653406E+02  0.308131019E+01 -0.142923333E+00
   H  0.230241220E+02 -0.202635999E+01 -0.936652377E+00
     4
 # iter = 49500  time[fs]=49.50000
   C -0.483285656E+01 -0.296665899E+00  0.575033024E-01
   C  0.444039070E+01  0.116986972E+00 -0.652734236E-01
   H -0.241680825E+02  0.313476872E+01 -0.145219943E+00
   H  0.234103853E+02 -0.206124894E+01 -0.952225512E+00
     4
 # iter = 50000  time[fs]=50.00000
   C -0.492019463E+01 -0.302092574E+00  0.589334850E-01
   C  0.452073039E+01  0.119830856E+00 -0.658878818E-01
   H -0.245711343E+02  0.318827536E+01 -0.147518764E+00
   H  0.237969516E+02 -0.209616716E+01 -0.967811222E+00
     4
 # iter = 50500  time[fs]=50.50000
   C -0.500767588E+01 -0.307528577E+00  0.603661584E-01
   C  0.460121379E+01  0.122682548E+00 -0.665036372E-01
   H -0.249744860E+02  0.324182860E+01 -0.149819730E+00
   H  0.241838113E+02 -0.213111372E+01 -0.983409112E+00
     4
 # iter = 51000  time[fs]=51.00000
   C -0.509529531E+01 -0.312973608E+00  0.618012353E-01
   C  0.468183591E+01  0.125541796E+00 -0.671206390E-01
   H -0.253781280E+02  0.329542699E+01 -0.152122777E+00
   H  0.245709551E+02 -0.216608778E+01 -0.999018803E+00
     4
 # iter = 51500  time[fs]=51.50000
   C -0.518304818E+01 -0.318427380E+00  0.632386327E-01
   C  0.476259196E+01  0.128408359E+00 -0.677388393E-01
   H -0.257820514E+02  0.334906915E+01 -0.154427847E+00
   H  0.249583741E+02 -0.220108849E+01 -0.101463994E+01
     4
 # iter = 52000  time[fs]=52.00000
   C -0.527092996E+01 -0.323889620E+00  0.646782720E-01
   C  0.484347740E+01  0.131282009E+00 -0.683581929E-01
   H -0.261862473E+02  0.340275376E+01 -0.156734883E+00
   H  0.253460600E+02 -0.223611507E+01 -0.103027217E+01
     4
 # iter = 52500  time[fs]=52.50000
   C -0.535893635E+01 -0.329360067E+00  0.661200781E-01
   C  0.492448793E+01  0.134162526E+00 -0.689786566E-01
   H -0.265907076E+02  0.345647956E+01 -0.159043828E+00
   H  0.257340047E+02 -0.227116676E+01 -0.104591517E+01
     4
 # iter = 53000  time[fs]=53.00000
   C -0.544706328E+01 -0.334838472E+00  0.675639798E-01
   C  0.500561942E+01  0.137049700E+00 -0.696001899E-01
   H -0.269954244E+02  0.351024534E+01 -0.161354631E+00
   H  0.261222005E+02 -0.230624283E+01 -0.106156863E+01
     4
 # iter = 53500  time[fs]=53.50000
   C -0.553530683E+01 -0.340324596E+00  0.690099090E-01
   C  0.508686797E+01  0.139943331E+00 -0.702227542E-01
   H -0.274003900E+02  0.356404995E+01 -0.163667240E+00
   H  0.265106400E+02 -0.234134259E+01 -0.107723224E+01
     4
 # iter = 54000  time[fs]=54.00000
   C -0.562366328E+01 -0.345818211E+00  0.704578012E-01
   C  0.516822983E+01  0.142843229E+00 -0.708463127E-01
   H -0.278055972E+02  0.361789229E+01 -0.165981608E+00
   H  0.268993163E+02 -0.237646538E+01 -0.109290571E+01
     4
 # iter = 54500  time[fs]=54.50000
   C -0.571212909E+01 -0.351319098E+00  0.719075944E-01
   C  0.524970145E+01  0.145749209E+00 -0.714708306E-01
   H -0.282110392E+02  0.367177129E+01 -0.168297687E+00
   H  0.272882225E+02 -0.241161056E+01 -0.110858877E+01
     4
 # iter = 55000  time[fs]=55.00000
   C -0.580070087E+01 -0.356827049E+00  0.733592298E-01
   C  0.533127941E+01  0.148661096E+00 -0.720962749E-01
   H -0.286167092E+02  0.372568594E+01 -0.170615433E+00
   H  0.276773522E+02 -0.244677751E+01 -0.112428116E+01
     4
 # iter = 55500  time[fs]=55.50000
   C -0.588937537E+01 -0.362341863E+00  0.748126510E-01
   C  0.541296047E+01  0.151578723E+00 -0.727226139E-01
   H -0.290226009E+02  0.377963527E+01 -0.172934802E+00
   H  0.280666991E+02 -0.248196565E+01 -0.113998261E+01
     4
 # iter = 56000  time[fs]=56.00000
   C -0.597814951E+01 -0.367863348E+00  0.762678043E-01
   C  0.549474152E+01  0.154501927E+00 -0.733498177E-01
   H -0.294287082E+02  0.383361834E+01 -0.175255754E+00
   H  0.284562574E+02 -0.251717441E+01 -0.115569289E+01
     4
 # iter = 56500  time[fs]=56.50000
   C -0.606702032E+01 -0.373391320E+00  0.777246381E-01
   C  0.557661958E+01  0.157430554E+00 -0.739778577E-01
   H -0.298350253E+02  0.388763426E+01 -0.177578248E+00
   H  0.288460214E+02 -0.255240325E+01 -0.117141176E+01
     4
 # iter = 57000  time[fs]=57.00000
   C -0.615598496E+01 -0.378925601E+00  0.791831033E-01
   C  0.565859181E+01  0.160364456E+00 -0.746067067E-01
   H -0.302415465E+02  0.394168216E+01 -0.179902246E+00
   H  0.292359855E+02 -0.258765165E+01 -0.118713900E+01
     4
 # iter = 57500  time[fs]=57.50000
   C -0.624504073E+01 -0.384466022E+00  0.806431526E-01
   C  0.574065548E+01  0.163303490E+00 -0.752363386E-01
   H -0.306482664E+02  0.399576121E+01 -0.182227710E+00
   H  0.296261445E+02 -0.262291912E+01 -0.120287438E+01
     4
 # iter = 58000  time[fs]=58.00000
   C -0.633418501E+01 -0.390012420E+00  0.821047409E-01
   C  0.582280798E+01  0.166247520E+00 -0.758667286E-01
   H -0.310551798E+02  0.404987061E+01 -0.184554606E+00
   H  0.300164933E+02 -0.265820516E+01 -0.121861771E+01
     4
 # iter = 58500  time[fs]=58.50000
   C -0.642341532E+01 -0.395564637E+00  0.835678249E-01
   C  0.590504679E+01  0.169196412E+00 -0.764978530E-01
   H -0.314622818E+02  0.410400960E+01 -0.186882898E+00
   H  0.304070270E+02 -0.269350931E+01 -0.123436877E+01
     4
 # iter = 59000  time[fs]=59.00000
   C -0.651272926E+01 -0.401122523E+00  0.850323630E-01
   C  0.598736953E+01  0.172150042E+00 -0.771296891E-01
   H -0.318695674E+02  0.415817743E+01 -0.189212554E+00
   H  0.307977410E+02 -0.272883112E+01 -0.125012737E+01
     4
 # iter = 59500  time[fs]=59.50000
   C -0.660212453E+01 -0.406685933E+00  0.864983155E-01
   C  0.606977388E+01  0.175108286E+00 -0.777622152E-01
   H -0.322770322E+02  0.421237341E+01 -0.191543541E+00
   H  0.311886307E+02 -0.276417017E+01 -0.126589334E+01
     4
 # iter = 60000  time[fs]=60.00000
   C -0.669159893E+01 -0.412254726E+00  0.879656440E-01
   C  0.615225763E+01  0.178071029E+00 -0.783954106E-01
   H -0.326846716E+02  0.426659683E+01 -0.193875829E+00
   H  0.315796918E+02 -0.279952604E+01 -0.128166649E+01
     4
 # iter = 60500  time[fs]=60.50000
   C -0.678115034E+01 -0.417828768E+00  0.894343117E-01
   C  0.623481865E+01  0.181038156E+00 -0.790292555E-01
   H -0.330924813E+02  0.432084704E+01 -0.196209387E+00
   H  0.319709201E+02 -0.283489833E+01 -0.129744664E+01
     4
 # iter = 61000  time[fs]=61.00000
   C -0.687077671E+01 -0.423407930E+00  0.909042833E-01
   C  0.631745489E+01  0.184009559E+00 -0.796637307E-01
   H -0.335004573E+02  0.437512339E+01 -0.198544187E+00
   H  0.323623115E+02 -0.287028665E+01 -0.131323364E+01
     4
 # iter = 61500  time[fs]=61.50000
   C -0.696047610E+01 -0.428992086E+00  0.923755249E-01
   C  0.640016439E+01  0.186985133E+00 -0.802988182E-01
   H -0.339085954E+02  0.442942529E+01 -0.200880202E+00
   H  0.327538622E+02 -0.290569062E+01 -0.132902731E+01
     4
 # iter = 62000  time[fs]=62.00000
   C -0.705024661E+01 -0.434581115E+00  0.938480038E-01
   C  0.648294526E+01  0.189964778E+00 -0.809345002E-01
   H -0.343168920E+02  0.448375212E+01 -0.203217403E+00
   H  0.331455684E+02 -0.294110989E+01 -0.134482751E+01
     4
 # iter = 62500  time[fs]=62.50000
   C -0.714008643E+01 -0.440174902E+00  0.953216884E-01
   C  0.656579566E+01  0.192948395E+00 -0.815707602E-01
   H -0.347253432E+02  0.453810332E+01 -0.205555765E+00
   H  0.335374265E+02 -0.297654411E+01 -0.136063408E+01
     4
 # iter = 63000  time[fs]=63.00000
   C -0.722999381E+01 -0.445773333E+00  0.967965486E-01
   C  0.664871386E+01  0.195935890E+00 -0.822075820E-01
   H -0.351339454E+02  0.459247832E+01 -0.207895263E+00
   H  0.339294329E+02 -0.301199294E+01 -0.137644688E+01
     4
 # iter = 63500  time[fs]=63.50000
   C -0.731996707E+01 -0.451376302E+00  0.982725550E-01
   C  0.673169815E+01  0.198927173E+00 -0.828449501E-01
   H -0.355426953E+02  0.464687661E+01 -0.210235872E+00
   H  0.343215843E+02 -0.304745606E+01 -0.139226577E+01
     4
 # iter = 64000  time[fs]=64.00000
   C -0.741000458E+01 -0.456983702E+00  0.997496796E-01
   C  0.681474691E+01  0.201922155E+00 -0.834828496E-01
   H -0.359515894E+02  0.470129765E+01 -0.212577568E+00
   H  0.347138774E+02 -0.308293315E+01 -0.140809062E+01
     4
 # iter = 64500  time[fs]=64.50000
   C -0.750010479E+01 -0.462595432E+00  0.101227895E+00
   C  0.689785856E+01  0.204920752E+00 -0.841212663E-01
   H -0.363606245E+02  0.475574095E+01 -0.214920330E+00
   H  0.351063091E+02 -0.311842390E+01 -0.142392128E+01
     4
 # iter = 65000  time[fs]=65.00000
   C -0.759026617E+01 -0.468211396E+00  0.102707176E+00
   C  0.698103160E+01  0.207922883E+00 -0.847601864E-01
   H -0.367697975E+02  0.481020602E+01 -0.217264133E+00
   H  0.354988762E+02 -0.315392803E+01 -0.143975764E+01
     4
 # iter = 65500  time[fs]=65.50000
   C -0.768048728E+01 -0.473831498E+00  0.104187496E+00
   C  0.706426455E+01  0.210928467E+00 -0.853995967E-01
   H -0.371791054E+02  0.486469239E+01 -0.219608958E+00
   H  0.358915758E+02 -0.318944524E+01 -0.145559957E+01
     4
 # iter = 66000  time[fs]=66.00000
   C -0.777076670E+01 -0.479455647E+00  0.105668832E+00
   C  0.714755601E+01  0.213937428E+00 -0.860394845E-01
   H -0.375885452E+02  0.491919961E+01 -0.221954783E+00
   H  0.362844050E+02 -0.322497527E+01 -0.147144696E+01
     4
 # iter = 66500  time[fs]=66.50000
   C -0.786110308E+01 -0.485083754E+00  0.107151159E+00
   C  0.723090462E+01  0.216949692E+00 -0.866798375E-01
   H -0.379981141E+02  0.497372723E+01 -0.224301588E+00
   H  0.366773612E+02 -0.326051783E+01 -0.148729969E+01
     4
 # iter = 67000  time[fs]=67.00000
   C -0.795149511E+01 -0.490715734E+00  0.108634455E+00
   C  0.731430905E+01  0.219965187E+00 -0.873206439E-01
   H -0.384078093E+02  0.502827484E+01 -0.226649352E+00
   H  0.370704415E+02 -0.329607268E+01 -0.150315764E+01
     4
 # iter = 67500  time[fs]=67.50000
   C -0.804194152E+01 -0.496351504E+00  0.110118699E+00
   C  0.739776804E+01  0.222983843E+00 -0.879618923E-01
   H -0.388176283E+02  0.508284202E+01 -0.228998059E+00
   H  0.374636434E+02 -0.333163956E+01 -0.151902071E+01
     4
 # iter = 68000  time[fs]=68.00000
   C -0.813244107E+01 -0.501990983E+00  0.111603868E+00
   C  0.748128034E+01  0.226005594E+00 -0.886035717E-01
   H -0.392275683E+02  0.513742836E+01 -0.231347687E+00
   H  0.378569643E+02 -0.336721823E+01 -0.153488880E+01
     4
 # iter = 68500  time[fs]=68.50000
   C -0.822299259E+01 -0.507634093E+00  0.113089942E+00
   C  0.756484478E+01  0.229030374E+00 -0.892456716E-01
   H -0.396376270E+02  0.519203349E+01 -0.233698221E+00
   H  0.382504019E+02 -0.340280845E+01 -0.155076179E+01
     4
 # iter = 69000  time[fs]=69.00000
   C -0.831359493E+01 -0.513280760E+00  0.114576902E+00
   C  0.764846020E+01  0.232058120E+00 -0.898881818E-01
   H -0.400478018E+02  0.524665701E+01 -0.236049642E+00
   H  0.386439537E+02 -0.343840998E+01 -0.156663960E+01
     4
 # iter = 69500  time[fs]=69.50000
   C -0.840424697E+01 -0.518930909E+00  0.116064727E+00
   C  0.773212548E+01  0.235088771E+00 -0.905310923E-01
   H -0.404580905E+02  0.530129858E+01 -0.238401933E+00
   H  0.390376174E+02 -0.347402262E+01 -0.158252213E+01
     4
 # iter = 70000  time[fs]=70.00000
   C -0.849494765E+01 -0.524584471E+00  0.117553401E+00
   C  0.781583955E+01  0.238122266E+00 -0.911743937E-01
   H -0.408684907E+02  0.535595782E+01 -0.240755078E+00
   H  0.394313909E+02 -0.350964614E+01 -0.159840929E+01
     4
 # iter = 70500  time[fs]=70.50000
   C -0.858569591E+01 -0.530241375E+00  0.119042903E+00
   C  0.789960135E+01  0.241158550E+00 -0.918180768E-01
   H -0.412790003E+02  0.541063440E+01 -0.243109062E+00
   H  0.398252718E+02 -0.354528032E+01 -0.161430098E+01
     4
 # iter = 71000  time[fs]=71.00000
   C -0.867649076E+01 -0.535901556E+00  0.120533218E+00
   C  0.798340989E+01  0.244197565E+00 -0.924621327E-01
   H -0.416896171E+02  0.546532799E+01 -0.245463867E+00
   H  0.402192582E+02 -0.358092498E+01 -0.163019712E+01
     4
 # iter = 71500  time[fs]=71.50000
   C -0.876733121E+01 -0.541564948E+00  0.122024327E+00
   C  0.806726417E+01  0.247239257E+00 -0.931065528E-01
   H -0.421003390E+02  0.552003825E+01 -0.247819480E+00
   H  0.406133480E+02 -0.361657990E+01 -0.164609762E+01
     4
 # iter = 72000  time[fs]=72.00000
   C -0.885821631E+01 -0.547231489E+00  0.123516215E+00
   C  0.815116325E+01  0.250283574E+00 -0.937513287E-01
   H -0.425111640E+02  0.557476488E+01 -0.250175885E+00
   H  0.410075393E+02 -0.365224490E+01 -0.166200239E+01
     4
 # iter = 72500  time[fs]=72.50000
   C -0.894914515E+01 -0.552901118E+00  0.125008866E+00
   C  0.823510620E+01  0.253330465E+00 -0.943964526E-01
   H -0.429220901E+02  0.562950756E+01 -0.252533068E+00
   H  0.414018299E+02 -0.368791979E+01 -0.167791137E+01
     4
 # iter = 73000  time[fs]=73.00000
   C -0.904011684E+01 -0.558573774E+00  0.126502264E+00
   C  0.831909213E+01  0.256379879E+00 -0.950419165E-01
   H -0.433331154E+02  0.568426599E+01 -0.254891016E+00
   H  0.417962182E+02 -0.372360438E+01 -0.169382447E+01
     4
 # iter = 73500  time[fs]=73.50000
   C -0.913113050E+01 -0.564249401E+00  0.127996394E+00
   C  0.840312017E+01  0.259431770E+00 -0.956877130E-01
   H -0.437442380E+02  0.573903989E+01 -0.257249715E+00
   H  0.421907023E+02 -0.375929850E+01 -0.170974162E+01
     4
 # iter = 74000  time[fs]=74.00000
   C -0.922218530E+01 -0.569927941E+00  0.129491242E+00
   C  0.848718948E+01  0.262486088E+00 -0.963338347E-01
   H -0.441554562E+02  0.579382897E+01 -0.259609150E+00
   H  0.425852803E+02 -0.379500197E+01 -0.172566273E+01
     4
 # iter = 74500  time[fs]=74.50000
   C -0.931328043E+01 -0.575609342E+00  0.130986794E+00
   C  0.857129924E+01  0.265542790E+00 -0.969802747E-01
   H -0.445667682E+02  0.584863297E+01 -0.261969311E+00
   H  0.429799507E+02 -0.383071463E+01 -0.174158775E+01
     4
 # iter = 75000  time[fs]=75.00000
   C -0.940441510E+01 -0.581293549E+00  0.132483035E+00
   C  0.865544866E+01  0.268601830E+00 -0.976270260E-01
   H -0.449781723E+02  0.590345160E+01 -0.264330183E+00
   H  0.433747116E+02 -0.386643632E+01 -0.175751659E+01
     4
 # iter = 75500  time[fs]=75.50000
   C -0.949558853E+01 -0.586980512E+00  0.133979953E+00
   C  0.873963696E+01  0.271663166E+00 -0.982740821E-01
   H -0.453896667E+02  0.595828461E+01 -0.266691756E+00
   H  0.437695616E+02 -0.390216687E+01 -0.177344920E+01
     4
 # iter = 76000  time[fs]=76.00000
   C -0.958679998E+01 -0.592670179E+00  0.135477534E+00
   C  0.882386339E+01  0.274726755E+00 -0.989214365E-01
   H -0.458012500E+02  0.601313175E+01 -0.269054016E+00
   H  0.441644989E+02 -0.393790613E+01 -0.178938550E+01
     4
 # iter = 76500  time[fs]=76.50000
   C -0.967804872E+01 -0.598362502E+00  0.136975766E+00
   C  0.890812723E+01  0.277792556E+00 -0.995690830E-01
   H -0.462129204E+02  0.606799277E+01 -0.271416953E+00
   H  0.445595220E+02 -0.397365395E+01 -0.180532543E+01
     4
 # iter = 77000  time[fs]=77.00000
   C -0.976933404E+01 -0.604057434E+00  0.138474637E+00
   C  0.899242777E+01  0.280860531E+00 -0.100217016E+00
   H -0.466246765E+02  0.612286743E+01 -0.273780554E+00
   H  0.449546295E+02 -0.400941018E+01 -0.182126893E+01
     4
 # iter = 77500  time[fs]=77.50000
   C -0.986065527E+01 -0.609754928E+00  0.139974135E+00
   C  0.907676433E+01  0.283930640E+00 -0.100865228E+00
   H -0.470365168E+02  0.617775549E+01 -0.276144810E+00
   H  0.453498199E+02 -0.404517468E+01 -0.183721593E+01
     4
 # iter = 78000  time[fs]=78.00000
   C -0.995201174E+01 -0.615454939E+00  0.141474248E+00
   C  0.916113622E+01  0.287002845E+00 -0.101513716E+00
   H -0.474484399E+02  0.623265673E+01 -0.278509709E+00
   H  0.457450916E+02 -0.408094731E+01 -0.185316638E+01
     4
 # iter = 78500  time[fs]=78.50000
   C -0.100434028E+02 -0.621157423E+00  0.142974965E+00
   C  0.924554280E+01  0.290077109E+00 -0.102162472E+00
   H -0.478604442E+02  0.628757093E+01 -0.280875240E+00
   H  0.461404434E+02 -0.411672793E+01 -0.186912022E+01
     4
 # iter = 79000  time[fs]=79.00000
   C -0.101348278E+02 -0.626862338E+00  0.144476276E+00
   C  0.932998344E+01  0.293153398E+00 -0.102811492E+00
   H -0.482725284E+02  0.634249786E+01 -0.283241394E+00
   H  0.465358739E+02 -0.415251640E+01 -0.188507739E+01
     4
 # iter = 79500  time[fs]=79.50000
   C -0.102262861E+02 -0.632569642E+00  0.145978168E+00
   C  0.941445752E+01  0.296231675E+00 -0.103460770E+00
   H -0.486846912E+02  0.639743732E+01 -0.285608161E+00
   H  0.469313818E+02 -0.418831261E+01 -0.190103783E+01
     4
 # iter = 80000  time[fs]=80.00000
   C -0.103177772E+02 -0.638279293E+00  0.147480633E+00
   C  0.949896444E+01  0.299311908E+00 -0.104110302E+00
   H -0.490969313E+02  0.645238909E+01 -0.287975530E+00
   H  0.473269657E+02 -0.422411642E+01 -0.191700150E+01
