     4
 # iter = 25000  time[fs]=25.00000
   C -0.970242527E+00  0.192486641E-01 -0.501028140E-01
   C  0.100286583E+01  0.249435420E-01 -0.413216644E-01
   H -0.526608110E+01  0.283224644E+00  0.345271575E+00
   H  0.533058433E+01  0.327605896E+00 -0.389006701E+00
     4
 # iter = 25500  time[fs]=25.50000
   C -0.101393677E+01  0.184197867E-01 -0.520056021E-01
   C  0.104501583E+01  0.241673515E-01 -0.410737900E-01
   H -0.559917481E+01  0.299354764E+00  0.370117855E+00
   H  0.565203560E+01  0.346332329E+00 -0.412979923E+00
     4
 # iter = 26000  time[fs]=26.00000
   C -0.106057876E+01  0.175621727E-01 -0.539403775E-01
   C  0.109006033E+01  0.233687942E-01 -0.407922099E-01
   H -0.593739262E+01  0.315741321E+00  0.395369419E+00
   H  0.597924999E+01  0.365415568E+00 -0.437379050E+00
     4
 # iter = 26500  time[fs]=26.50000
   C -0.110992825E+01  0.166790706E-01 -0.559061281E-01
   C  0.113776416E+01  0.225502943E-01 -0.404779437E-01
   H -0.628016117E+01  0.332355349E+00  0.420981117E+00
   H  0.631159312E+01  0.384816502E+00 -0.462158842E+00
     4
 # iter = 27000  time[fs]=27.00000
   C -0.116176045E+01  0.157732721E-01 -0.579017541E-01
   C  0.118790701E+01  0.217138712E-01 -0.401321246E-01
   H -0.662699324E+01  0.349172363E+00  0.446914660E+00
   H  0.664852412E+01  0.404501886E+00 -0.487280609E+00
     4
 # iter = 27500  time[fs]=27.50000
   C -0.121586729E+01  0.148471846E-01 -0.599260837E-01
   C  0.124028473E+01  0.208612276E-01 -0.397559733E-01
   H -0.697747212E+01  0.366171503E+00  0.473137344E+00
   H  0.698957902E+01  0.424443258E+00 -0.512711059E+00
     4
 # iter = 28000  time[fs]=28.00000
   C -0.127205768E+01  0.139028915E-01 -0.619778961E-01
   C  0.129470973E+01  0.199938159E-01 -0.393507688E-01
   H -0.733123915E+01  0.383334866E+00  0.499621040E+00
   H  0.733435749E+01  0.444616092E+00 -0.538421367E+00
     4
 # iter = 28500  time[fs]=28.50000
   C -0.133015715E+01  0.129422017E-01 -0.640559448E-01
   C  0.135101059E+01  0.191128876E-01 -0.389178201E-01
   H -0.768798384E+01  0.400646994E+00  0.526341404E+00
   H  0.768251217E+01  0.464999121E+00 -0.564386439E+00
     4
 # iter = 29000  time[fs]=29.00000
   C -0.139000707E+01  0.119666916E-01 -0.661589800E-01
   C  0.140903141E+01  0.182195317E-01 -0.384584414E-01
   H -0.804743590E+01  0.418094447E+00  0.553277245E+00
   H  0.803374011E+01  0.485573798E+00 -0.590584308E+00
     4
 # iter = 29500  time[fs]=29.50000
   C -0.145146361E+01  0.109777394E-01 -0.682857667E-01
   C  0.146863078E+01  0.173147035E-01 -0.379739324E-01
   H -0.840935884E+01  0.435665484E+00  0.580410016E+00
   H  0.838777573E+01  0.506323865E+00 -0.616995653E+00
     4
 # iter = 30000  time[fs]=30.00000
   C -0.151439657E+01  0.997655437E-02 -0.704350986E-01
   C  0.152968067E+01  0.163992473E-01 -0.374655627E-01
   H -0.877354471E+01  0.453349786E+00  0.607723401E+00
   H  0.874438517E+01  0.527234997E+00 -0.643603398E+00
     4
 # iter = 30500  time[fs]=30.50000
   C -0.157868825E+01  0.896420096E-02 -0.726058091E-01
   C  0.159206529E+01  0.154739145E-01 -0.369345603E-01
   H -0.913980985E+01  0.471138247E+00  0.635202979E+00
   H  0.910336157E+01  0.548294510E+00 -0.670392386E+00
     4
 # iter = 31000  time[fs]=31.00000
   C -0.164423223E+01  0.794161962E-02 -0.747967780E-01
   C  0.165568000E+01  0.145393771E-01 -0.363821043E-01
   H -0.950799135E+01  0.489022788E+00  0.662835949E+00
   H  0.946452116E+01  0.569491132E+00 -0.697349108E+00
     4
 # iter = 31500  time[fs]=31.50000
   C -0.171093234E+01  0.690964392E-02 -0.770069368E-01
   C  0.172043014E+01  0.135962400E-01 -0.358093196E-01
   H -0.987794410E+01  0.506996215E+00  0.690610899E+00
   H  0.982770009E+01  0.590814798E+00 -0.724461475E+00
     4
 # iter = 32000  time[fs]=32.00000
   C -0.177870154E+01  0.586901514E-02 -0.792352705E-01
   C  0.178623012E+01  0.126450494E-01 -0.352172746E-01
   H -0.102495384E+02  0.525052097E+00  0.718517615E+00
   H  0.101927517E+02  0.612256488E+00 -0.751718633E+00
     4
 # iter = 32500  time[fs]=32.50000
   C -0.184746107E+01  0.482039466E-02 -0.814808192E-01
   C  0.185300244E+01  0.116863009E-01 -0.346069802E-01
   H -0.106226578E+02  0.543184659E+00  0.746546926E+00
   H  0.105595443E+02  0.633808092E+00 -0.779110800E+00
     4
 # iter = 33000  time[fs]=33.00000
   C -0.191713952E+01  0.376437440E-02 -0.837426770E-01
   C  0.192067686E+01  0.107204459E-01 -0.339793901E-01
   H -0.109971975E+02  0.561388702E+00  0.774690566E+00
   H  0.109279591E+02  0.655462291E+00 -0.806629133E+00
     4
 # iter = 33500  time[fs]=33.50000
   C -0.198767210E+01  0.270148575E-02 -0.860199913E-01
   C  0.198918964E+01  0.974789646E-02 -0.333354024E-01
   H -0.113730630E+02  0.579659530E+00  0.802941060E+00
   H  0.112978889E+02  0.677212460E+00 -0.834265614E+00
     4
 # iter = 34000  time[fs]=34.00000
   C -0.205899992E+01  0.163220719E-02 -0.883119610E-01
   C  0.205848284E+01  0.876903031E-02 -0.326758610E-01
   H -0.117501684E+02  0.597992882E+00  0.831291630E+00
   H  0.116692363E+02  0.699052583E+00 -0.862012952E+00
     4
 # iter = 34500  time[fs]=34.50000
   C -0.213106939E+01  0.556970747E-03 -0.906178338E-01
   C  0.212850378E+01  0.778419436E-02 -0.320015585E-01
   H -0.121284360E+02  0.616384889E+00  0.859736112E+00
   H  0.120419130E+02  0.720977184E+00 -0.889864496E+00
     4
 # iter = 35000  time[fs]=35.00000
   C -0.220383166E+01 -0.523832367E-03 -0.929369044E-01
   C  0.219920439E+01  0.679370815E-02 -0.313132384E-01
   H -0.125077946E+02  0.634832022E+00  0.888268883E+00
   H  0.124158382E+02  0.742981261E+00 -0.917814168E+00
     4
 # iter = 35500  time[fs]=35.50000
   C -0.227724212E+01 -0.160984699E-02 -0.952685114E-01
   C  0.227054081E+01  0.579786658E-02 -0.306115980E-01
   H -0.128881797E+02  0.653331057E+00  0.916884804E+00
   H  0.127909383E+02  0.765060240E+00 -0.945856397E+00
     4
 # iter = 36000  time[fs]=36.00000
   C -0.235125998E+01 -0.270074987E-02 -0.976120347E-01
   C  0.234247294E+01  0.479694250E-02 -0.298972909E-01
   H -0.132695317E+02  0.671879039E+00  0.945579161E+00
   H  0.131671458E+02  0.787209920E+00 -0.973986066E+00
     4
 # iter = 36500  time[fs]=36.50000
   C -0.242584788E+01 -0.379624604E-02 -0.999668935E-01
   C  0.241496405E+01  0.379118876E-02 -0.291709301E-01
   H -0.136517964E+02  0.690473256E+00  0.974347628E+00
   H  0.135443987E+02  0.809426442E+00 -0.100219846E+01
     4
 # iter = 37000  time[fs]=37.00000
   C -0.250097153E+01 -0.489606575E-02 -0.102332543E+00
   C  0.248798042E+01  0.278084020E-02 -0.284330904E-01
   H -0.140349236E+02  0.709111209E+00  0.100318622E+01
   H  0.139226399E+02  0.831706246E+00 -0.103048924E+01
     4
 # iter = 37500  time[fs]=37.50000
   C -0.257659942E+01 -0.599996171E-02 -0.104708473E+00
   C  0.256149109E+01  0.176611524E-02 -0.276843109E-01
   H -0.144188672E+02  0.727790597E+00  0.103209125E+01
   H  0.143018169E+02  0.854046049E+00 -0.105885438E+01
     4
 # iter = 38000  time[fs]=38.00000
   C -0.265270257E+01 -0.710770679E-02 -0.107094203E+00
   C  0.263546757E+01  0.747217449E-03 -0.269250975E-01
   H -0.148035846E+02  0.746509291E+00  0.106105934E+01
   H  0.146818810E+02  0.876442808E+00 -0.108729017E+01
     4
 # iter = 38500  time[fs]=38.50000
   C -0.272925422E+01 -0.821909186E-02 -0.109489285E+00
   C  0.270988357E+01 -0.275663232E-03 -0.261559250E-01
   H -0.151890363E+02  0.765265319E+00  0.109008732E+01
   H  0.150627872E+02  0.898893708E+00 -0.111579314E+01
     4
 # iter = 39000  time[fs]=39.00000
   C -0.280622970E+01 -0.933392405E-02 -0.111893297E+00
   C  0.278471484E+01 -0.130234925E-02 -0.253772397E-01
   H -0.155751859E+02  0.784056855E+00  0.111917228E+01
   H  0.154444939E+02  0.921396130E+00 -0.114436009E+01
     4
 # iter = 39500  time[fs]=39.50000
   C -0.288360616E+01 -0.104520251E-01 -0.114305840E+00
   C  0.285993895E+01 -0.233267443E-02 -0.245894609E-01
   H -0.159619994E+02  0.802882197E+00  0.114831150E+01
   H  0.158269623E+02  0.943947641E+00 -0.117298804E+01
     4
 # iter = 40000  time[fs]=40.00000
   C -0.296136246E+01 -0.115732300E-01 -0.116726544E+00
   C  0.293553513E+01 -0.336648302E-02 -0.237929828E-01
   H -0.163494452E+02  0.821739766E+00  0.117750245E+01
   H  0.162101563E+02  0.966545973E+00 -0.120167419E+01
     4
 # iter = 40500  time[fs]=40.50000
   C -0.303947900E+01 -0.126973857E-01 -0.119155056E+00
   C  0.301148411E+01 -0.440362883E-02 -0.229881768E-01
   H -0.167374939E+02  0.840628087E+00  0.120674277E+01
   H  0.165940423E+02  0.989189009E+00 -0.123041595E+01
     4
 # iter = 41000  time[fs]=41.00000
   C -0.311793754E+01 -0.138243498E-01 -0.121591047E+00
   C  0.308776801E+01 -0.544397453E-02 -0.221753923E-01
   H -0.171261181E+02  0.859545783E+00  0.123603026E+01
   H  0.169785889E+02  0.101187477E+01 -0.125921087E+01
     4
 # iter = 41500  time[fs]=41.50000
   C -0.319672115E+01 -0.149539902E-01 -0.124034205E+00
   C  0.316437018E+01 -0.648739089E-02 -0.213549590E-01
   H -0.175152922E+02  0.878491566E+00  0.126536287E+01
   H  0.173637669E+02  0.103460141E+01 -0.128805669E+01
     4
 # iter = 42000  time[fs]=42.00000
   C -0.327581403E+01 -0.160861835E-01 -0.126484236E+00
   C  0.324127514E+01 -0.753375622E-02 -0.205271875E-01
   H -0.179049922E+02  0.897464230E+00  0.129473865E+01
   H  0.177495488E+02  0.105736718E+01 -0.131695126E+01
     4
 # iter = 42500  time[fs]=42.50000
   C -0.335520149E+01 -0.172208144E-01 -0.128940865E+00
   C  0.331846843E+01 -0.858295577E-02 -0.196923713E-01
   H -0.182951956E+02  0.916462646E+00  0.132415581E+01
   H  0.181359088E+02  0.108017047E+01 -0.134589257E+01
     4
 # iter = 43000  time[fs]=43.00000
   C -0.343486976E+01 -0.183577754E-01 -0.131403829E+00
   C  0.339593656E+01 -0.963488121E-02 -0.188507874E-01
   H -0.186858813E+02  0.935485752E+00  0.135361264E+01
   H  0.185228228E+02  0.110300974E+01 -0.137487875E+01
     4
 # iter = 43500  time[fs]=43.50000
   C -0.351480599E+01 -0.194969657E-01 -0.133872881E+00
   C  0.347366692E+01 -0.106894302E-01 -0.180026979E-01
   H -0.190770295E+02  0.954532549E+00  0.138310754E+01
   H  0.189102682E+02  0.112588356E+01 -0.140390800E+01
     4
 # iter = 44000  time[fs]=44.00000
   C -0.359499816E+01 -0.206382909E-01 -0.136347788E+00
   C  0.355164771E+01 -0.117465060E-01 -0.171483506E-01
   H -0.194686216E+02  0.973602099E+00  0.141263901E+01
   H  0.192982235E+02  0.114879056E+01 -0.143297867E+01
     4
 # iter = 44500  time[fs]=44.50000
   C -0.367543499E+01 -0.217816623E-01 -0.138828328E+00
   C  0.362986787E+01 -0.128060169E-01 -0.162879802E-01
   H -0.198606400E+02  0.992693516E+00  0.144220563E+01
   H  0.196866687E+02  0.117172947E+01 -0.146208916E+01
     4
 # iter = 45000  time[fs]=45.00000
   C -0.375610591E+01 -0.229269966E-01 -0.141314292E+00
   C  0.370831701E+01 -0.138678761E-01 -0.154218091E-01
   H -0.202530682E+02  0.101180597E+01  0.147180606E+01
   H  0.200755849E+02  0.119469908E+01 -0.149123798E+01
     4
 # iter = 45500  time[fs]=45.50000
   C -0.383700097E+01 -0.240742154E-01 -0.143805481E+00
   C  0.378698539E+01 -0.149320013E-01 -0.145500479E-01
   H -0.206458906E+02  0.103093866E+01  0.150143904E+01
   H  0.204649540E+02  0.121769825E+01 -0.152042373E+01
     4
 # iter = 46000  time[fs]=46.00000
   C -0.391811083E+01 -0.252232449E-01 -0.146301707E+00
   C  0.386586386E+01 -0.159983142E-01 -0.136728969E-01
   H -0.210390925E+02  0.105009085E+01  0.153110337E+01
   H  0.208547593E+02  0.124072591E+01 -0.154964507E+01
     4
 # iter = 46500  time[fs]=46.50000
   C -0.399942670E+01 -0.263740155E-01 -0.148802791E+00
   C  0.394494377E+01 -0.170667407E-01 -0.127905458E-01
   H -0.214326598E+02  0.106926183E+01  0.156079793E+01
   H  0.212449848E+02  0.126378103E+01 -0.157890074E+01
     4
 # iter = 47000  time[fs]=47.00000
   C -0.408094028E+01 -0.275264614E-01 -0.151308563E+00
   C  0.402421701E+01 -0.181372100E-01 -0.119031753E-01
   H -0.218265794E+02  0.108845094E+01  0.159052164E+01
   H  0.216356152E+02  0.128686264E+01 -0.160818953E+01
     4
 # iter = 47500  time[fs]=47.50000
   C -0.416264377E+01 -0.286805206E-01 -0.153818863E+00
   C  0.410367591E+01 -0.192096551E-01 -0.110109568E-01
   H -0.222208388E+02  0.110765754E+01  0.162027348E+01
   H  0.220266362E+02  0.130996983E+01 -0.163751031E+01
     4
 # iter = 48000  time[fs]=48.00000
   C -0.424452978E+01 -0.298361343E-01 -0.156333535E+00
   C  0.418331324E+01 -0.202840119E-01 -0.101140538E-01
   H -0.226154261E+02  0.112688103E+01  0.165005249E+01
   H  0.224180343E+02  0.133310173E+01 -0.166686200E+01
     4
 # iter = 48500  time[fs]=48.50000
   C -0.432659133E+01 -0.309932468E-01 -0.158852434E+00
   C  0.426312217E+01 -0.213602194E-01 -0.921262167E-02
   H -0.230103301E+02  0.114612084E+01  0.167985776E+01
   H  0.228097965E+02  0.135625750E+01 -0.169624357E+01
     4
 # iter = 49000  time[fs]=49.00000
   C -0.440882183E+01 -0.321518055E-01 -0.161375422E+00
   C  0.434309622E+01 -0.224382196E-01 -0.830680860E-02
   H -0.234055400E+02  0.116537642E+01  0.170968841E+01
   H  0.232019106E+02  0.137943636E+01 -0.172565403E+01
     4
 # iter = 49500  time[fs]=49.50000
   C -0.449121504E+01 -0.333117602E-01 -0.163902364E+00
   C  0.442322927E+01 -0.235179568E-01 -0.739675581E-02
   H -0.238010457E+02  0.118464727E+01  0.173954362E+01
   H  0.235943648E+02  0.140263756E+01 -0.175509247E+01
     4
 # iter = 50000  time[fs]=50.00000
   C -0.457376503E+01 -0.344730636E-01 -0.166433135E+00
   C  0.450351554E+01 -0.245993782E-01 -0.648259806E-02
   H -0.241968376E+02  0.120393288E+01  0.176942259E+01
   H  0.239871480E+02  0.142586038E+01 -0.178455800E+01
     4
 # iter = 50500  time[fs]=50.50000
   C -0.465646620E+01 -0.356356704E-01 -0.168967613E+00
   C  0.458394952E+01 -0.256824330E-01 -0.556446398E-02
   H -0.245929063E+02  0.122323279E+01  0.179932458E+01
   H  0.243802497E+02  0.144910415E+01 -0.181404976E+01
     4
 # iter = 51000  time[fs]=51.00000
   C -0.473931322E+01 -0.367995378E-01 -0.171505684E+00
   C  0.466452599E+01 -0.267670728E-01 -0.464247641E-02
   H -0.249892432E+02  0.124254656E+01  0.182924887E+01
   H  0.247736598E+02  0.147236821E+01 -0.184356695E+01
     4
 # iter = 51500  time[fs]=51.50000
   C -0.482230103E+01 -0.379646249E-01 -0.174047238E+00
   C  0.474524000E+01 -0.278532514E-01 -0.371675281E-02
   H -0.253858398E+02  0.126187375E+01  0.185919476E+01
   H  0.251673687E+02  0.149565195E+01 -0.187310880E+01
     4
 # iter = 52000  time[fs]=52.00000
   C -0.490542482E+01 -0.391308928E-01 -0.176592167E+00
   C  0.482608685E+01 -0.289409243E-01 -0.278740545E-02
   H -0.257826882E+02  0.128121396E+01  0.188916162E+01
   H  0.255613671E+02  0.151895477E+01 -0.190267457E+01
     4
 # iter = 52500  time[fs]=52.50000
   C -0.498868002E+01 -0.402983043E-01 -0.179140373E+00
   C  0.490706205E+01 -0.300300490E-01 -0.185454179E-02
   H -0.261797807E+02  0.130056679E+01  0.191914881E+01
   H  0.259556464E+02  0.154227610E+01 -0.193226356E+01
     4
 # iter = 53000  time[fs]=53.00000
   C -0.507206228E+01 -0.414668242E-01 -0.181691759E+00
   C  0.498816133E+01 -0.311205848E-01 -0.918264710E-03
   H -0.265771100E+02  0.131993189E+01  0.194915574E+01
   H  0.263501980E+02  0.156561541E+01 -0.196187510E+01
     4
 # iter = 53500  time[fs]=53.50000
   C -0.515556745E+01 -0.426364186E-01 -0.184246231E+00
   C  0.506938065E+01 -0.322124926E-01  0.213272470E-04
   H -0.269746692E+02  0.133930889E+01  0.197918184E+01
   H  0.267450141E+02  0.158897218E+01 -0.199150853E+01
     4
 # iter = 54000  time[fs]=54.00000
   C -0.523919157E+01 -0.438070553E-01 -0.186803702E+00
   C  0.515071612E+01 -0.333057350E-01  0.964139630E-03
   H -0.273724515E+02  0.135869745E+01  0.200922655E+01
   H  0.271400869E+02  0.161234590E+01 -0.202116324E+01
     4
 # iter = 54500  time[fs]=54.50000
   C -0.532293088E+01 -0.449787033E-01 -0.189364087E+00
   C  0.523216406E+01 -0.344002759E-01  0.191008186E-02
   H -0.277704506E+02  0.137809725E+01  0.203928935E+01
   H  0.275354091E+02  0.163573611E+01 -0.205083865E+01
     4
 # iter = 55000  time[fs]=55.00000
   C -0.540678176E+01 -0.461513332E-01 -0.191927304E+00
   C  0.531372093E+01 -0.354960807E-01  0.285906705E-02
   H -0.281686604E+02  0.139750797E+01  0.206936975E+01
   H  0.279309736E+02  0.165914235E+01 -0.208053417E+01
     4
 # iter = 55500  time[fs]=55.50000
   C -0.549074079E+01 -0.473249167E-01 -0.194493276E+00
   C  0.539538338E+01 -0.365931163E-01  0.381101178E-02
   H -0.285670749E+02  0.141692931E+01  0.209946726E+01
   H  0.283267738E+02  0.168256418E+01 -0.211024926E+01
     4
 # iter = 56000  time[fs]=56.00000
   C -0.557480468E+01 -0.484994268E-01 -0.197061926E+00
   C  0.547714819E+01 -0.376913507E-01  0.476583592E-02
   H -0.289656886E+02  0.143636099E+01  0.212958141E+01
   H  0.287228030E+02  0.170600117E+01 -0.213998341E+01
     4
 # iter = 56500  time[fs]=56.50000
   C -0.565897028E+01 -0.496748376E-01 -0.199633184E+00
   C  0.555901229E+01 -0.387907531E-01  0.572346251E-02
   H -0.293644960E+02  0.145580272E+01  0.215971177E+01
   H  0.291190552E+02  0.172945294E+01 -0.216973610E+01
     4
 # iter = 57000  time[fs]=57.00000
   C -0.574323458E+01 -0.508511241E-01 -0.202206979E+00
   C  0.564097272E+01 -0.398912940E-01  0.668381753E-02
   H -0.297634919E+02  0.147525425E+01  0.218985790E+01
   H  0.295155243E+02  0.175291908E+01 -0.219950685E+01
     4
 # iter = 57500  time[fs]=57.50000
   C -0.582759471E+01 -0.520282626E-01 -0.204783245E+00
   C  0.572302667E+01 -0.409929448E-01  0.764682982E-02
   H -0.301626714E+02  0.149471531E+01  0.222001939E+01
   H  0.299122046E+02  0.177639923E+01 -0.222929520E+01
     4
 # iter = 58000  time[fs]=58.00000
   C -0.591204791E+01 -0.532062301E-01 -0.207361919E+00
   C  0.580517144E+01 -0.420956782E-01  0.861243090E-02
   H -0.305620297E+02  0.151418566E+01  0.225019585E+01
   H  0.303090907E+02  0.179989303E+01 -0.225910070E+01
     4
 # iter = 58500  time[fs]=58.50000
   C -0.599659152E+01 -0.543850046E-01 -0.209942938E+00
   C  0.588740445E+01 -0.431994676E-01  0.958055483E-02
   H -0.309615622E+02  0.153366507E+01  0.228038691E+01
   H  0.307061771E+02  0.182340013E+01 -0.228892292E+01
     4
 # iter = 59000  time[fs]=59.00000
   C -0.608122303E+01 -0.555645650E-01 -0.212526243E+00
   C  0.596972322E+01 -0.443042876E-01  0.105511381E-01
   H -0.313612644E+02  0.155315330E+01  0.231059219E+01
   H  0.311034588E+02  0.184692020E+01 -0.231876145E+01
     4
 # iter = 59500  time[fs]=59.50000
   C -0.616593998E+01 -0.567448910E-01 -0.215111777E+00
   C  0.605212535E+01 -0.454101135E-01  0.115241196E-01
   H -0.317611320E+02  0.157265014E+01  0.234081134E+01
   H  0.315009309E+02  0.187045292E+01 -0.234861588E+01
     4
 # iter = 60000  time[fs]=60.00000
   C -0.625074004E+01 -0.579259631E-01 -0.217699484E+00
   C  0.613460858E+01 -0.465169217E-01  0.124994403E-01
   H -0.321611610E+02  0.159215538E+01  0.237104402E+01
   H  0.318985886E+02  0.189399798E+01 -0.237848582E+01
     4
 # iter = 60500  time[fs]=60.50000
   C -0.633562098E+01 -0.591077623E-01 -0.220289312E+00
   C  0.621717070E+01 -0.476246891E-01  0.134770435E-01
   H -0.325613474E+02  0.161166882E+01  0.240128991E+01
   H  0.322964275E+02  0.191755508E+01 -0.240837092E+01
     4
 # iter = 61000  time[fs]=61.00000
   C -0.642058063E+01 -0.602902707E-01 -0.222881210E+00
   C  0.629980960E+01 -0.487333937E-01  0.144568741E-01
   H -0.329616873E+02  0.163119025E+01  0.243154869E+01
   H  0.326944431E+02  0.194112394E+01 -0.243827080E+01
     4
 # iter = 61500  time[fs]=61.50000
   C -0.650561692E+01 -0.614734707E-01 -0.225475127E+00
   C  0.638252326E+01 -0.498430141E-01  0.154388793E-01
   H -0.333621771E+02  0.165071949E+01  0.246182006E+01
   H  0.330926311E+02  0.196470429E+01 -0.246818513E+01
     4
 # iter = 62000  time[fs]=62.00000
   C -0.659072786E+01 -0.626573456E-01 -0.228071017E+00
   C  0.646530973E+01 -0.509535296E-01  0.164230081E-01
   H -0.337628132E+02  0.167025636E+01  0.249210371E+01
   H  0.334909875E+02  0.198829584E+01 -0.249811356E+01
     4
 # iter = 62500  time[fs]=62.50000
   C -0.667591152E+01 -0.638418790E-01 -0.230668833E+00
   C  0.654816713E+01 -0.520649202E-01  0.174092110E-01
   H -0.341635923E+02  0.168980067E+01  0.252239938E+01
   H  0.338895084E+02  0.201189836E+01 -0.252805578E+01
     4
 # iter = 63000  time[fs]=63.00000
   C -0.676116606E+01 -0.650270555E-01 -0.233268530E+00
   C  0.663109366E+01 -0.531771666E-01  0.183974404E-01
   H -0.345645109E+02  0.170935227E+01  0.255270678E+01
   H  0.342881898E+02  0.203551157E+01 -0.255801148E+01
     4
 # iter = 63500  time[fs]=63.50000
   C -0.684648970E+01 -0.662128598E-01 -0.235870065E+00
   C  0.671408757E+01 -0.542902500E-01  0.193876502E-01
   H -0.349655660E+02  0.172891098E+01  0.258302565E+01
   H  0.346870283E+02  0.205913526E+01 -0.258798034E+01
     4
 # iter = 64000  time[fs]=64.00000
   C -0.693188071E+01 -0.673992774E-01 -0.238473398E+00
   C  0.679714718E+01 -0.554041525E-01  0.203797958E-01
   H -0.353667543E+02  0.174847664E+01  0.261335574E+01
   H  0.350860201E+02  0.208276917E+01 -0.261796209E+01
     4
 # iter = 64500  time[fs]=64.50000
   C -0.701733746E+01 -0.685862943E-01 -0.241078487E+00
   C  0.688027089E+01 -0.565188564E-01  0.213738342E-01
   H -0.357680729E+02  0.176804911E+01  0.264369679E+01
   H  0.354851619E+02  0.210641309E+01 -0.264795644E+01
     4
 # iter = 65000  time[fs]=65.00000
   C -0.710285834E+01 -0.697738968E-01 -0.243685295E+00
   C  0.696345713E+01 -0.576343448E-01  0.223697236E-01
   H -0.361695190E+02  0.178762823E+01  0.267404857E+01
   H  0.358844503E+02  0.213006681E+01 -0.267796311E+01
     4
 # iter = 65500  time[fs]=65.50000
   C -0.718844181E+01 -0.709620719E-01 -0.246293782E+00
   C  0.704670439E+01 -0.587506013E-01  0.233674238E-01
   H -0.365710897E+02  0.180721386E+01  0.270441084E+01
   H  0.362838821E+02  0.215373009E+01 -0.270798184E+01
     4
 # iter = 66000  time[fs]=66.00000
   C -0.727408639E+01 -0.721508067E-01 -0.248903913E+00
   C  0.713001124E+01 -0.598676098E-01  0.243668956E-01
   H -0.369727823E+02  0.182680585E+01  0.273478338E+01
   H  0.366834543E+02  0.217740276E+01 -0.273801238E+01
     4
 # iter = 66500  time[fs]=66.50000
   C -0.735979065E+01 -0.733400890E-01 -0.251515652E+00
   C  0.721337626E+01 -0.609853550E-01  0.253681012E-01
   H -0.373745942E+02  0.184640408E+01  0.276516598E+01
   H  0.370831637E+02  0.220108459E+01 -0.276805448E+01
     4
 # iter = 67000  time[fs]=67.00000
   C -0.744555320E+01 -0.745299070E-01 -0.254128966E+00
   C  0.729679811E+01 -0.621038218E-01  0.263710040E-01
   H -0.377765229E+02  0.186600842E+01  0.279555842E+01
   H  0.374830075E+02  0.222477542E+01 -0.279810790E+01
     4
 # iter = 67500  time[fs]=67.50000
   C -0.753137270E+01 -0.757202490E-01 -0.256743821E+00
   C  0.738027547E+01 -0.632229958E-01  0.273755684E-01
   H -0.381785659E+02  0.188561873E+01  0.282596050E+01
   H  0.378829829E+02  0.224847504E+01 -0.282817240E+01
     4
 # iter = 68000  time[fs]=68.00000
   C -0.761724786E+01 -0.769111040E-01 -0.259360185E+00
   C  0.746380708E+01 -0.643428628E-01  0.283817600E-01
   H -0.385807209E+02  0.190523489E+01  0.285637202E+01
   H  0.382830870E+02  0.227218327E+01 -0.285824776E+01
     4
 # iter = 68500  time[fs]=68.50000
   C -0.770317742E+01 -0.781024612E-01 -0.261978026E+00
   C  0.754739172E+01 -0.654634091E-01  0.293895454E-01
   H -0.389829855E+02  0.192485679E+01  0.288679279E+01
   H  0.386833174E+02  0.229589995E+01 -0.288833376E+01
     4
 # iter = 69000  time[fs]=69.00000
   C -0.778916018E+01 -0.792943101E-01 -0.264597316E+00
   C  0.763102821E+01 -0.665846214E-01  0.303988922E-01
   H -0.393853575E+02  0.194448431E+01  0.291722262E+01
   H  0.390836713E+02  0.231962491E+01 -0.291843018E+01
     4
 # iter = 69500  time[fs]=69.50000
   C -0.787519497E+01 -0.804866405E-01 -0.267218024E+00
   C  0.771471541E+01 -0.677064869E-01  0.314097691E-01
   H -0.397878347E+02  0.196411734E+01  0.294766133E+01
   H  0.394841462E+02  0.234335797E+01 -0.294853683E+01
     4
 # iter = 70000  time[fs]=70.00000
   C -0.796128065E+01 -0.816794426E-01 -0.269840122E+00
   C  0.779845220E+01 -0.688289929E-01  0.324221455E-01
   H -0.401904150E+02  0.198375576E+01  0.297810875E+01
   H  0.398847399E+02  0.236709899E+01 -0.297865350E+01
     4
 # iter = 70500  time[fs]=70.50000
   C -0.804741612E+01 -0.828727070E-01 -0.272463582E+00
   C  0.788223752E+01 -0.699521273E-01  0.334359917E-01
   H -0.405930964E+02  0.200339948E+01  0.300856471E+01
   H  0.402854498E+02  0.239084780E+01 -0.300878000E+01
     4
 # iter = 71000  time[fs]=71.00000
   C -0.813360033E+01 -0.840664243E-01 -0.275088378E+00
   C  0.796607032E+01 -0.710758783E-01  0.344512792E-01
   H -0.409958769E+02  0.202304838E+01  0.303902904E+01
   H  0.406862738E+02  0.241460425E+01 -0.303891613E+01
     4
 # iter = 71500  time[fs]=71.50000
   C -0.821983224E+01 -0.852605856E-01 -0.277714484E+00
   C  0.804994961E+01 -0.722002343E-01  0.354679799E-01
   H -0.413987545E+02  0.204270238E+01  0.306950159E+01
   H  0.410872096E+02  0.243836820E+01 -0.306906172E+01
     4
 # iter = 72000  time[fs]=72.00000
   C -0.830611085E+01 -0.864551821E-01 -0.280341874E+00
   C  0.813387440E+01 -0.733251841E-01  0.364860666E-01
   H -0.418017275E+02  0.206236137E+01  0.309998218E+01
   H  0.414882551E+02  0.246213950E+01 -0.309921659E+01
     4
 # iter = 72500  time[fs]=72.50000
   C -0.839243519E+01 -0.876502055E-01 -0.282970524E+00
   C  0.821784376E+01 -0.744507169E-01  0.375055132E-01
   H -0.422047939E+02  0.208202526E+01  0.313047069E+01
   H  0.418894081E+02  0.248591803E+01 -0.312938056E+01
     4
 # iter = 73000  time[fs]=73.00000
   C -0.847880434E+01 -0.888456474E-01 -0.285600409E+00
   C  0.830185676E+01 -0.755768220E-01  0.385262938E-01
   H -0.426079521E+02  0.210169396E+01  0.316096695E+01
   H  0.422906666E+02  0.250970363E+01 -0.315955346E+01
     4
 # iter = 73500  time[fs]=73.50000
   C -0.856521737E+01 -0.900415000E-01 -0.288231508E+00
   C  0.838591251E+01 -0.767034892E-01  0.395483836E-01
   H -0.430112002E+02  0.212136737E+01  0.319147082E+01
   H  0.426920287E+02  0.253349619E+01 -0.318973513E+01
     4
 # iter = 74000  time[fs]=74.00000
   C -0.865167340E+01 -0.912377554E-01 -0.290863797E+00
   C  0.847001016E+01 -0.778307083E-01  0.405717584E-01
   H -0.434145367E+02  0.214104542E+01  0.322198217E+01
   H  0.430934925E+02  0.255729558E+01 -0.321992542E+01
     4
 # iter = 74500  time[fs]=74.50000
   C -0.873817158E+01 -0.924344061E-01 -0.293497254E+00
   C  0.855414887E+01 -0.789584697E-01  0.415963945E-01
   H -0.438179599E+02  0.216072802E+01  0.325250085E+01
   H  0.434950560E+02  0.258110167E+01 -0.325012416E+01
     4
 # iter = 75000  time[fs]=75.00000
   C -0.882471108E+01 -0.936314448E-01 -0.296131858E+00
   C  0.863832783E+01 -0.800867637E-01  0.426222691E-01
   H -0.442214682E+02  0.218041508E+01  0.328302674E+01
   H  0.438967174E+02  0.260491434E+01 -0.328033120E+01
     4
 # iter = 75500  time[fs]=75.50000
   C -0.891129107E+01 -0.948288643E-01 -0.298767588E+00
   C  0.872254623E+01 -0.812155812E-01  0.436493597E-01
   H -0.446250600E+02  0.220010653E+01  0.331355972E+01
   H  0.442984750E+02  0.262873347E+01 -0.331054640E+01
     4
 # iter = 76000  time[fs]=76.00000
   C -0.899791079E+01 -0.960266577E-01 -0.301404425E+00
   C  0.880680333E+01 -0.823449131E-01  0.446776447E-01
   H -0.450287340E+02  0.221980228E+01  0.334409964E+01
   H  0.447003271E+02  0.265255896E+01 -0.334076962E+01
     4
 # iter = 76500  time[fs]=76.50000
   C -0.908456946E+01 -0.972248183E-01 -0.304042347E+00
   C  0.889109837E+01 -0.834747505E-01  0.457071029E-01
   H -0.454324886E+02  0.223950228E+01  0.337464640E+01
   H  0.451022720E+02  0.267639068E+01 -0.337100071E+01
     4
 # iter = 77000  time[fs]=77.00000
   C -0.917126635E+01 -0.984233395E-01 -0.306681337E+00
   C  0.897543063E+01 -0.846050849E-01  0.467377137E-01
   H -0.458363224E+02  0.225920643E+01  0.340519987E+01
   H  0.455043080E+02  0.270022854E+01 -0.340123954E+01
     4
 # iter = 77500  time[fs]=77.50000
   C -0.925800073E+01 -0.996222149E-01 -0.309321374E+00
   C  0.905979941E+01 -0.857359080E-01  0.477694570E-01
   H -0.462402341E+02  0.227891466E+01  0.343575993E+01
   H  0.459064336E+02  0.272407242E+01 -0.343148598E+01
     4
 # iter = 78000  time[fs]=78.00000
   C -0.934477190E+01 -0.100821438E+00 -0.311962443E+00
   C  0.914420402E+01 -0.868672116E-01  0.488023131E-01
   H -0.466442222E+02  0.229862692E+01  0.346632648E+01
   H  0.463086471E+02  0.274792222E+01 -0.346173990E+01
     4
 # iter = 78500  time[fs]=78.50000
   C -0.943157918E+01 -0.102021003E+00 -0.314604523E+00
   C  0.922864380E+01 -0.879989876E-01  0.498362632E-01
   H -0.470482856E+02  0.231834313E+01  0.349689941E+01
   H  0.467109472E+02  0.277177785E+01 -0.349200116E+01
     4
 # iter = 79000  time[fs]=79.00000
   C -0.951842191E+01 -0.103220905E+00 -0.317247599E+00
   C  0.931311809E+01 -0.891312284E-01  0.508712885E-01
   H -0.474524228E+02  0.233806322E+01  0.352747860E+01
   H  0.471133323E+02  0.279563921E+01 -0.352226966E+01
     4
 # iter = 79500  time[fs]=79.50000
   C -0.960529944E+01 -0.104421136E+00 -0.319891653E+00
   C  0.939762628E+01 -0.902639264E-01  0.519073709E-01
   H -0.478566326E+02  0.235778713E+01  0.355806396E+01
   H  0.475158009E+02  0.281950619E+01 -0.355254526E+01
     4
 # iter = 80000  time[fs]=80.00000
   C -0.969221114E+01 -0.105621692E+00 -0.322536669E+00
   C  0.948216774E+01 -0.913970742E-01  0.529444928E-01
   H -0.482609139E+02  0.237751479E+01  0.358865538E+01
   H  0.479183518E+02  0.284337871E+01 -0.358282786E+01
