     4
 # iter = 25000  time[fs]=25.00000
   C -0.100252468E+01 -0.200742727E-01  0.353088181E-01
   C  0.970401344E+00 -0.382071634E-01  0.277876804E-01
   H -0.531548734E+01  0.209521771E+00 -0.413259400E+00
   H  0.533468238E+01  0.440666416E+00 -0.290895814E+00
     4
 # iter = 25500  time[fs]=25.50000
   C -0.104888837E+01 -0.212144391E-01  0.389315712E-01
   C  0.101185157E+01 -0.405952142E-01  0.302121667E-01
   H -0.564927018E+01  0.222820790E+00 -0.437181142E+00
   H  0.565025084E+01  0.468099240E+00 -0.307586878E+00
     4
 # iter = 26000  time[fs]=26.00000
   C -0.109828755E+01 -0.223492466E-01  0.426035966E-01
   C  0.105633470E+01 -0.430511571E-01  0.326547937E-01
   H -0.598841915E+01  0.236360692E+00 -0.461575383E+00
   H  0.597121641E+01  0.496041578E+00 -0.324614402E+00
     4
 # iter = 26500  time[fs]=26.50000
   C -0.115046977E+01 -0.234779494E-01  0.463207699E-01
   C  0.110359654E+01 -0.455689177E-01  0.351121209E-01
   H -0.633233467E+01  0.250114094E+00 -0.486387688E+00
   H  0.629700050E+01  0.524438974E+00 -0.341942037E+00
     4
 # iter = 27000  time[fs]=27.00000
   C -0.120519927E+01 -0.246001478E-01  0.500794251E-01
   C  0.115340017E+01 -0.481430967E-01  0.375814142E-01
   H -0.668050718E+01  0.264057875E+00 -0.511572227E+00
   H  0.662710761E+01  0.553244957E+00 -0.359538815E+00
     4
 # iter = 27500  time[fs]=27.50000
   C -0.126225826E+01 -0.257156884E-01  0.538762797E-01
   C  0.120552702E+01 -0.507688799E-01  0.400605002E-01
   H -0.703250080E+01  0.278172354E+00 -0.537090096E+00
   H  0.696111094E+01  0.582419599E+00 -0.377378166E+00
     4
 # iter = 28000  time[fs]=28.00000
   C -0.132144719E+01 -0.268245910E-01  0.577083790E-01
   C  0.125977708E+01 -0.534419647E-01  0.425476486E-01
   H -0.738794032E+01  0.292440662E+00 -0.562908025E+00
   H  0.729864085E+01  0.611928376E+00 -0.395437145E+00
     4
 # iter = 28500  time[fs]=28.50000
   C -0.138258428E+01 -0.279269929E-01  0.615730545E-01
   C  0.131596834E+01 -0.561584981E-01  0.450414792E-01
   H -0.774650089E+01  0.306848241E+00 -0.588997357E+00
   H  0.763937549E+01  0.641741256E+00 -0.413695820E+00
     4
 # iter = 29000  time[fs]=29.00000
   C -0.144550464E+01 -0.290231086E-01  0.654678894E-01
   C  0.137393579E+01 -0.589150230E-01  0.475408875E-01
   H -0.810789970E+01  0.321382448E+00 -0.615333256E+00
   H  0.798303325E+01  0.671831973E+00 -0.432136774E+00
     4
 # iter = 29500  time[fs]=29.50000
   C -0.151005912E+01 -0.301132007E-01  0.693906912E-01
   C  0.143353029E+01 -0.617084326E-01  0.500449871E-01
   H -0.847188925E+01  0.336032245E+00 -0.641894068E+00
   H  0.832936653E+01  0.702177433E+00 -0.450744713E+00
     4
 # iter = 30000  time[fs]=30.00000
   C -0.157611301E+01 -0.311975589E-01  0.733394678E-01
   C  0.149461723E+01 -0.645359296E-01  0.525530633E-01
   H -0.883825192E+01  0.350787939E+00 -0.668660808E+00
   H  0.867815669E+01  0.732757237E+00 -0.469506140E+00
     4
 # iter = 30500  time[fs]=30.50000
   C -0.164354480E+01 -0.322764848E-01  0.773124064E-01
   C  0.155707522E+01 -0.673949912E-01  0.550645376E-01
   H -0.920679545E+01  0.365640979E+00 -0.695616748E+00
   H  0.902920985E+01  0.763553284E+00 -0.488409090E+00
     4
 # iter = 31000  time[fs]=31.00000
   C -0.171224487E+01 -0.333502819E-01  0.813078556E-01
   C  0.162079482E+01 -0.702833383E-01  0.575789397E-01
   H -0.957734929E+01  0.380583785E+00 -0.722747078E+00
   H  0.938235339E+01  0.794549444E+00 -0.507442911E+00
     4
 # iter = 31500  time[fs]=31.50000
   C -0.178211431E+01 -0.344192486E-01  0.853243089E-01
   C  0.168567731E+01 -0.731989079E-01  0.600958850E-01
   H -0.994976150E+01  0.395609611E+00 -0.750038626E+00
   H  0.973743302E+01  0.825731289E+00 -0.526598079E+00
     4
 # iter = 32000  time[fs]=32.00000
   C -0.185306382E+01 -0.354836733E-01  0.893603906E-01
   C  0.175163361E+01 -0.761398294E-01  0.626150575E-01
   H -0.103238962E+02  0.410712428E+00 -0.777479635E+00
   H  0.100943104E+02  0.857085862E+00 -0.545866055E+00
     4
 # iter = 32500  time[fs]=32.50000
   C -0.192501271E+01 -0.365438320E-01  0.934148423E-01
   C  0.181858323E+01 -0.791044033E-01  0.651361961E-01
   H -0.106996316E+02  0.425886826E+00 -0.805059562E+00
   H  0.104528610E+02  0.888601492E+00 -0.565239147E+00
     4
 # iter = 33000  time[fs]=33.00000
   C -0.199788796E+01 -0.375999862E-01  0.974865120E-01
   C  0.188645338E+01 -0.820910831E-01  0.676590839E-01
   H -0.110768578E+02  0.441127935E+00 -0.832768924E+00
   H  0.108129725E+02  0.920267627E+00 -0.584710409E+00
     4
 # iter = 33500  time[fs]=33.50000
   C -0.207162341E+01 -0.386523824E-01  0.101574343E+00
   C  0.195517811E+01 -0.850984585E-01  0.701835396E-01
   H -0.114554758E+02  0.456431357E+00 -0.860599162E+00
   H  0.111745431E+02  0.952074700E+00 -0.604273547E+00
     4
 # iter = 34000  time[fs]=34.00000
   C -0.214615901E+01 -0.397012520E-01  0.105677365E+00
   C  0.202469760E+01 -0.881252410E-01  0.727094109E-01
   H -0.118353956E+02  0.471793106E+00 -0.888542524E+00
   H  0.115374803E+02  0.984014012E+00 -0.623922842E+00
     4
 # iter = 34500  time[fs]=34.50000
   C -0.222144022E+01 -0.407468112E-01  0.109794687E+00
   C  0.209495750E+01 -0.911702516E-01  0.752365688E-01
   H -0.122165358E+02  0.487209561E+00 -0.916591968E+00
   H  0.119017001E+02  0.101607763E+01 -0.643653082E+00
     4
 # iter = 35000  time[fs]=35.00000
   C -0.229741735E+01 -0.417892617E-01  0.113925485E+00
   C  0.216590835E+01 -0.942324092E-01  0.777649038E-01
   H -0.125988218E+02  0.502677421E+00 -0.944741084E+00
   H  0.122671257E+02  0.104825830E+01 -0.663459506E+00
     4
 # iter = 35500  time[fs]=35.50000
   C -0.237404512E+01 -0.428287915E-01  0.118069004E+00
   C  0.223750503E+01 -0.973107207E-01  0.802943220E-01
   H -0.129821858E+02  0.518193671E+00 -0.972984012E+00
   H  0.126336867E+02  0.108054938E+01 -0.683337753E+00
     4
 # iter = 36000  time[fs]=36.00000
   C -0.245128214E+01 -0.438655754E-01  0.122224543E+00
   C  0.230970638E+01 -0.100404272E+00  0.828247425E-01
   H -0.133665657E+02  0.533755549E+00 -0.100131539E+01
   H  0.130013188E+02  0.111294477E+01 -0.703283819E+00
     4
 # iter = 36500  time[fs]=36.50000
   C -0.252909056E+01 -0.448997758E-01  0.126391455E+00
   C  0.238247470E+01 -0.103512222E+00  0.853560953E-01
   H -0.137519042E+02  0.549360519E+00 -0.102973030E+01
   H  0.133699626E+02  0.114543884E+01 -0.723294021E+00
     4
 # iter = 37000  time[fs]=37.00000
   C -0.260743568E+01 -0.459315438E-01  0.130569140E+00
   C  0.245577547E+01 -0.106633793E+00  0.878883192E-01
   H -0.141381490E+02  0.565006246E+00 -0.105822421E+01
   H  0.137395635E+02  0.117802641E+01 -0.743364963E+00
     4
 # iter = 37500  time[fs]=37.50000
   C -0.268628564E+01 -0.469610197E-01  0.134757044E+00
   C  0.252957701E+01 -0.109768265E+00  0.904213608E-01
   H -0.145252517E+02  0.580690581E+00 -0.108679295E+01
   H  0.141100713E+02  0.121070269E+01 -0.763493506E+00
     4
 # iter = 38000  time[fs]=38.00000
   C -0.276561115E+01 -0.479883338E-01  0.138954650E+00
   C  0.260385017E+01 -0.112914973E+00  0.929551727E-01
   H -0.149131675E+02  0.596411534E+00 -0.111543265E+01
   H  0.144814393E+02  0.124346323E+01 -0.783676745E+00
     4
 # iter = 38500  time[fs]=38.50000
   C -0.284538521E+01 -0.490136074E-01  0.143161478E+00
   C  0.267856812E+01 -0.116073298E+00  0.954897130E-01
   H -0.153018550E+02  0.612167265E+00 -0.114413976E+01
   H  0.148536243E+02  0.127630392E+01 -0.803911987E+00
     4
 # iter = 39000  time[fs]=39.00000
   C -0.292558293E+01 -0.500369531E-01  0.147377081E+00
   C  0.275370609E+01 -0.119242667E+00  0.980249442E-01
   H -0.156912761E+02  0.627956066E+00 -0.117291096E+01
   H  0.152265863E+02  0.130922094E+01 -0.824196729E+00
     4
 # iter = 39500  time[fs]=39.50000
   C -0.300618130E+01 -0.510584760E-01  0.151601042E+00
   C  0.282924122E+01 -0.122422546E+00  0.100560833E+00
   H -0.160813950E+02  0.643776351E+00 -0.120174318E+01
   H  0.156002881E+02  0.134221071E+01 -0.844528642E+00
     4
 # iter = 40000  time[fs]=40.00000
   C -0.308715902E+01 -0.520782735E-01  0.155832972E+00
   C  0.290515235E+01 -0.125612437E+00  0.103097349E+00
   H -0.164721786E+02  0.659626644E+00 -0.123063356E+01
   H  0.159746949E+02  0.137526991E+01 -0.864905555E+00
     4
 # iter = 40500  time[fs]=40.50000
   C -0.316849636E+01 -0.530964367E-01  0.160072509E+00
   C  0.298141986E+01 -0.128811875E+00  0.105634464E+00
   H -0.168635960E+02  0.675505568E+00 -0.125957943E+01
   H  0.163497743E+02  0.140839545E+01 -0.885325441E+00
     4
 # iter = 41000  time[fs]=41.00000
   C -0.325017499E+01 -0.541130504E-01  0.164319310E+00
   C  0.305802555E+01 -0.132020428E+00  0.108172154E+00
   H -0.172556186E+02  0.691411840E+00 -0.128857829E+01
   H  0.167254963E+02  0.144158440E+01 -0.905786407E+00
     4
 # iter = 41500  time[fs]=41.50000
   C -0.333217789E+01 -0.551281938E-01  0.168573058E+00
   C  0.313495250E+01 -0.135237688E+00  0.110710395E+00
   H -0.176482193E+02  0.707344256E+00 -0.131762783E+01
   H  0.171018324E+02  0.147483407E+01 -0.926286678E+00
     4
 # iter = 42000  time[fs]=42.00000
   C -0.341448920E+01 -0.561419408E-01  0.172833454E+00
   C  0.321218496E+01 -0.138463277E+00  0.113249167E+00
   H -0.180413730E+02  0.723301693E+00 -0.134672586E+01
   H  0.174787563E+02  0.150814189E+01 -0.946824592E+00
     4
 # iter = 42500  time[fs]=42.50000
   C -0.349709414E+01 -0.571543604E-01  0.177100216E+00
   C  0.328970826E+01 -0.141696836E+00  0.115788451E+00
   H -0.184350561E+02  0.739283096E+00 -0.137587035E+01
   H  0.178562431E+02  0.154150548E+01 -0.967398587E+00
     4
 # iter = 43000  time[fs]=43.00000
   C -0.357997893E+01 -0.581655172E-01  0.181373080E+00
   C  0.336750871E+01 -0.144938033E+00  0.118328227E+00
   H -0.188292464E+02  0.755287474E+00 -0.140505937E+01
   H  0.182342696E+02  0.157492258E+01 -0.988007198E+00
     4
 # iter = 43500  time[fs]=43.50000
   C -0.366313068E+01 -0.591754718E-01  0.185651799E+00
   C  0.344557352E+01 -0.148186551E+00  0.120868480E+00
   H -0.192239232E+02  0.771313897E+00 -0.143429111E+01
   H  0.186128137E+02  0.160839106E+01 -0.100864904E+01
     4
 # iter = 44000  time[fs]=44.00000
   C -0.374653732E+01 -0.601842809E-01  0.189936137E+00
   C  0.352389071E+01 -0.151442095E+00  0.123409194E+00
   H -0.196190668E+02  0.787361489E+00 -0.146356390E+01
   H  0.189918548E+02  0.164190895E+01 -0.102932282E+01
     4
 # iter = 44500  time[fs]=44.50000
   C -0.383018757E+01 -0.611919975E-01  0.194225875E+00
   C  0.360244907E+01 -0.154704386E+00  0.125950354E+00
   H -0.200146589E+02  0.803429424E+00 -0.149287611E+01
   H  0.193713736E+02  0.167547434E+01 -0.105002731E+01
     4
 # iter = 45000  time[fs]=45.00000
   C -0.391407083E+01 -0.621986716E-01  0.198520802E+00
   C  0.368123808E+01 -0.157973161E+00  0.128491947E+00
   H -0.204106820E+02  0.819516925E+00 -0.152222626E+01
   H  0.197513516E+02  0.170908546E+01 -0.107076134E+01
     4
 # iter = 45500  time[fs]=45.50000
   C -0.399817715E+01 -0.632043500E-01  0.202820724E+00
   C  0.376024789E+01 -0.161248171E+00  0.131033959E+00
   H -0.208071199E+02  0.835623255E+00 -0.155161291E+01
   H  0.201317716E+02  0.174274063E+01 -0.109152383E+01
     4
 # iter = 46000  time[fs]=46.00000
   C -0.408249718E+01 -0.642090769E-01  0.207125453E+00
   C  0.383946921E+01 -0.164529182E+00  0.133576378E+00
   H -0.212039568E+02  0.851747720E+00 -0.158103472E+01
   H  0.205126172E+02  0.177643826E+01 -0.111231374E+01
     4
 # iter = 46500  time[fs]=46.50000
   C -0.416702212E+01 -0.652128936E-01  0.211434813E+00
   C  0.391889332E+01 -0.167815972E+00  0.136119194E+00
   H -0.216011784E+02  0.867889662E+00 -0.161049041E+01
   H  0.208938729E+02  0.181017683E+01 -0.113313009E+01
     4
 # iter = 47000  time[fs]=47.00000
   C -0.425174370E+01 -0.662158393E-01  0.215748638E+00
   C  0.399851199E+01 -0.171108330E+00  0.138662394E+00
   H -0.219987705E+02  0.884048459E+00 -0.163997879E+01
   H  0.212755239E+02  0.184395491E+01 -0.115397194E+01
     4
 # iter = 47500  time[fs]=47.50000
   C -0.433665408E+01 -0.672179507E-01  0.220066768E+00
   C  0.407831747E+01 -0.174406058E+00  0.141205969E+00
   H -0.223967202E+02  0.900223521E+00 -0.166949870E+01
   H  0.216575565E+02  0.187777116E+01 -0.117483842E+01
     4
 # iter = 48000  time[fs]=48.00000
   C -0.442174591E+01 -0.682192625E-01  0.224389053E+00
   C  0.415830246E+01 -0.177708966E+00  0.143749908E+00
   H -0.227950149E+02  0.916414286E+00 -0.169904906E+01
   H  0.220399573E+02  0.191162427E+01 -0.119572869E+01
     4
 # iter = 48500  time[fs]=48.50000
   C -0.450701222E+01 -0.692198076E-01  0.228715351E+00
   C  0.423846005E+01 -0.181016876E+00  0.146294203E+00
   H -0.231936429E+02  0.932620223E+00 -0.172862884E+01
   H  0.224227139E+02  0.194551302E+01 -0.121664196E+01
     4
 # iter = 49000  time[fs]=49.00000
   C -0.459244641E+01 -0.702196169E-01  0.233045526E+00
   C  0.431878370E+01 -0.184329616E+00  0.148838844E+00
   H -0.235925928E+02  0.948840826E+00 -0.175823707E+01
   H  0.228058142E+02  0.197943625E+01 -0.123757746E+01
     4
 # iter = 49500  time[fs]=49.50000
   C -0.467804225E+01 -0.712187196E-01  0.237379449E+00
   C  0.439926724E+01 -0.187647026E+00  0.151383822E+00
   H -0.239918539E+02  0.965075614E+00 -0.178787280E+01
   H  0.231892471E+02  0.201339285E+01 -0.125853447E+01
     4
 # iter = 50000  time[fs]=50.00000
   C -0.476379384E+01 -0.722171435E-01  0.241716997E+00
   C  0.447990481E+01 -0.190968950E+00  0.153929130E+00
   H -0.243914162E+02  0.981324129E+00 -0.181753516E+01
   H  0.235730017E+02  0.204738175E+01 -0.127951232E+01
     4
 # iter = 50500  time[fs]=50.50000
   C -0.484969558E+01 -0.732149149E-01  0.246058053E+00
   C  0.456069086E+01 -0.194295243E+00  0.156474760E+00
   H -0.247912699E+02  0.997585934E+00 -0.184722330E+01
   H  0.239570677E+02  0.208140195E+01 -0.130051034E+01
     4
 # iter = 51000  time[fs]=51.00000
   C -0.493574215E+01 -0.742120584E-01  0.250402505E+00
   C  0.464162012E+01 -0.197625764E+00  0.159020703E+00
   H -0.251914058E+02  0.101386061E+01 -0.187693641E+01
   H  0.243414354E+02  0.211545248E+01 -0.132152791E+01
     4
 # iter = 51500  time[fs]=51.50000
   C -0.502192852E+01 -0.752085978E-01  0.254750247E+00
   C  0.472268761E+01 -0.200960381E+00  0.161566953E+00
   H -0.255918151E+02  0.103014777E+01 -0.190667372E+01
   H  0.247260952E+02  0.214953243E+01 -0.134256443E+01
     4
 # iter = 52000  time[fs]=52.00000
   C -0.510824989E+01 -0.762045554E-01  0.259101177E+00
   C  0.480388857E+01 -0.204298965E+00  0.164113503E+00
   H -0.259924893E+02  0.104644703E+01 -0.193643450E+01
   H  0.251110384E+02  0.218364092E+01 -0.136361934E+01
     4
 # iter = 52500  time[fs]=52.50000
   C -0.519470170E+01 -0.771999524E-01  0.263455198E+00
   C  0.488521849E+01 -0.207641396E+00  0.166660345E+00
   H -0.263934205E+02  0.106275802E+01 -0.196621806E+01
   H  0.254962564E+02  0.221777710E+01 -0.138469208E+01
     4
 # iter = 53000  time[fs]=53.00000
   C -0.528127962E+01 -0.781948091E-01  0.267812217E+00
   C  0.496667306E+01 -0.210987558E+00  0.169207474E+00
   H -0.267946010E+02  0.107908040E+01 -0.199602370E+01
   H  0.258817411E+02  0.225194017E+01 -0.140578214E+01
     4
 # iter = 53500  time[fs]=53.50000
   C -0.536797950E+01 -0.791891445E-01  0.272172146E+00
   C  0.504824819E+01 -0.214337339E+00  0.171754883E+00
   H -0.271960234E+02  0.109541384E+01 -0.202585081E+01
   H  0.262674845E+02  0.228612936E+01 -0.142688903E+01
     4
 # iter = 54000  time[fs]=54.00000
   C -0.545479741E+01 -0.801829770E-01  0.276534899E+00
   C  0.512993998E+01 -0.217690633E+00  0.174302566E+00
   H -0.275976807E+02  0.111175802E+01 -0.205569875E+01
   H  0.266534793E+02  0.232034394E+01 -0.144801225E+01
     4
 # iter = 54500  time[fs]=54.50000
   C -0.554172961E+01 -0.811763239E-01  0.280900395E+00
   C  0.521174472E+01 -0.221047339E+00  0.176850517E+00
   H -0.279995662E+02  0.112811264E+01 -0.208556695E+01
   H  0.270397184E+02  0.235458319E+01 -0.146915136E+01
     4
 # iter = 55000  time[fs]=55.00000
   C -0.562877249E+01 -0.821692018E-01  0.285268557E+00
   C  0.529365885E+01 -0.224407360E+00  0.179398731E+00
   H -0.284016735E+02  0.114447741E+01 -0.211545483E+01
   H  0.274261947E+02  0.238884644E+01 -0.149030592E+01
     4
 # iter = 55500  time[fs]=55.50000
   C -0.571592264E+01 -0.831616265E-01  0.289639309E+00
   C  0.537567898E+01 -0.227770601E+00  0.181947202E+00
   H -0.288039964E+02  0.116085204E+01 -0.214536187E+01
   H  0.278129019E+02  0.242313304E+01 -0.151147550E+01
     4
 # iter = 56000  time[fs]=56.00000
   C -0.580317678E+01 -0.841536130E-01  0.294012579E+00
   C  0.545780187E+01 -0.231136974E+00  0.184495925E+00
   H -0.292065289E+02  0.117723627E+01 -0.217528753E+01
   H  0.281998335E+02  0.245744237E+01 -0.153265970E+01
     4
 # iter = 56500  time[fs]=56.50000
   C -0.589053180E+01 -0.851451757E-01  0.298388300E+00
   C  0.554002442E+01 -0.234506393E+00  0.187044895E+00
   H -0.296092653E+02  0.119362984E+01 -0.220523131E+01
   H  0.285869835E+02  0.249177381E+01 -0.155385812E+01
     4
 # iter = 57000  time[fs]=57.00000
   C -0.597798469E+01 -0.861363283E-01  0.302766405E+00
   C  0.562234368E+01 -0.237878776E+00  0.189594106E+00
   H -0.300122003E+02  0.121003251E+01 -0.223519275E+01
   H  0.289743461E+02  0.252612680E+01 -0.157507041E+01
     4
 # iter = 57500  time[fs]=57.50000
   C -0.606553259E+01 -0.871270839E-01  0.307146830E+00
   C  0.570475680E+01 -0.241254042E+00  0.192143555E+00
   H -0.304153285E+02  0.122644403E+01 -0.226517138E+01
   H  0.293619157E+02  0.256050078E+01 -0.159629620E+01
     4
 # iter = 58000  time[fs]=58.00000
   C -0.615317276E+01 -0.881174551E-01  0.311529514E+00
   C  0.578726108E+01 -0.244632117E+00  0.194693236E+00
   H -0.308186450E+02  0.124286418E+01 -0.229516676E+01
   H  0.297496869E+02  0.259489521E+01 -0.161753514E+01
     4
 # iter = 58500  time[fs]=58.50000
   C -0.624090256E+01 -0.891074537E-01  0.315914400E+00
   C  0.586985390E+01 -0.248012926E+00  0.197243144E+00
   H -0.312221448E+02  0.125929273E+01 -0.232517846E+01
   H  0.301376545E+02  0.262930959E+01 -0.163878690E+01
     4
 # iter = 59000  time[fs]=59.00000
   C -0.632871948E+01 -0.900970914E-01  0.320301429E+00
   C  0.595253277E+01 -0.251396400E+00  0.199793276E+00
   H -0.316258233E+02  0.127572949E+01 -0.235520607E+01
   H  0.305258137E+02  0.266374341E+01 -0.166005117E+01
     4
 # iter = 59500  time[fs]=59.50000
   C -0.641662109E+01 -0.910863790E-01  0.324690549E+00
   C  0.603529530E+01 -0.254782472E+00  0.202343627E+00
   H -0.320296760E+02  0.129217424E+01 -0.238524920E+01
   H  0.309141595E+02  0.269819621E+01 -0.168132762E+01
     4
 # iter = 60000  time[fs]=60.00000
   C -0.650460507E+01 -0.920753270E-01  0.329081706E+00
   C  0.611813918E+01 -0.258171074E+00  0.204894194E+00
   H -0.324336986E+02  0.130862678E+01 -0.241530746E+01
   H  0.313026873E+02  0.273266751E+01 -0.170261598E+01
     4
 # iter = 60500  time[fs]=60.50000
   C -0.659266920E+01 -0.930639457E-01  0.333474851E+00
   C  0.620106221E+01 -0.261562146E+00  0.207444971E+00
   H -0.328378870E+02  0.132508693E+01 -0.244538049E+01
   H  0.316913928E+02  0.276715688E+01 -0.172391594E+01
     4
 # iter = 61000  time[fs]=61.00000
   C -0.668081132E+01 -0.940522445E-01  0.337869934E+00
   C  0.628406228E+01 -0.264955627E+00  0.209995956E+00
   H -0.332422370E+02  0.134155450E+01 -0.247546794E+01
   H  0.320802716E+02  0.280166389E+01 -0.174522724E+01
     4
 # iter = 61500  time[fs]=61.50000
   C -0.676902939E+01 -0.950402328E-01  0.342266909E+00
   C  0.636713733E+01 -0.268351457E+00  0.212547143E+00
   H -0.336467449E+02  0.135802933E+01 -0.250556947E+01
   H  0.324693196E+02  0.283618813E+01 -0.176654961E+01
     4
 # iter = 62000  time[fs]=62.00000
   C -0.685732140E+01 -0.960279195E-01  0.346665731E+00
   C  0.645028542E+01 -0.271749581E+00  0.215098531E+00
   H -0.340514068E+02  0.137451123E+01 -0.253568474E+01
   H  0.328585328E+02  0.287072919E+01 -0.178788278E+01
     4
 # iter = 62500  time[fs]=62.50000
   C -0.694568547E+01 -0.970153131E-01  0.351066355E+00
   C  0.653350464E+01 -0.275149945E+00  0.217650115E+00
   H -0.344562192E+02  0.139100005E+01 -0.256581343E+01
   H  0.332479073E+02  0.290528670E+01 -0.180922652E+01
     4
 # iter = 63000  time[fs]=63.00000
   C -0.703411975E+01 -0.980024218E-01  0.355468741E+00
   C  0.661679320E+01 -0.278552496E+00  0.220201891E+00
   H -0.348611787E+02  0.140749562E+01 -0.259595525E+01
   H  0.336374394E+02  0.293986028E+01 -0.183058058E+01
     4
 # iter = 63500  time[fs]=63.50000
   C -0.712262247E+01 -0.989892535E-01  0.359872847E+00
   C  0.670014933E+01 -0.281957183E+00  0.222753856E+00
   H -0.352662817E+02  0.142399780E+01 -0.262610989E+01
   H  0.340271256E+02  0.297444957E+01 -0.185194472E+01
     4
 # iter = 64000  time[fs]=64.00000
   C -0.721119194E+01 -0.999758159E-01  0.364278633E+00
   C  0.678357136E+01 -0.285363958E+00  0.225306007E+00
   H -0.356715251E+02  0.144050643E+01 -0.265627707E+01
   H  0.344169623E+02  0.300905422E+01 -0.187331873E+01
     4
 # iter = 64500  time[fs]=64.50000
   C -0.729982650E+01 -0.100962116E+00  0.368686063E+00
   C  0.686705766E+01 -0.288772773E+00  0.227858341E+00
   H -0.360769058E+02  0.145702137E+01 -0.268645651E+01
   H  0.348069462E+02  0.304367389E+01 -0.189470239E+01
     4
 # iter = 65000  time[fs]=65.00000
   C -0.738852458E+01 -0.101948161E+00  0.373095099E+00
   C  0.695060666E+01 -0.292183583E+00  0.230410855E+00
   H -0.364824206E+02  0.147354249E+01 -0.271664794E+01
   H  0.351970740E+02  0.307830827E+01 -0.191609549E+01
     4
 # iter = 65500  time[fs]=65.50000
   C -0.747728465E+01 -0.102933958E+00  0.377505706E+00
   C  0.703421686E+01 -0.295596343E+00  0.232963545E+00
   H -0.368880667E+02  0.149006965E+01 -0.274685111E+01
   H  0.355873426E+02  0.311295703E+01 -0.193749782E+01
     4
 # iter = 66000  time[fs]=66.00000
   C -0.756610523E+01 -0.103919513E+00  0.381917849E+00
   C  0.711788679E+01 -0.299011012E+00  0.235516408E+00
   H -0.372938412E+02  0.150660272E+01 -0.277706575E+01
   H  0.359777490E+02  0.314761988E+01 -0.195890919E+01
     4
 # iter = 66500  time[fs]=66.50000
   C -0.765498491E+01 -0.104904832E+00  0.386331495E+00
   C  0.720161504E+01 -0.302427546E+00  0.238069442E+00
   H -0.376997414E+02  0.152314157E+01 -0.280729163E+01
   H  0.363682902E+02  0.318229651E+01 -0.198032940E+01
     4
 # iter = 67000  time[fs]=67.00000
   C -0.774392229E+01 -0.105889922E+00  0.390746612E+00
   C  0.728540027E+01 -0.305845907E+00  0.240622644E+00
   H -0.381057645E+02  0.153968609E+01 -0.283752852E+01
   H  0.367589633E+02  0.321698663E+01 -0.200175828E+01
     4
 # iter = 67500  time[fs]=67.50000
   C -0.783291607E+01 -0.106874788E+00  0.395163169E+00
   C  0.736924115E+01 -0.309266055E+00  0.243176011E+00
   H -0.385119080E+02  0.155623615E+01 -0.286777617E+01
   H  0.371497656E+02  0.325168998E+01 -0.202319564E+01
     4
 # iter = 68000  time[fs]=68.00000
   C -0.792196495E+01 -0.107859436E+00  0.399581135E+00
   C  0.745313642E+01 -0.312687954E+00  0.245729540E+00
   H -0.389181694E+02  0.157279164E+01 -0.289803438E+01
   H  0.375406944E+02  0.328640628E+01 -0.204464130E+01
     4
 # iter = 68500  time[fs]=68.50000
   C -0.801106770E+01 -0.108843871E+00  0.404000481E+00
   C  0.753708485E+01 -0.316111565E+00  0.248283228E+00
   H -0.393245463E+02  0.158935246E+01 -0.292830292E+01
   H  0.379317471E+02  0.332113527E+01 -0.206609511E+01
     4
 # iter = 69000  time[fs]=69.00000
   C -0.810022310E+01 -0.109828099E+00  0.408421179E+00
   C  0.762108525E+01 -0.319536855E+00  0.250837074E+00
   H -0.397310362E+02  0.160591848E+01 -0.295858160E+01
   H  0.383229212E+02  0.335587669E+01 -0.208755690E+01
     4
 # iter = 69500  time[fs]=69.50000
   C -0.818943001E+01 -0.110812124E+00  0.412843202E+00
   C  0.770513647E+01 -0.322963790E+00  0.253391074E+00
   H -0.401376370E+02  0.162248962E+01 -0.298887020E+01
   H  0.387142142E+02  0.339063031E+01 -0.210902650E+01
     4
 # iter = 70000  time[fs]=70.00000
   C -0.827868729E+01 -0.111795952E+00  0.417266521E+00
   C  0.778923741E+01 -0.326392334E+00  0.255945227E+00
   H -0.405443465E+02  0.163906576E+01 -0.301916853E+01
   H  0.391056239E+02  0.342539587E+01 -0.213050378E+01
     4
 # iter = 70500  time[fs]=70.50000
   C -0.836799386E+01 -0.112779587E+00  0.421691113E+00
   C  0.787338698E+01 -0.329822458E+00  0.258499529E+00
   H -0.409511623E+02  0.165564681E+01 -0.304947640E+01
   H  0.394971477E+02  0.346017316E+01 -0.215198856E+01
     4
 # iter = 71000  time[fs]=71.00000
   C -0.845734866E+01 -0.113763034E+00  0.426116951E+00
   C  0.795758415E+01 -0.333254128E+00  0.261053978E+00
   H -0.413580825E+02  0.167223267E+01 -0.307979362E+01
   H  0.398887836E+02  0.349496194E+01 -0.217348072E+01
     4
 # iter = 71500  time[fs]=71.50000
   C -0.854675068E+01 -0.114746297E+00  0.430544011E+00
   C  0.804182790E+01 -0.336687316E+00  0.263608573E+00
   H -0.417651051E+02  0.168882326E+01 -0.311012002E+01
   H  0.402805294E+02  0.352976199E+01 -0.219498011E+01
     4
 # iter = 72000  time[fs]=72.00000
   C -0.863619891E+01 -0.115729380E+00  0.434972269E+00
   C  0.812611725E+01 -0.340121991E+00  0.266163310E+00
   H -0.421722281E+02  0.170541848E+01 -0.314045543E+01
   H  0.406723829E+02  0.356457311E+01 -0.221648659E+01
     4
 # iter = 72500  time[fs]=72.50000
   C -0.872569241E+01 -0.116712288E+00  0.439401702E+00
   C  0.821045127E+01 -0.343558125E+00  0.268718188E+00
   H -0.425794495E+02  0.172201824E+01 -0.317079966E+01
   H  0.410643422E+02  0.359939509E+01 -0.223800003E+01
     4
 # iter = 73000  time[fs]=73.00000
   C -0.881523024E+01 -0.117695024E+00  0.443832289E+00
   C  0.829482902E+01 -0.346995690E+00  0.271273205E+00
   H -0.429867675E+02  0.173862246E+01 -0.320115256E+01
   H  0.414564051E+02  0.363422772E+01 -0.225952030E+01
     4
 # iter = 73500  time[fs]=73.50000
   C -0.890481150E+01 -0.118677592E+00  0.448264006E+00
   C  0.837924962E+01 -0.350434659E+00  0.273828358E+00
   H -0.433941803E+02  0.175523106E+01 -0.323151397E+01
   H  0.418485698E+02  0.366907081E+01 -0.228104727E+01
     4
 # iter = 74000  time[fs]=74.00000
   C -0.899443531E+01 -0.119659997E+00  0.452696833E+00
   C  0.846371221E+01 -0.353875006E+00  0.276383646E+00
   H -0.438016861E+02  0.177184395E+01 -0.326188372E+01
   H  0.422408345E+02  0.370392416E+01 -0.230258083E+01
     4
 # iter = 74500  time[fs]=74.50000
   C -0.908410082E+01 -0.120642242E+00  0.457130750E+00
   C  0.854821593E+01 -0.357316705E+00  0.278939066E+00
   H -0.442092833E+02  0.178846106E+01 -0.329226168E+01
   H  0.426331971E+02  0.373878761E+01 -0.232412085E+01
     4
 # iter = 75000  time[fs]=75.00000
   C -0.917380721E+01 -0.121624329E+00  0.461565736E+00
   C  0.863275998E+01 -0.360759730E+00  0.281494616E+00
   H -0.446169701E+02  0.180508232E+01 -0.332264768E+01
   H  0.430256561E+02  0.377366095E+01 -0.234566721E+01
     4
 # iter = 75500  time[fs]=75.50000
   C -0.926355368E+01 -0.122606263E+00  0.466001772E+00
   C  0.871734356E+01 -0.364204060E+00  0.284050295E+00
   H -0.450247449E+02  0.182170764E+01 -0.335304160E+01
   H  0.434182096E+02  0.380854403E+01 -0.236721981E+01
     4
 # iter = 76000  time[fs]=76.00000
   C -0.935333944E+01 -0.123588048E+00  0.470438838E+00
   C  0.880196591E+01 -0.367649668E+00  0.286606101E+00
   H -0.454326063E+02  0.183833695E+01 -0.338344328E+01
   H  0.438108560E+02  0.384343666E+01 -0.238877854E+01
     4
 # iter = 76500  time[fs]=76.50000
   C -0.944316375E+01 -0.124569685E+00  0.474876917E+00
   C  0.888662627E+01 -0.371096533E+00  0.289162032E+00
   H -0.458405525E+02  0.185497019E+01 -0.341385259E+01
   H  0.442035936E+02  0.387833868E+01 -0.241034328E+01
     4
 # iter = 77000  time[fs]=77.00000
   C -0.953302586E+01 -0.125551178E+00  0.479315991E+00
   C  0.897132393E+01 -0.374544633E+00  0.291718086E+00
   H -0.462485822E+02  0.187160729E+01 -0.344426940E+01
   H  0.445964208E+02  0.391324993E+01 -0.243191393E+01
     4
 # iter = 77500  time[fs]=77.50000
   C -0.962292506E+01 -0.126532531E+00  0.483756041E+00
   C  0.905605817E+01 -0.377993945E+00  0.294274261E+00
   H -0.466566939E+02  0.188824818E+01 -0.347469358E+01
   H  0.449893360E+02  0.394817026E+01 -0.245349039E+01
     4
 # iter = 78000  time[fs]=78.00000
   C -0.971286066E+01 -0.127513745E+00  0.488197052E+00
   C  0.914082831E+01 -0.381444448E+00  0.296830556E+00
   H -0.470648862E+02  0.190489279E+01 -0.350512500E+01
   H  0.453823378E+02  0.398309950E+01 -0.247507257E+01
     4
 # iter = 78500  time[fs]=78.50000
   C -0.980283198E+01 -0.128494825E+00  0.492639006E+00
   C  0.922563368E+01 -0.384896122E+00  0.299386968E+00
   H -0.474731576E+02  0.192154107E+01 -0.353556354E+01
   H  0.457754247E+02  0.401803750E+01 -0.249666036E+01
     4
 # iter = 79000  time[fs]=79.00000
   C -0.989283836E+01 -0.129475772E+00  0.497081887E+00
   C  0.931047364E+01 -0.388348947E+00  0.301943498E+00
   H -0.478815069E+02  0.193819295E+01 -0.356600909E+01
   H  0.461685952E+02  0.405298413E+01 -0.251825367E+01
     4
 # iter = 79500  time[fs]=79.50000
   C -0.998287917E+01 -0.130456590E+00  0.501525679E+00
   C  0.939534754E+01 -0.391802903E+00  0.304500141E+00
   H -0.482899327E+02  0.195484836E+01 -0.359646151E+01
   H  0.465618478E+02  0.408793923E+01 -0.253985242E+01
     4
 # iter = 80000  time[fs]=80.00000
   C -0.100729538E+02 -0.131437281E+00  0.505970368E+00
   C  0.948025478E+01 -0.395257971E+00  0.307056898E+00
   H -0.486984338E+02  0.197150726E+01 -0.362692071E+01
   H  0.469551814E+02  0.412290268E+01 -0.256145650E+01
