     4
 # iter = 25000  time[fs]=25.00000
   C -0.971516063E+00  0.117237149E-01 -0.115919847E-01
   C  0.101041379E+01 -0.685190780E-01  0.730368013E-03
   H -0.522960966E+01 -0.505323926E+00 -0.147182775E+00
   H  0.536644377E+01  0.364421455E+00  0.410660007E+00
     4
 # iter = 25500  time[fs]=25.50000
   C -0.101617256E+01  0.137104408E-01 -0.112248840E-01
   C  0.105483610E+01 -0.723392197E-01  0.345809958E-04
   H -0.556342658E+01 -0.538120501E+00 -0.157117644E+00
   H  0.568371911E+01  0.390402759E+00  0.436581441E+00
     4
 # iter = 26000  time[fs]=26.00000
   C -0.106371194E+01  0.158436148E-01 -0.108739595E-01
   C  0.110208598E+01 -0.763070130E-01 -0.673906367E-03
   H -0.590235748E+01 -0.571419650E+00 -0.167204587E+00
   H  0.600677206E+01  0.416901079E+00  0.463001466E+00
     4
 # iter = 26500  time[fs]=26.50000
   C -0.111389268E+01  0.181126259E-01 -0.105359095E-01
   C  0.115192592E+01 -0.804121170E-01 -0.139536520E-02
   H -0.624582663E+01 -0.605164903E+00 -0.177427049E+00
   H  0.633497894E+01  0.443863188E+00  0.489867162E+00
     4
 # iter = 27000  time[fs]=27.00000
   C -0.116649039E+01  0.205075281E-01 -0.102079795E-01
   C  0.120413527E+01 -0.846447589E-01 -0.212995445E-02
   H -0.659334525E+01 -0.639308470E+00 -0.187770903E+00
   H  0.666780596E+01  0.471243371E+00  0.517133255E+00
     4
 # iter = 27500  time[fs]=27.50000
   C -0.122129857E+01  0.230190505E-01 -0.988789085E-02
   C  0.125851101E+01 -0.889957717E-01 -0.287771525E-02
   H -0.694449560E+01 -0.673809596E+00 -0.198224019E+00
   H  0.700479369E+01  0.499002122E+00  0.544760765E+00
     4
 # iter = 28000  time[fs]=28.00000
   C -0.127812855E+01  0.256385933E-01 -0.957377167E-02
   C  0.131486767E+01 -0.934566110E-01 -0.363857960E-02
   H -0.729891840E+01 -0.708633281E+00 -0.208775918E+00
   H  0.734554449E+01  0.527105104E+00  0.572715934E+00
     4
 # iter = 28500  time[fs]=28.50000
   C -0.133680877E+01  0.283582116E-01 -0.926409220E-02
   C  0.137303661E+01 -0.980193524E-01 -0.441238560E-02
   H -0.765630288E+01 -0.743749270E+00 -0.219417500E+00
   H  0.768971243E+01  0.555522310E+00  0.600969363E+00
     4
 # iter = 29000  time[fs]=29.00000
   C -0.139718379E+01  0.311705897E-01 -0.895760798E-02
   C  0.143286508E+01 -0.102676676E+00 -0.519889494E-02
   H -0.801637867E+01 -0.779131257E+00 -0.230140819E+00
   H  0.803699503E+01  0.584227386E+00  0.629495313E+00
     4
 # iter = 29500  time[fs]=29.50000
   C -0.145911313E+01  0.340690079E-01 -0.865331045E-02
   C  0.149421502E+01 -0.107421841E+00 -0.599781006E-02
   H -0.837890939E+01 -0.814756238E+00 -0.240938905E+00
   H  0.838712657E+01  0.613197068E+00  0.658271137E+00
     4
 # iter = 30000  time[fs]=30.00000
   C -0.152246992E+01  0.370473050E-01 -0.835038512E-02
   C  0.155696181E+01 -0.112248653E+00 -0.680878961E-02
   H -0.874368731E+01 -0.850603992E+00 -0.251805610E+00
   H  0.873987259E+01  0.642410736E+00  0.687276822E+00
     4
 # iter = 30500  time[fs]=30.50000
   C -0.158713971E+01  0.400998385E-01 -0.804817655E-02
   C  0.162099303E+01 -0.117151427E+00 -0.763146180E-02
   H -0.911052906E+01 -0.886656661E+00 -0.262735493E+00
   H  0.909502528E+01  0.671850031E+00  0.716494596E+00
     4
 # iter = 31000  time[fs]=31.00000
   C -0.165301923E+01  0.432214442E-01 -0.774615923E-02
   C  0.168620728E+01 -0.122124952E+00 -0.846543543E-02
   H -0.947927211E+01 -0.922898403E+00 -0.273723716E+00
   H  0.945239980E+01  0.701498543E+00  0.745908623E+00
     4
 # iter = 31500  time[fs]=31.50000
   C -0.172001527E+01  0.464073971E-01 -0.744391368E-02
   C  0.175251303E+01 -0.127164452E+00 -0.931030885E-02
   H -0.984977174E+01 -0.959315103E+00 -0.284765960E+00
   H  0.981183103E+01  0.731341551E+00  0.775504729E+00
     4
 # iter = 32000  time[fs]=32.00000
   C -0.178804361E+01  0.496533731E-01 -0.714110677E-02
   C  0.181982762E+01 -0.132265551E+00 -0.101656770E-01
   H -0.102218987E+02 -0.995894136E+00 -0.295858355E+00
   H  0.101731710E+02  0.761365803E+00  0.805270188E+00
     4
 # iter = 32500  time[fs]=32.50000
   C -0.185702807E+01  0.529554139E-01 -0.683747569E-02
   C  0.188807630E+01 -0.137424238E+00 -0.110311369E-01
   H -0.105955369E+02 -0.103262417E+01 -0.306997423E+00
   H  0.105362866E+02  0.791559328E+00  0.835193530E+00
     4
 # iter = 33000  time[fs]=33.00000
   C -0.192689968E+01  0.563098932E-01 -0.653281482E-02
   C  0.195719142E+01 -0.142636833E+00 -0.119062915E-01
   H -0.109705822E+02 -0.106949499E+01 -0.318180028E+00
   H  0.109010579E+02  0.821911280E+00  0.865264388E+00
     4
 # iter = 33500  time[fs]=33.50000
   C -0.199759589E+01  0.597134865E-01 -0.622696503E-02
   C  0.202711163E+01 -0.147899960E+00 -0.127907533E-01
   H -0.113469402E+02 -0.110649737E+01 -0.329403329E+00
   H  0.112673761E+02  0.852411806E+00  0.895473362E+00
     4
 # iter = 34000  time[fs]=34.00000
   C -0.206905989E+01  0.631631430E-01 -0.591980503E-02
   C  0.209778123E+01 -0.153210516E+00 -0.136841459E-01
   H -0.117245258E+02 -0.114362295E+01 -0.340664752E+00
   H  0.116351427E+02  0.883051923E+00  0.925811903E+00
     4
 # iter = 34500  time[fs]=34.50000
   C -0.214124001E+01  0.666560598E-01 -0.561124421E-02
   C  0.216914956E+01 -0.158565650E+00 -0.145861055E-01
   H -0.121032614E+02 -0.118086412E+01 -0.351961951E+00
   H  0.120042679E+02  0.913823428E+00  0.956272217E+00
     4
 # iter = 35000  time[fs]=35.00000
   C -0.221408914E+01  0.701896590E-01 -0.530121692E-02
   C  0.224117047E+01 -0.163962733E+00 -0.154962825E-01
   H -0.124830766E+02 -0.121821395E+01 -0.363292788E+00
   H  0.123746698E+02  0.944718806E+00  0.986847178E+00
     4
 # iter = 35500  time[fs]=35.50000
   C -0.228756430E+01  0.737615667E-01 -0.498967769E-02
   C  0.231380185E+01 -0.169399347E+00 -0.164143411E-01
   H -0.128639070E+02 -0.125566609E+01 -0.374655307E+00
   H  0.127462737E+02  0.975731159E+00  0.101753026E+01
     4
 # iter = 36000  time[fs]=36.00000
   C -0.236162618E+01  0.773695940E-01 -0.467659743E-02
   C  0.238700520E+01 -0.174873257E+00 -0.173399601E-01
   H -0.132456936E+02 -0.129321474E+01 -0.386047714E+00
   H  0.131190108E+02  0.100685414E+01  0.104831546E+01
     4
 # iter = 36500  time[fs]=36.50000
   C -0.243623880E+01  0.810117199E-01 -0.436196025E-02
   C  0.246074529E+01 -0.180382399E+00 -0.182728328E-01
   H -0.136283823E+02 -0.133085456E+01 -0.397468360E+00
   H  0.134928180E+02  0.103808190E+01  0.107919726E+01
     4
 # iter = 37000  time[fs]=37.00000
   C -0.251136913E+01  0.846860764E-01 -0.404576092E-02
   C  0.253498978E+01 -0.185924863E+00 -0.192126664E-01
   H -0.140119236E+02 -0.136858065E+01 -0.408915727E+00
   H  0.138676374E+02  0.106940902E+01  0.111017057E+01
     4
 # iter = 37500  time[fs]=37.50000
   C -0.258698682E+01  0.883909339E-01 -0.372800274E-02
   C  0.260970899E+01 -0.191498882E+00 -0.201591823E-01
   H -0.143962715E+02 -0.140638846E+01 -0.420388414E+00
   H  0.142434153E+02  0.110083050E+01  0.114123067E+01
     4
 # iter = 38000  time[fs]=38.00000
   C -0.266306394E+01  0.921246894E-01 -0.340869582E-02
   C  0.268487557E+01 -0.197102813E+00 -0.211121149E-01
   H -0.147813839E+02 -0.144427382E+01 -0.431885126E+00
   H  0.146201021E+02  0.113234171E+01  0.117237322E+01
     4
 # iter = 38500  time[fs]=38.50000
   C -0.273957472E+01  0.958858553E-01 -0.308785568E-02
   C  0.276046435E+01 -0.202735132E+00 -0.220712119E-01
   H -0.151672216E+02 -0.148223285E+01 -0.443404663E+00
   H  0.149976520E+02  0.116393832E+01  0.120359417E+01
     4
 # iter = 39000  time[fs]=39.00000
   C -0.281649540E+01  0.996730488E-01 -0.276550208E-02
   C  0.283645206E+01 -0.208394424E+00 -0.230362330E-01
   H -0.155537484E+02 -0.152026194E+01 -0.454945910E+00
   H  0.153760225E+02  0.119561632E+01  0.123488975E+01
     4
 # iter = 39500  time[fs]=39.50000
   C -0.289380397E+01  0.103484983E+00 -0.244165809E-02
   C  0.291281722E+01 -0.214079366E+00 -0.240069499E-01
   H -0.159409307E+02 -0.155835776E+01 -0.466507833E+00
   H  0.157551740E+02  0.122737198E+01  0.126625648E+01
     4
 # iter = 40000  time[fs]=40.00000
   C -0.297148007E+01  0.107320460E+00 -0.211634928E-02
   C  0.298953989E+01 -0.219788731E+00 -0.249831457E-01
   H -0.163287371E+02 -0.159651718E+01 -0.478089466E+00
   H  0.161350696E+02  0.125920179E+01  0.129769109E+01
     4
 # iter = 40500  time[fs]=40.50000
   C -0.304950479E+01  0.111178361E+00 -0.178960314E-02
   C  0.306660163E+01 -0.225521368E+00 -0.259646139E-01
   H -0.167171387E+02 -0.163473732E+01 -0.489689912E+00
   H  0.165156750E+02  0.129110250E+01  0.132919052E+01
     4
 # iter = 41000  time[fs]=41.00000
   C -0.312786057E+01  0.115057642E+00 -0.146144848E-02
   C  0.314398528E+01 -0.231276205E+00 -0.269511583E-01
   H -0.171061081E+02 -0.167301545E+01 -0.501308329E+00
   H  0.168969582E+02  0.132307105E+01  0.136075195E+01
     4
 # iter = 41500  time[fs]=41.50000
   C -0.320653109E+01  0.118957326E+00 -0.113191507E-02
   C  0.322167489E+01 -0.237052238E+00 -0.279425924E-01
   H -0.174956201E+02 -0.171134904E+01 -0.512943933E+00
   H  0.172788892E+02  0.135510456E+01  0.139237269E+01
     4
 # iter = 42000  time[fs]=42.00000
   C -0.328550114E+01  0.122876499E+00 -0.801033287E-03
   C  0.329965561E+01 -0.242848525E+00 -0.289387387E-01
   H -0.178856508E+02 -0.174973571E+01 -0.524595986E+00
   H  0.176614399E+02  0.138720036E+01  0.142405024E+01
     4
 # iter = 42500  time[fs]=42.50000
   C -0.336475651E+01  0.126814303E+00 -0.468833788E-03
   C  0.337791358E+01 -0.248664185E+00 -0.299394284E-01
   H -0.182761780E+02 -0.178817325E+01 -0.536263800E+00
   H  0.180445840E+02  0.141935590E+01  0.145578227E+01
     4
 # iter = 43000  time[fs]=43.00000
   C -0.344428396E+01  0.130769935E+00 -0.135347325E-03
   C  0.345643588E+01 -0.254498390E+00 -0.309445007E-01
   H -0.186671809E+02 -0.182665955E+01 -0.547946725E+00
   H  0.184282969E+02  0.145156882E+01  0.148756655E+01
     4
 # iter = 43500  time[fs]=43.50000
   C -0.352407109E+01  0.134742639E+00  0.199395455E-03
   C  0.353521040E+01 -0.260350361E+00 -0.319538027E-01
   H -0.190586399E+02 -0.186519266E+01 -0.559644153E+00
   H  0.188125552E+02  0.148383687E+01  0.151940102E+01
     4
 # iter = 44000  time[fs]=44.00000
   C -0.360410630E+01  0.138731705E+00  0.535364161E-03
   C  0.361422583E+01 -0.266219365E+00 -0.329671887E-01
   H -0.194505364E+02 -0.190377072E+01 -0.571355509E+00
   H  0.191973372E+02  0.151615793E+01  0.155128371E+01
     4
 # iter = 44500  time[fs]=44.50000
   C -0.368437870E+01  0.142736464E+00  0.872528769E-03
   C  0.369347157E+01 -0.272104714E+00 -0.339845197E-01
   H -0.198428533E+02 -0.194239198E+01 -0.583080252E+00
   H  0.195826223E+02  0.154853001E+01  0.158321278E+01
     4
 # iter = 45000  time[fs]=45.00000
   C -0.376487810E+01  0.146756286E+00  0.121085972E-02
   C  0.377293765E+01 -0.278005757E+00 -0.350056633E-01
   H -0.202355740E+02 -0.198105480E+01 -0.594817872E+00
   H  0.199683909E+02  0.158095122E+01  0.161518648E+01
     4
 # iter = 45500  time[fs]=45.50000
   C -0.384559491E+01  0.150790578E+00  0.155032799E-02
   C  0.385261473E+01 -0.283921881E+00 -0.360304934E-01
   H -0.206286833E+02 -0.201975764E+01 -0.606567887E+00
   H  0.203546249E+02  0.161341978E+01  0.164720316E+01
     4
 # iter = 46000  time[fs]=46.00000
   C -0.392652009E+01  0.154838777E+00  0.189090514E-02
   C  0.393249402E+01 -0.289852506E+00 -0.370588894E-01
   H -0.210221664E+02 -0.205849900E+01 -0.618329841E+00
   H  0.207413069E+02  0.164593398E+01  0.167926127E+01
     4
 # iter = 46500  time[fs]=46.50000
   C -0.400764516E+01  0.158900355E+00  0.223256337E-02
   C  0.401256724E+01 -0.295797084E+00 -0.380907364E-01
   H -0.214160096E+02 -0.209727752E+01 -0.630103303E+00
   H  0.211284205E+02  0.167849224E+01  0.171135933E+01
     4
 # iter = 47000  time[fs]=47.00000
   C -0.408896212E+01  0.162974810E+00  0.257527553E-02
   C  0.409282660E+01 -0.301755097E+00 -0.391259244E-01
   H -0.218102000E+02 -0.213609186E+01 -0.641887865E+00
   H  0.215159502E+02  0.171109303E+01  0.174349593E+01
     4
 # iter = 47500  time[fs]=47.50000
   C -0.417046342E+01  0.167061666E+00  0.291901516E-02
   C  0.417326474E+01 -0.307726055E+00 -0.401643485E-01
   H -0.222047250E+02 -0.217494078E+01 -0.653683138E+00
   H  0.219038812E+02  0.174373491E+01  0.177566974E+01
     4
 # iter = 48000  time[fs]=48.00000
   C -0.425214191E+01  0.171160475E+00  0.326375649E-02
   C  0.425387471E+01 -0.313709492E+00 -0.412059084E-01
   H -0.225995730E+02 -0.221382309E+01 -0.665488755E+00
   H  0.222921996E+02  0.177641650E+01  0.180787951E+01
     4
 # iter = 48500  time[fs]=48.50000
   C -0.433399088E+01  0.175270810E+00  0.360947445E-02
   C  0.433464997E+01 -0.319704966E+00 -0.422505082E-01
   H -0.229947330E+02 -0.225273767E+01 -0.677304368E+00
   H  0.226808922E+02  0.180913649E+01  0.184012403E+01
     4
 # iter = 49000  time[fs]=49.00000
   C -0.441600394E+01  0.179392266E+00  0.395614466E-02
   C  0.441558429E+01 -0.325712058E+00 -0.432980559E-01
   H -0.233901942E+02 -0.229168345E+01 -0.689129643E+00
   H  0.230699464E+02  0.184189365E+01  0.187240217E+01
     4
 # iter = 49500  time[fs]=49.50000
   C -0.449817505E+01  0.183524458E+00  0.430374345E-02
   C  0.449667181E+01 -0.331730371E+00 -0.443484636E-01
   H -0.237859467E+02 -0.233065941E+01 -0.700964264E+00
   H  0.234593501E+02  0.187468678E+01  0.190471282E+01
     4
 # iter = 50000  time[fs]=50.00000
   C -0.458049849E+01  0.187667023E+00  0.465224780E-02
   C  0.457790695E+01 -0.337759526E+00 -0.454016471E-01
   H -0.241819809E+02 -0.236966457E+01 -0.712807932E+00
   H  0.238490921E+02  0.190751477E+01  0.193705497E+01
     4
 # iter = 50500  time[fs]=50.50000
   C -0.466296884E+01  0.191819611E+00  0.500163542E-02
   C  0.465928444E+01 -0.343799162E+00 -0.464575257E-01
   H -0.245782878E+02 -0.240869802E+01 -0.724660358E+00
   H  0.242391613E+02  0.194037653E+01  0.196942762E+01
     4
 # iter = 51000  time[fs]=51.00000
   C -0.474558095E+01  0.195981893E+00  0.535188466E-02
   C  0.474079927E+01 -0.349848937E+00 -0.475160221E-01
   H -0.249748586E+02 -0.244775887E+01 -0.736521270E+00
   H  0.246295476E+02  0.197327104E+01  0.200182982E+01
     4
 # iter = 51500  time[fs]=51.50000
   C -0.482832993E+01  0.200153553E+00  0.570297450E-02
   C  0.482244668E+01 -0.355908523E+00 -0.485770619E-01
   H -0.253716850E+02 -0.248684628E+01 -0.748390408E+00
   H  0.250202410E+02  0.200619730E+01  0.203426069E+01
     4
 # iter = 52000  time[fs]=52.00000
   C -0.491121111E+01  0.204334290E+00  0.605488459E-02
   C  0.490422214E+01 -0.361977609E+00 -0.496405741E-01
   H -0.257687593E+02 -0.252595944E+01 -0.760267520E+00
   H  0.254112320E+02  0.203915439E+01  0.206671935E+01
     4
 # iter = 52500  time[fs]=52.50000
   C -0.499422008E+01  0.208523818E+00  0.640759520E-02
   C  0.498612136E+01 -0.368055897E+00 -0.507064901E-01
   H -0.261660738E+02 -0.256509760E+01 -0.772152371E+00
   H  0.258025117E+02  0.207214140E+01  0.209920500E+01
     4
 # iter = 53000  time[fs]=53.00000
   C -0.507735263E+01  0.212721864E+00  0.676108718E-02
   C  0.506814023E+01 -0.374143103E+00 -0.517747442E-01
   H -0.265636214E+02 -0.260426001E+01 -0.784044731E+00
   H  0.261940715E+02  0.210515747E+01  0.213171683E+01
     4
 # iter = 53500  time[fs]=53.50000
   C -0.516060473E+01  0.216928166E+00  0.711534198E-02
   C  0.515027485E+01 -0.380238956E+00 -0.528452735E-01
   H -0.269613952E+02 -0.264344597E+01 -0.795944383E+00
   H  0.265859032E+02  0.213820179E+01  0.216425410E+01
     4
 # iter = 54000  time[fs]=54.00000
   C -0.524397256E+01  0.221142475E+00  0.747034164E-02
   C  0.523252150E+01 -0.386343196E+00 -0.539180171E-01
   H -0.273593885E+02 -0.268265482E+01 -0.807851118E+00
   H  0.269779988E+02  0.217127355E+01  0.219681610E+01
     4
 # iter = 54500  time[fs]=54.50000
   C -0.532745246E+01  0.225364551E+00  0.782606872E-02
   C  0.531487664E+01 -0.392455575E+00 -0.549929168E-01
   H -0.277575952E+02 -0.272188590E+01 -0.819764737E+00
   H  0.273703508E+02  0.220437200E+01  0.222940211E+01
     4
 # iter = 55000  time[fs]=55.00000
   C -0.541104096E+01  0.229594166E+00  0.818250633E-02
   C  0.539733687E+01 -0.398575855E+00 -0.560699163E-01
   H -0.281560091E+02 -0.276113859E+01 -0.831685048E+00
   H  0.277629520E+02  0.223749641E+01  0.226201150E+01
     4
 # iter = 55500  time[fs]=55.50000
   C -0.549473471E+01  0.233831102E+00  0.853963812E-02
   C  0.547989896E+01 -0.404703809E+00 -0.571489617E-01
   H -0.285546244E+02 -0.280041231E+01 -0.843611866E+00
   H  0.281557954E+02  0.227064610E+01  0.229464361E+01
     4
 # iter = 56000  time[fs]=56.00000
   C -0.557853054E+01  0.238075148E+00  0.889744820E-02
   C  0.556255981E+01 -0.410839219E+00 -0.582300008E-01
   H -0.289534357E+02 -0.283970649E+01 -0.855545017E+00
   H  0.285488744E+02  0.230382037E+01  0.232729783E+01
     4
 # iter = 56500  time[fs]=56.50000
   C -0.566242539E+01  0.242326104E+00  0.925592120E-02
   C  0.564531647E+01 -0.416981875E+00 -0.593129835E-01
   H -0.293524375E+02 -0.287902058E+01 -0.867484330E+00
   H  0.289421827E+02  0.233701860E+01  0.235997359E+01
     4
 # iter = 57000  time[fs]=57.00000
   C -0.574641636E+01  0.246583777E+00  0.961504222E-02
   C  0.572816611E+01 -0.423131577E+00 -0.603978615E-01
   H -0.297516247E+02 -0.291835405E+01 -0.879429642E+00
   H  0.293357141E+02  0.237024017E+01  0.239267032E+01
     4
 # iter = 57500  time[fs]=57.50000
   C -0.583050065E+01  0.250847983E+00  0.997479678E-02
   C  0.581110601E+01 -0.429288132E+00 -0.614845882E-01
   H -0.301509926E+02 -0.295770641E+01 -0.891380798E+00
   H  0.297294626E+02  0.240348446E+01  0.242538746E+01
     4
 # iter = 58000  time[fs]=58.00000
   C -0.591467558E+01  0.255118542E+00  0.103351709E-01
   C  0.589413358E+01 -0.435451356E+00 -0.625731186E-01
   H -0.305505362E+02 -0.299707716E+01 -0.903337647E+00
   H  0.301234227E+02  0.243675093E+01  0.245812452E+01
     4
 # iter = 58500  time[fs]=58.50000
   C -0.599893860E+01  0.259395285E+00  0.106961509E-01
   C  0.597724634E+01 -0.441621071E+00 -0.636634093E-01
   H -0.309502511E+02 -0.303646584E+01 -0.915300044E+00
   H  0.305175888E+02  0.247003900E+01  0.249088097E+01
     4
 # iter = 59000  time[fs]=59.00000
   C -0.608328723E+01  0.263678049E+00  0.110577237E-01
   C  0.606044188E+01 -0.447797105E+00 -0.647554186E-01
   H -0.313501329E+02 -0.307587200E+01 -0.927267850E+00
   H  0.309119559E+02  0.250334815E+01  0.252365634E+01
     4
 # iter = 59500  time[fs]=59.50000
   C -0.616771913E+01  0.267966675E+00  0.114198764E-01
   C  0.614371793E+01 -0.453979295E+00 -0.658491059E-01
   H -0.317501774E+02 -0.311529520E+01 -0.939240930E+00
   H  0.313065187E+02  0.253667787E+01  0.255645017E+01
     4
 # iter = 60000  time[fs]=60.00000
   C -0.625223203E+01  0.272261011E+00  0.117825967E-01
   C  0.622707228E+01 -0.460167482E+00 -0.669444323E-01
   H -0.321503806E+02 -0.315473504E+01 -0.951219156E+00
   H  0.317012724E+02  0.257002765E+01  0.258926200E+01
     4
 # iter = 60500  time[fs]=60.50000
   C -0.633682374E+01  0.276560913E+00  0.121458725E-01
   C  0.631050283E+01 -0.466361515E+00 -0.680413600E-01
   H -0.325507384E+02 -0.319419111E+01 -0.963202404E+00
   H  0.320962124E+02  0.260339704E+01  0.262209139E+01
     4
 # iter = 61000  time[fs]=61.00000
   C -0.642149217E+01  0.280866238E+00  0.125096920E-01
   C  0.639400753E+01 -0.472561247E+00 -0.691398526E-01
   H -0.329512473E+02 -0.323366301E+01 -0.975190551E+00
   H  0.324913341E+02  0.263678555E+01  0.265493795E+01
     4
 # iter = 61500  time[fs]=61.50000
   C -0.650623532E+01  0.285176853E+00  0.128740441E-01
   C  0.647758445E+01 -0.478766536E+00 -0.702398747E-01
   H -0.333519035E+02 -0.327315038E+01 -0.987183484E+00
   H  0.328866333E+02  0.267019276E+01  0.268780125E+01
     4
 # iter = 62000  time[fs]=62.00000
   C -0.659105124E+01  0.289492626E+00  0.132389175E-01
   C  0.656123169E+01 -0.484977247E+00 -0.713413923E-01
   H -0.337527036E+02 -0.331265286E+01 -0.999181090E+00
   H  0.332821056E+02  0.270361823E+01  0.272068091E+01
     4
 # iter = 62500  time[fs]=62.50000
   C -0.667593808E+01  0.293813432E+00  0.136043017E-01
   C  0.664494746E+01 -0.491193248E+00 -0.724443724E-01
   H -0.341536441E+02 -0.335217010E+01 -0.101118326E+01
   H  0.336777470E+02  0.273706154E+01  0.275357656E+01
     4
 # iter = 63000  time[fs]=63.00000
   C -0.676089403E+01  0.298139150E+00  0.139701863E-01
   C  0.672873002E+01 -0.497414412E+00 -0.735487830E-01
   H -0.345547219E+02 -0.339170175E+01 -0.102318989E+01
   H  0.340735537E+02  0.277052230E+01  0.278648783E+01
     4
 # iter = 63500  time[fs]=63.50000
   C -0.684591738E+01  0.302469662E+00  0.143365611E-01
   C  0.681257768E+01 -0.503640618E+00 -0.746545932E-01
   H -0.349559337E+02 -0.343124751E+01 -0.103520088E+01
   H  0.344695217E+02  0.280400011E+01  0.281941438E+01
     4
 # iter = 64000  time[fs]=64.00000
   C -0.693100644E+01  0.306804856E+00  0.147034163E-01
   C  0.689648884E+01 -0.509871748E+00 -0.757617730E-01
   H -0.353572765E+02 -0.347080704E+01 -0.104721614E+01
   H  0.348656476E+02  0.283749461E+01  0.285235585E+01
     4
 # iter = 64500  time[fs]=64.50000
   C -0.701615963E+01  0.311144623E+00  0.150707424E-01
   C  0.698046194E+01 -0.516107686E+00 -0.768702934E-01
   H -0.357587474E+02 -0.351038004E+01 -0.105923556E+01
   H  0.352619277E+02  0.287100543E+01  0.288531193E+01
     4
 # iter = 65000  time[fs]=65.00000
   C -0.710137538E+01  0.315488856E+00  0.154385302E-01
   C  0.706449547E+01 -0.522348325E+00 -0.779801263E-01
   H -0.361603435E+02 -0.354996623E+01 -0.107125905E+01
   H  0.356583586E+02  0.290453221E+01  0.291828230E+01
     4
 # iter = 65500  time[fs]=65.50000
   C -0.718665221E+01  0.319837455E+00  0.158067706E-01
   C  0.714858799E+01 -0.528593556E+00 -0.790912444E-01
   H -0.365620621E+02 -0.358956532E+01 -0.108328654E+01
   H  0.360549370E+02  0.293807463E+01  0.295126665E+01
     4
 # iter = 66000  time[fs]=66.00000
   C -0.727198867E+01  0.324190321E+00  0.161754549E-01
   C  0.723273809E+01 -0.534843278E+00 -0.802036213E-01
   H -0.369639006E+02 -0.362917703E+01 -0.109531793E+01
   H  0.364516598E+02  0.297163235E+01  0.298426468E+01
     4
 # iter = 66500  time[fs]=66.50000
   C -0.735738336E+01  0.328547358E+00  0.165445745E-01
   C  0.731694444E+01 -0.541097389E+00 -0.813172313E-01
   H -0.373658562E+02 -0.366880109E+01 -0.110735314E+01
   H  0.368485238E+02  0.300520504E+01  0.301727610E+01
     4
 # iter = 67000  time[fs]=67.00000
   C -0.744283494E+01  0.332908476E+00  0.169141212E-01
   C  0.740120572E+01 -0.547355796E+00 -0.824320495E-01
   H -0.377679266E+02 -0.370843725E+01 -0.111939209E+01
   H  0.372455259E+02  0.303879241E+01  0.305030064E+01
     4
 # iter = 67500  time[fs]=67.50000
   C -0.752834212E+01  0.337273583E+00  0.172840869E-01
   C  0.748552067E+01 -0.553618403E+00 -0.835480518E-01
   H -0.381701094E+02 -0.374808526E+01 -0.113143470E+01
   H  0.376426634E+02  0.307239415E+01  0.308333802E+01
     4
 # iter = 68000  time[fs]=68.00000
   C -0.761390362E+01  0.341642595E+00  0.176544638E-01
   C  0.756988808E+01 -0.559885121E+00 -0.846652147E-01
   H -0.385724021E+02 -0.378774486E+01 -0.114348090E+01
   H  0.380399334E+02  0.310600997E+01  0.311638798E+01
     4
 # iter = 68500  time[fs]=68.50000
   C -0.769951825E+01  0.346015428E+00  0.180252442E-01
   C  0.765430677E+01 -0.566155862E+00 -0.857835155E-01
   H -0.389748025E+02 -0.382741584E+01 -0.115553062E+01
   H  0.384373332E+02  0.313963959E+01  0.314945027E+01
     4
 # iter = 69000  time[fs]=69.00000
   C -0.778518481E+01  0.350392000E+00  0.183964207E-01
   C  0.773877560E+01 -0.572430542E+00 -0.869029321E-01
   H -0.393773085E+02 -0.386709795E+01 -0.116758378E+01
   H  0.388348600E+02  0.317328273E+01  0.318252463E+01
     4
 # iter = 69500  time[fs]=69.50000
   C -0.787090217E+01  0.354772234E+00  0.187679860E-01
   C  0.782329346E+01 -0.578709079E+00 -0.880234429E-01
   H -0.397799178E+02 -0.390679097E+01 -0.117964031E+01
   H  0.392325115E+02  0.320693913E+01  0.321561084E+01
     4
 # iter = 70000  time[fs]=70.00000
   C -0.795666923E+01  0.359156053E+00  0.191399331E-01
   C  0.790785929E+01 -0.584991393E+00 -0.891450271E-01
   H -0.401826284E+02 -0.394649470E+01 -0.119170015E+01
   H  0.396302849E+02  0.324060853E+01  0.324870865E+01
     4
 # iter = 70500  time[fs]=70.50000
   C -0.804248492E+01  0.363543384E+00  0.195122552E-01
   C  0.799247206E+01 -0.591277406E+00 -0.902676643E-01
   H -0.405854384E+02 -0.398620892E+01 -0.120376323E+01
   H  0.400281781E+02  0.327429069E+01  0.328181785E+01
     4
 # iter = 71000  time[fs]=71.00000
   C -0.812834821E+01  0.367934155E+00  0.198849455E-01
   C  0.807713076E+01 -0.597567045E+00 -0.913913349E-01
   H -0.409883456E+02 -0.402593343E+01 -0.121582950E+01
   H  0.404261885E+02  0.330798535E+01  0.331493820E+01
     4
 # iter = 71500  time[fs]=71.50000
   C -0.821425809E+01  0.372328296E+00  0.202579976E-01
   C  0.816183443E+01 -0.603860236E+00 -0.925160197E-01
   H -0.413913484E+02 -0.406566803E+01 -0.122789888E+01
   H  0.408243139E+02  0.334169228E+01  0.334806951E+01
     4
 # iter = 72000  time[fs]=72.00000
   C -0.830021359E+01  0.376725742E+00  0.206314050E-01
   C  0.824658212E+01 -0.610156909E+00 -0.936416999E-01
   H -0.417944447E+02 -0.410541253E+01 -0.123997132E+01
   H  0.412225521E+02  0.337541125E+01  0.338121155E+01
     4
 # iter = 72500  time[fs]=72.50000
   C -0.838621378E+01  0.381126425E+00  0.210051616E-01
   C  0.833137292E+01 -0.616456995E+00 -0.947683574E-01
   H -0.421976328E+02 -0.414516674E+01 -0.125204677E+01
   H  0.416209010E+02  0.340914203E+01  0.341436414E+01
     4
 # iter = 73000  time[fs]=73.00000
   C -0.847225773E+01  0.385530283E+00  0.213792614E-01
   C  0.841620595E+01 -0.622760428E+00 -0.958959746E-01
   H -0.426009110E+02 -0.418493049E+01 -0.126412516E+01
   H  0.420193584E+02  0.344288442E+01  0.344752707E+01
     4
 # iter = 73500  time[fs]=73.50000
   C -0.855834457E+01  0.389937255E+00  0.217536985E-01
   C  0.850108035E+01 -0.629067143E+00 -0.970245341E-01
   H -0.430042777E+02 -0.422470360E+01 -0.127620645E+01
   H  0.424179223E+02  0.347663819E+01  0.348070015E+01
     4
 # iter = 74000  time[fs]=74.00000
   C -0.864447342E+01  0.394347279E+00  0.221284671E-01
   C  0.858599529E+01 -0.635377078E+00 -0.981540193E-01
   H -0.434077310E+02 -0.426448589E+01 -0.128829057E+01
   H  0.428165908E+02  0.351040315E+01  0.351388320E+01
     4
 # iter = 74500  time[fs]=74.50000
   C -0.873064347E+01  0.398760299E+00  0.225035616E-01
   C  0.867094996E+01 -0.641690172E+00 -0.992844138E-01
   H -0.438112696E+02 -0.430427719E+01 -0.130037748E+01
   H  0.432153619E+02  0.354417908E+01  0.354707604E+01
     4
 # iter = 75000  time[fs]=75.00000
   C -0.881685389E+01  0.403176257E+00  0.228789766E-01
   C  0.875594358E+01 -0.648006364E+00 -0.100415702E+00
   H -0.442148917E+02 -0.434407736E+01 -0.131246713E+01
   H  0.436142338E+02  0.357796580E+01  0.358027849E+01
     4
 # iter = 75500  time[fs]=75.50000
   C -0.890310390E+01  0.407595099E+00  0.232547068E-01
   C  0.884097539E+01 -0.654325599E+00 -0.101547868E+00
   H -0.446185959E+02 -0.438388623E+01 -0.132455946E+01
   H  0.440132046E+02  0.361176312E+01  0.361349038E+01
     4
 # iter = 76000  time[fs]=76.00000
   C -0.898939274E+01  0.412016771E+00  0.236307468E-01
   C  0.892604464E+01 -0.660647819E+00 -0.102680896E+00
   H -0.450223807E+02 -0.442370364E+01 -0.133665444E+01
   H  0.444122725E+02  0.364557085E+01  0.364671155E+01
     4
 # iter = 76500  time[fs]=76.50000
   C -0.907571965E+01  0.416441221E+00  0.240070918E-01
   C  0.901115062E+01 -0.666972970E+00 -0.103814773E+00
   H -0.454262447E+02 -0.446352944E+01 -0.134875201E+01
   H  0.448114359E+02  0.367938881E+01  0.367994183E+01
     4
 # iter = 77000  time[fs]=77.00000
   C -0.916208393E+01  0.420868398E+00  0.243837367E-01
   C  0.909629263E+01 -0.673300999E+00 -0.104949484E+00
   H -0.458301865E+02 -0.450336350E+01 -0.136085213E+01
   H  0.452106931E+02  0.371321682E+01  0.371318107E+01
     4
 # iter = 77500  time[fs]=77.50000
   C -0.924848486E+01  0.425298254E+00  0.247606766E-01
   C  0.918146998E+01 -0.679631854E+00 -0.106085014E+00
   H -0.462342048E+02 -0.454320567E+01 -0.137295475E+01
   H  0.456100423E+02  0.374705472E+01  0.374642911E+01
     4
 # iter = 78000  time[fs]=78.00000
   C -0.933492177E+01  0.429730740E+00  0.251379069E-01
   C  0.926668203E+01 -0.685965485E+00 -0.107221351E+00
   H -0.466382981E+02 -0.458305580E+01 -0.138505984E+01
   H  0.460094821E+02  0.378090234E+01  0.377968580E+01
     4
 # iter = 78500  time[fs]=78.50000
   C -0.942139398E+01  0.434165809E+00  0.255154229E-01
   C  0.935192812E+01 -0.692301843E+00 -0.108358480E+00
   H -0.470424653E+02 -0.462291377E+01 -0.139716735E+01
   H  0.464090109E+02  0.381475951E+01  0.381295099E+01
     4
 # iter = 79000  time[fs]=79.00000
   C -0.950790086E+01  0.438603417E+00  0.258932201E-01
   C  0.943720763E+01 -0.698640880E+00 -0.109496389E+00
   H -0.474467050E+02 -0.466277945E+01 -0.140927724E+01
   H  0.468086271E+02  0.384862607E+01  0.384622455E+01
     4
 # iter = 79500  time[fs]=79.50000
   C -0.959444178E+01  0.443043518E+00  0.262712941E-01
   C  0.952251996E+01 -0.704982550E+00 -0.110635065E+00
   H -0.478510160E+02 -0.470265269E+01 -0.142138946E+01
   H  0.472083293E+02  0.388250188E+01  0.387950633E+01
     4
 # iter = 80000  time[fs]=80.00000
   C -0.968101611E+01  0.447486071E+00  0.266496406E-01
   C  0.960786450E+01 -0.711326807E+00 -0.111774496E+00
   H -0.482553972E+02 -0.474253339E+01 -0.143350399E+01
   H  0.476081161E+02  0.391638678E+01  0.391279621E+01
