     4
 # iter = 25000  time[fs]=25.00000
   C -0.942216613E+00  0.466423578E-01 -0.288704696E-01
   C  0.100124614E+01 -0.352956063E-01  0.272664364E-01
   H -0.514411154E+01 -0.510470891E+00 -0.650596826E-01
   H  0.514961432E+01  0.549979178E+00 -0.293208722E+00
     4
 # iter = 25500  time[fs]=25.50000
   C -0.985144799E+00  0.495087078E-01 -0.289984826E-01
   C  0.104418020E+01 -0.381885680E-01  0.292213707E-01
   H -0.547215486E+01 -0.546133622E+00 -0.678175212E-01
   H  0.546569217E+01  0.586829365E+00 -0.313309618E+00
     4
 # iter = 26000  time[fs]=26.00000
   C -0.103114466E+01  0.525416982E-01 -0.292099867E-01
   C  0.109017517E+01 -0.412530652E-01  0.312949380E-01
   H -0.580581701E+01 -0.582437575E+00 -0.706260521E-01
   H  0.578751806E+01  0.624379512E+00 -0.333781526E+00
     4
 # iter = 26500  time[fs]=26.50000
   C -0.107996216E+01  0.557290986E-01 -0.294975317E-01
   C  0.113897711E+01 -0.444764846E-01  0.334758751E-01
   H -0.614445923E+01 -0.619310922E+00 -0.734793837E-01
   H  0.611445198E+01  0.662553202E+00 -0.354584579E+00
     4
 # iter = 27000  time[fs]=27.00000
   C -0.113135932E+01  0.590594631E-01 -0.298542730E-01
   C  0.119034835E+01 -0.478470278E-01  0.357540869E-01
   H -0.648754007E+01 -0.656692883E+00 -0.763725131E-01
   H  0.644594891E+01  0.701285421E+00 -0.375684776E+00
     4
 # iter = 27500  time[fs]=27.50000
   C -0.118511586E+01  0.625221326E-01 -0.302739719E-01
   C  0.124406901E+01 -0.513537136E-01  0.381205461E-01
   H -0.683459749E+01 -0.694531622E+00 -0.793011695E-01
   H  0.678154190E+01  0.740520472E+00 -0.397052922E+00
     4
 # iter = 28000  time[fs]=28.00000
   C -0.124102961E+01  0.661072268E-01 -0.307509762E-01
   C  0.129993739E+01 -0.549863687E-01  0.405671922E-01
   H -0.718523468E+01 -0.732782628E+00 -0.822616879E-01
   H  0.712082858E+01  0.780210322E+00 -0.418663786E+00
     4
 # iter = 28500  time[fs]=28.50000
   C -0.129891620E+01  0.698056244E-01 -0.312801856E-01
   C  0.135776961E+01 -0.587356059E-01  0.430868338E-01
   H -0.753910886E+01 -0.771407420E+00 -0.852509065E-01
   H  0.746346024E+01  0.820313304E+00 -0.440495434E+00
     4
 # iter = 29000  time[fs]=29.00000
   C -0.135860827E+01  0.736089321E-01 -0.318570112E-01
   C  0.141739880E+01 -0.625927910E-01  0.456730556E-01
   H -0.789592218E+01 -0.810372533E+00 -0.882660839E-01
   H  0.780913311E+01  0.860793059E+00 -0.462528690E+00
     4
 # iter = 29500  time[fs]=29.50000
   C -0.141995434E+01  0.775094467E-01 -0.324773314E-01
   C  0.147867398E+01 -0.665500024E-01  0.483201328E-01
   H -0.825541455E+01 -0.849648698E+00 -0.913048314E-01
   H  0.815758126E+01  0.901617701E+00 -0.484746707E+00
     4
 # iter = 30000  time[fs]=30.00000
   C -0.148281759E+01  0.815001110E-01 -0.331374470E-01
   C  0.154145878E+01 -0.705999851E-01  0.510229523E-01
   H -0.861735763E+01 -0.889210181E+00 -0.943650579E-01
   H  0.850857076E+01  0.942759119E+00 -0.507134606E+00
     4
 # iter = 30500  time[fs]=30.50000
   C -0.154707455E+01  0.855744684E-01 -0.338340390E-01
   C  0.160563018E+01 -0.747361026E-01  0.537769423E-01
   H -0.898155009E+01 -0.929034250E+00 -0.974449246E-01
   H  0.886189494E+01  0.984192425E+00 -0.529679195E+00
     4
 # iter = 31000  time[fs]=31.00000
   C -0.161261385E+01  0.897266155E-01 -0.345641280E-01
   C  0.167107723E+01 -0.789522885E-01  0.565780088E-01
   H -0.934781358E+01 -0.969100729E+00 -0.100542808E+00
   H  0.921737042E+01  0.102589548E+01 -0.552368723E+00
     4
 # iter = 31500  time[fs]=31.50000
   C -0.167933502E+01  0.939511569E-01 -0.353250375E-01
   C  0.173769986E+01 -0.832429983E-01  0.594224798E-01
   H -0.971598950E+01 -0.100939164E+01 -0.103657267E+00
   H  0.957483387E+01  0.106784853E+01 -0.575192682E+00
     4
 # iter = 32000  time[fs]=32.00000
   C -0.174714736E+01  0.982431604E-01 -0.361143603E-01
   C  0.180540774E+01 -0.876031647E-01  0.623070557E-01
   H -0.100859362E+02 -0.104989088E+01 -0.106787022E+00
   H  0.993413925E+01  0.111003384E+01 -0.598141642E+00
     4
 # iter = 32500  time[fs]=32.50000
   C -0.181596894E+01  0.102598116E+00 -0.369299289E-01
   C  0.187411926E+01 -0.920281536E-01  0.652287655E-01
   H -0.104575268E+02 -0.109058401E+01 -0.109930928E+00
   H  0.102951555E+02  0.115243548E+01 -0.621207112E+00
     4
 # iter = 33000  time[fs]=33.00000
   C -0.188572563E+01  0.107011897E+00 -0.377697881E-01
   C  0.194376064E+01 -0.965137253E-01  0.681849293E-01
   H -0.108306472E+02 -0.113145801E+01 -0.113087957E+00
   H  0.106577647E+02  0.119503908E+01 -0.644381418E+00
     4
 # iter = 33500  time[fs]=33.50000
   C -0.195635029E+01  0.111480725E+00 -0.386321714E-01
   C  0.201426502E+01 -0.101055997E+00  0.711731243E-01
   H -0.112051944E+02 -0.117250110E+01 -0.116257188E+00
   H  0.110218603E+02  0.123783161E+01 -0.667657606E+00
     4
 # iter = 34000  time[fs]=34.00000
   C -0.202778203E+01  0.116001136E+00 -0.395154804E-01
   C  0.208557178E+01 -0.105651409E+00  0.741911556E-01
   H -0.115810752E+02 -0.121370260E+01 -0.119437787E+00
   H  0.113873459E+02  0.128080124E+01 -0.691029355E+00
     4
 # iter = 34500  time[fs]=34.50000
   C -0.209996550E+01  0.120569950E+00 -0.404182655E-01
   C  0.215762585E+01 -0.110296694E+00  0.772370310E-01
   H -0.119582051E+02 -0.125505280E+01 -0.122629002E+00
   H  0.117541336E+02  0.132393721E+01 -0.714490903E+00
     4
 # iter = 35000  time[fs]=35.00000
   C -0.217285037E+01  0.125184248E+00 -0.413392101E-01
   C  0.223037711E+01 -0.114988853E+00  0.803089381E-01
   H -0.123365071E+02 -0.129654284E+01 -0.125830148E+00
   H  0.121221439E+02  0.136722968E+01 -0.738036986E+00
     4
 # iter = 35500  time[fs]=35.50000
   C -0.224639073E+01  0.129841343E+00 -0.422771162E-01
   C  0.230377990E+01 -0.119725122E+00  0.834052249E-01
   H -0.127159109E+02 -0.133816460E+01 -0.129040604E+00
   H  0.124913036E+02  0.141066966E+01 -0.761662779E+00
     4
 # iter = 36000  time[fs]=36.00000
   C -0.232054468E+01  0.134538760E+00 -0.432308912E-01
   C  0.237779252E+01 -0.124502960E+00  0.865243828E-01
   H -0.130963524E+02 -0.137991067E+01 -0.132259803E+00
   H  0.128615461E+02  0.145424889E+01 -0.785363855E+00
     4
 # iter = 36500  time[fs]=36.50000
   C -0.239527389E+01  0.139274218E+00 -0.441995373E-01
   C  0.245237682E+01 -0.129320019E+00  0.896650309E-01
   H -0.134777725E+02 -0.142177422E+01 -0.135487225E+00
   H  0.132328102E+02  0.149795977E+01 -0.809136137E+00
     4
 # iter = 37000  time[fs]=37.00000
   C -0.247054324E+01  0.144045608E+00 -0.451821411E-01
   C  0.252749786E+01 -0.134174133E+00  0.928259031E-01
   H -0.138601173E+02 -0.146374895E+01 -0.138722396E+00
   H  0.136050395E+02  0.154179530E+01 -0.832975865E+00
     4
 # iter = 37500  time[fs]=37.50000
   C -0.254632049E+01  0.148850982E+00 -0.461778657E-01
   C  0.260312359E+01 -0.139063297E+00  0.960058363E-01
   H -0.142433367E+02 -0.150582908E+01 -0.141964879E+00
   H  0.139781823E+02  0.158574902E+01 -0.856879567E+00
     4
 # iter = 38000  time[fs]=38.00000
   C -0.262257602E+01  0.153688535E+00 -0.471859419E-01
   C  0.267922453E+01 -0.143985655E+00  0.992037603E-01
   H -0.146273847E+02 -0.154800923E+01 -0.145214272E+00
   H  0.143521905E+02  0.162981495E+01 -0.880844027E+00
     4
 # iter = 38500  time[fs]=38.50000
   C -0.269928255E+01  0.158556592E+00 -0.482056625E-01
   C  0.275577354E+01 -0.148939485E+00  0.102418688E+00
   H -0.150122189E+02 -0.159028444E+01 -0.148470204E+00
   H  0.147270199E+02  0.167398755E+01 -0.904866260E+00
     4
 # iter = 39000  time[fs]=39.00000
   C -0.277641491E+01  0.163453599E+00 -0.492363755E-01
   C  0.283274560E+01 -0.153923189E+00  0.105649708E+00
   H -0.153977998E+02 -0.163265008E+01 -0.151732334E+00
   H  0.151026294E+02  0.171826166E+01 -0.928943496E+00
     4
 # iter = 39500  time[fs]=39.50000
   C -0.285394986E+01  0.168378112E+00 -0.502774791E-01
   C  0.291011759E+01 -0.158935279E+00  0.108895977E+00
   H -0.157840909E+02 -0.167510188E+01 -0.155000344E+00
   H  0.154789810E+02  0.176263250E+01 -0.953073154E+00
     4
 # iter = 40000  time[fs]=40.00000
   C -0.293186589E+01  0.173328785E+00 -0.513284169E-01
   C  0.298786813E+01 -0.163974371E+00  0.112156715E+00
   H -0.161710580E+02 -0.171763584E+01 -0.158273941E+00
   H  0.158560391E+02  0.180709560E+01 -0.977252829E+00
     4
 # iter = 40500  time[fs]=40.50000
   C -0.301014308E+01  0.178304364E+00 -0.523886738E-01
   C  0.306597740E+01 -0.169039174E+00  0.115431195E+00
   H -0.165586696E+02 -0.176024823E+01 -0.161552850E+00
   H  0.162337708E+02  0.185164680E+01 -0.100148028E+01
     4
 # iter = 41000  time[fs]=41.00000
   C -0.308876294E+01  0.183303679E+00 -0.534577718E-01
   C  0.314442702E+01 -0.174128485E+00  0.118718743E+00
   H -0.169468961E+02 -0.180293556E+01 -0.164836819E+00
   H  0.166121452E+02  0.189628220E+01 -0.102575339E+01
     4
 # iter = 41500  time[fs]=41.50000
   C -0.316770829E+01  0.188325635E+00 -0.545352671E-01
   C  0.322319991E+01 -0.179241176E+00  0.122018733E+00
   H -0.173357099E+02 -0.184569459E+01 -0.168125611E+00
   H  0.169911335E+02  0.194099817E+01 -0.105007022E+01
     4
 # iter = 42000  time[fs]=42.00000
   C -0.324696314E+01  0.193369210E+00 -0.556207468E-01
   C  0.330228018E+01 -0.184376195E+00  0.125330580E+00
   H -0.177250853E+02 -0.188852226E+01 -0.171419004E+00
   H  0.173707090E+02  0.198579127E+01 -0.107442891E+01
     4
 # iter = 42500  time[fs]=42.50000
   C -0.332651260E+01  0.198433445E+00 -0.567138265E-01
   C  0.338165301E+01 -0.189532553E+00  0.128653737E+00
   H -0.181149981E+02 -0.193141571E+01 -0.174716793E+00
   H  0.177508462E+02  0.203065832E+01 -0.109882772E+01
     4
 # iter = 43000  time[fs]=43.00000
   C -0.340634275E+01  0.203517442E+00 -0.578141474E-01
   C  0.346130458E+01 -0.194709327E+00  0.131987694E+00
   H -0.185054256E+02 -0.197437225E+01 -0.178018784E+00
   H  0.181315217E+02  0.207559629E+01 -0.112326505E+01
     4
 # iter = 43500  time[fs]=43.50000
   C -0.348644062E+01  0.208620356E+00 -0.589213746E-01
   C  0.354122200E+01 -0.199905646E+00  0.135331973E+00
   H -0.188963465E+02 -0.201738935E+01 -0.181324796E+00
   H  0.185127131E+02  0.212060236E+01 -0.114773935E+01
     4
 # iter = 44000  time[fs]=44.00000
   C -0.356679406E+01  0.213741395E+00 -0.600351947E-01
   C  0.362139318E+01 -0.205120693E+00  0.138686128E+00
   H -0.192877408E+02 -0.206046462E+01 -0.184634659E+00
   H  0.188943996E+02  0.216567385E+01 -0.117224918E+01
     4
 # iter = 44500  time[fs]=44.50000
   C -0.364739169E+01  0.218879813E+00 -0.611553146E-01
   C  0.370180682E+01 -0.210353700E+00  0.142049738E+00
   H -0.196795898E+02 -0.210359583E+01 -0.187948214E+00
   H  0.192765615E+02  0.221080825E+01 -0.119679318E+01
     4
 # iter = 45000  time[fs]=45.00000
   C -0.372822285E+01  0.224034907E+00 -0.622814593E-01
   C  0.378245232E+01 -0.215603944E+00  0.145422407E+00
   H -0.200718756E+02 -0.214678086E+01 -0.191265311E+00
   H  0.196591802E+02  0.225600319E+01 -0.122137006E+01
     4
 # iter = 45500  time[fs]=45.50000
   C -0.380927753E+01  0.229206014E+00 -0.634133707E-01
   C  0.386331973E+01 -0.220870740E+00  0.148803767E+00
   H -0.204645815E+02 -0.219001770E+01 -0.194585808E+00
   H  0.200422383E+02  0.230125641E+01 -0.124597862E+01
     4
 # iter = 46000  time[fs]=46.00000
   C -0.389054631E+01  0.234392510E+00 -0.645508065E-01
   C  0.394439971E+01 -0.226153446E+00  0.152193466E+00
   H -0.208576918E+02 -0.223330446E+01 -0.197909572E+00
   H  0.204257193E+02  0.234656579E+01 -0.127061770E+01
     4
 # iter = 46500  time[fs]=46.50000
   C -0.397202035E+01  0.239593805E+00 -0.656935386E-01
   C  0.402568345E+01 -0.231451452E+00  0.155591176E+00
   H -0.212511913E+02 -0.227663934E+01 -0.201236478E+00
   H  0.208096075E+02  0.239192933E+01 -0.129528621E+01
     4
 # iter = 47000  time[fs]=47.00000
   C -0.405369130E+01  0.244809340E+00 -0.668413523E-01
   C  0.410716267E+01 -0.236764183E+00  0.158996587E+00
   H -0.216450661E+02 -0.232002066E+01 -0.204566406E+00
   H  0.211938881E+02  0.243734511E+01 -0.131998313E+01
     4
 # iter = 47500  time[fs]=47.50000
   C -0.413555133E+01  0.250038587E+00 -0.679940452E-01
   C  0.418882957E+01 -0.242091094E+00  0.162409405E+00
   H -0.220393027E+02 -0.236344679E+01 -0.207899245E+00
   H  0.215785472E+02  0.248281133E+01 -0.134470746E+01
     4
 # iter = 48000  time[fs]=48.00000
   C -0.421759300E+01  0.255281047E+00 -0.691514264E-01
   C  0.427067679E+01 -0.247431671E+00  0.165829352E+00
   H -0.224338885E+02 -0.240691622E+01 -0.211234889E+00
   H  0.219635714E+02  0.252832627E+01 -0.136945829E+01
     4
 # iter = 48500  time[fs]=48.50000
   C -0.429980932E+01  0.260536244E+00 -0.703133156E-01
   C  0.435269736E+01 -0.252785423E+00  0.169256167E+00
   H -0.228288112E+02 -0.245042748E+01 -0.214573236E+00
   H  0.223489482E+02  0.257388830E+01 -0.139423473E+01
     4
 # iter = 49000  time[fs]=49.00000
   C -0.438219366E+01  0.265803730E+00 -0.714795424E-01
   C  0.443488471E+01 -0.258151886E+00  0.172689600E+00
   H -0.232240596E+02 -0.249397920E+01 -0.217914191E+00
   H  0.227346655E+02  0.261949587E+01 -0.141903593E+01
     4
 # iter = 49500  time[fs]=49.50000
   C -0.446473978E+01  0.271083077E+00 -0.726499454E-01
   C  0.451723262E+01 -0.263530621E+00  0.176129417E+00
   H -0.236196227E+02 -0.253757005E+01 -0.221257664E+00
   H  0.231207121E+02  0.266514750E+01 -0.144386111E+01
     4
 # iter = 50000  time[fs]=50.00000
   C -0.454744172E+01  0.276373879E+00 -0.738243719E-01
   C  0.459973519E+01 -0.268921209E+00  0.179575394E+00
   H -0.240154902E+02 -0.258119880E+01 -0.224603568E+00
   H  0.235070770E+02  0.271084178E+01 -0.146870948E+01
     4
 # iter = 50500  time[fs]=50.50000
   C -0.463029387E+01  0.281675751E+00 -0.750026771E-01
   C  0.468238684E+01 -0.274323251E+00  0.183027318E+00
   H -0.244116522E+02 -0.262486424E+01 -0.227951822E+00
   H  0.238937501E+02  0.275657738E+01 -0.149358034E+01
     4
 # iter = 51000  time[fs]=51.00000
   C -0.471329090E+01  0.286988326E+00 -0.761847238E-01
   C  0.476518228E+01 -0.279736369E+00  0.186484988E+00
   H -0.248080993E+02 -0.266856524E+01 -0.231302349E+00
   H  0.242807213E+02  0.280235301E+01 -0.151847298E+01
     4
 # iter = 51500  time[fs]=51.50000
   C -0.479642775E+01  0.292311254E+00 -0.773703816E-01
   C  0.484811647E+01 -0.285160201E+00  0.189948213E+00
   H -0.252048226E+02 -0.271230071E+01 -0.234655073E+00
   H  0.246679815E+02  0.284816746E+01 -0.154338674E+01
     4
 # iter = 52000  time[fs]=52.00000
   C -0.487969959E+01  0.297644201E+00 -0.785595265E-01
   C  0.493118463E+01 -0.290594405E+00  0.193416810E+00
   H -0.256018135E+02 -0.275606962E+01 -0.238009925E+00
   H  0.250555216E+02  0.289401954E+01 -0.156832099E+01
     4
 # iter = 52500  time[fs]=52.50000
   C -0.496310186E+01  0.302986850E+00 -0.797520409E-01
   C  0.501438223E+01 -0.296038650E+00  0.196890604E+00
   H -0.259990639E+02 -0.279987096E+01 -0.241366837E+00
   H  0.254433331E+02  0.293990816E+01 -0.159327512E+01
     4
 # iter = 53000  time[fs]=53.00000
   C -0.504663020E+01  0.308338898E+00 -0.809478126E-01
   C  0.509770493E+01 -0.301492626E+00  0.200369431E+00
   H -0.263965660E+02 -0.284370380E+01 -0.244725745E+00
   H  0.258314079E+02  0.298583224E+01 -0.161824855E+01
     4
 # iter = 53500  time[fs]=53.50000
   C -0.513028047E+01  0.313700055E+00 -0.821467348E-01
   C  0.518114862E+01 -0.306956032E+00  0.203853133E+00
   H -0.267943123E+02 -0.288756721E+01 -0.248086587E+00
   H  0.262197382E+02  0.303179076E+01 -0.164324074E+01
     4
 # iter = 54000  time[fs]=54.00000
   C -0.521404871E+01  0.319070044E+00 -0.833487060E-01
   C  0.526470938E+01 -0.312428583E+00  0.207341557E+00
   H -0.271922957E+02 -0.293146034E+01 -0.251449306E+00
   H  0.266083164E+02  0.307778275E+01 -0.166825114E+01
     4
 # iter = 54500  time[fs]=54.50000
   C -0.529793116E+01  0.324448601E+00 -0.845536290E-01
   C  0.534838346E+01 -0.317910005E+00  0.210834561E+00
   H -0.275905094E+02 -0.297538236E+01 -0.254813845E+00
   H  0.269971356E+02  0.312380726E+01 -0.169327925E+01
     4
 # iter = 55000  time[fs]=55.00000
   C -0.538192423E+01  0.329835472E+00 -0.857614113E-01
   C  0.543216730E+01 -0.323400037E+00  0.214332007E+00
   H -0.279889468E+02 -0.301933245E+01 -0.258180151E+00
   H  0.273861887E+02  0.316986340E+01 -0.171832459E+01
     4
 # iter = 55500  time[fs]=55.50000
   C -0.546602448E+01  0.335230417E+00 -0.869719646E-01
   C  0.551605749E+01 -0.328898430E+00  0.217833763E+00
   H -0.283876017E+02 -0.306330985E+01 -0.261548172E+00
   H  0.277754694E+02  0.321595030E+01 -0.174338668E+01
     4
 # iter = 56000  time[fs]=56.00000
   C -0.555022863E+01  0.340633201E+00 -0.881852043E-01
   C  0.560005077E+01 -0.334404943E+00  0.221339703E+00
   H -0.287864680E+02 -0.310731384E+01 -0.264917859E+00
   H  0.281649712E+02  0.326206714E+01 -0.176846507E+01
     4
 # iter = 56500  time[fs]=56.50000
   C -0.563453355E+01  0.346043604E+00 -0.894010498E-01
   C  0.568414403E+01 -0.339919346E+00  0.224849706E+00
   H -0.291855401E+02 -0.315134370E+01 -0.268289166E+00
   H  0.285546882E+02  0.330821311E+01 -0.179355933E+01
     4
 # iter = 57000  time[fs]=57.00000
   C -0.571893623E+01  0.351461411E+00 -0.906194238E-01
   C  0.576833429E+01 -0.345441419E+00  0.228363656E+00
   H -0.295848122E+02 -0.319539875E+01 -0.271662046E+00
   H  0.289446145E+02  0.335438747E+01 -0.181866905E+01
     4
 # iter = 57500  time[fs]=57.50000
   C -0.580343381E+01  0.356886418E+00 -0.918402524E-01
   C  0.585261870E+01 -0.350970950E+00  0.231881444E+00
   H -0.299842793E+02 -0.323947834E+01 -0.275036458E+00
   H  0.293347446E+02  0.340058947E+01 -0.184379383E+01
     4
 # iter = 58000  time[fs]=58.00000
   C -0.588802354E+01  0.362318429E+00 -0.930634647E-01
   C  0.593699453E+01 -0.356507738E+00  0.235402962E+00
   H -0.303839360E+02 -0.328358184E+01 -0.278412358E+00
   H  0.297250732E+02  0.344681840E+01 -0.186893328E+01
     4
 # iter = 58500  time[fs]=58.50000
   C -0.597270278E+01  0.367757255E+00 -0.942889930E-01
   C  0.602145916E+01 -0.362051586E+00  0.238928109E+00
   H -0.307837776E+02 -0.332770865E+01 -0.281789708E+00
   H  0.301155950E+02  0.349307359E+01 -0.189408704E+01
     4
 # iter = 59000  time[fs]=59.00000
   C -0.605746901E+01  0.373202715E+00 -0.955167720E-01
   C  0.610601009E+01 -0.367602307E+00  0.242456787E+00
   H -0.311837993E+02 -0.337185818E+01 -0.285168469E+00
   H  0.305063053E+02  0.353935438E+01 -0.191925474E+01
     4
 # iter = 59500  time[fs]=59.50000
   C -0.614231979E+01  0.378654634E+00 -0.967467394E-01
   C  0.619064492E+01 -0.373159722E+00  0.245988901E+00
   H -0.315839965E+02 -0.341602988E+01 -0.288548604E+00
   H  0.308971991E+02  0.358566013E+01 -0.194443605E+01
     4
 # iter = 60000  time[fs]=60.00000
   C -0.622725282E+01  0.384112846E+00 -0.979788352E-01
   C  0.627536132E+01 -0.378723657E+00  0.249524362E+00
   H -0.319843649E+02 -0.346022321E+01 -0.291930078E+00
   H  0.312882719E+02  0.363199025E+01 -0.196963063E+01
     4
 # iter = 60500  time[fs]=60.50000
   C -0.631226585E+01  0.389577188E+00 -0.992130020E-01
   C  0.636015709E+01 -0.384293945E+00  0.253063081E+00
   H -0.323849002E+02 -0.350443764E+01 -0.295312856E+00
   H  0.316795193E+02  0.367834414E+01 -0.199483817E+01
     4
 # iter = 61000  time[fs]=61.00000
   C -0.639735673E+01  0.395047506E+00 -0.100449184E+00
   C  0.644503010E+01 -0.389870425E+00  0.256604977E+00
   H -0.327855984E+02 -0.354867267E+01 -0.298696906E+00
   H  0.320709371E+02  0.372472124E+01 -0.202005835E+01
     4
 # iter = 61500  time[fs]=61.50000
   C -0.648252341E+01  0.400523650E+00 -0.101687329E+00
   C  0.652997829E+01 -0.395452944E+00  0.260149967E+00
   H -0.331864555E+02 -0.359292782E+01 -0.302082196E+00
   H  0.324625211E+02  0.377112101E+01 -0.204529089E+01
     4
 # iter = 62000  time[fs]=62.00000
   C -0.656776390E+01  0.406005476E+00 -0.102927385E+00
   C  0.661499970E+01 -0.401041353E+00  0.263697975E+00
   H -0.335874678E+02 -0.363720262E+01 -0.305468695E+00
   H  0.328542674E+02  0.381754291E+01 -0.207053549E+01
     4
 # iter = 62500  time[fs]=62.50000
   C -0.665307629E+01  0.411492845E+00 -0.104169304E+00
   C  0.670009243E+01 -0.406635506E+00  0.267248926E+00
   H -0.339886316E+02 -0.368149662E+01 -0.308856375E+00
   H  0.332461721E+02  0.386398644E+01 -0.209579188E+01
     4
 # iter = 63000  time[fs]=63.00000
   C -0.673845874E+01  0.416985623E+00 -0.105413037E+00
   C  0.678525466E+01 -0.412235267E+00  0.270802748E+00
   H -0.343899434E+02 -0.372580938E+01 -0.312245206E+00
   H  0.336382316E+02  0.391045111E+01 -0.212105979E+01
     4
 # iter = 63500  time[fs]=63.50000
   C -0.682390950E+01  0.422483681E+00 -0.106658539E+00
   C  0.687048464E+01 -0.417840502E+00  0.274359371E+00
   H -0.347913997E+02 -0.377014047E+01 -0.315635162E+00
   H  0.340304422E+02  0.395693644E+01 -0.214633896E+01
     4
 # iter = 64000  time[fs]=64.00000
   C -0.690942684E+01  0.427986894E+00 -0.107905767E+00
   C  0.695578067E+01 -0.423451080E+00  0.277918728E+00
   H -0.351929974E+02 -0.381448950E+01 -0.319026215E+00
   H  0.344228007E+02  0.400344197E+01 -0.217162915E+01
     4
 # iter = 64500  time[fs]=64.50000
   C -0.699500913E+01  0.433495142E+00 -0.109154677E+00
   C  0.704114112E+01 -0.429066879E+00  0.281480756E+00
   H -0.355947332E+02 -0.385885607E+01 -0.322418341E+00
   H  0.348153035E+02  0.404996725E+01 -0.219693011E+01
     4
 # iter = 65000  time[fs]=65.00000
   C -0.708065478E+01  0.439008309E+00 -0.110405230E+00
   C  0.712656443E+01 -0.434687777E+00  0.285045390E+00
   H -0.359966040E+02 -0.390323979E+01 -0.325811515E+00
   H  0.352079476E+02  0.409651187E+01 -0.222224160E+01
     4
 # iter = 65500  time[fs]=65.50000
   C -0.716636227E+01  0.444526281E+00 -0.111657385E+00
   C  0.721204906E+01 -0.440313659E+00  0.288612572E+00
   H -0.363986069E+02 -0.394764030E+01 -0.329205713E+00
   H  0.356007298E+02  0.414307540E+01 -0.224756340E+01
     4
 # iter = 66000  time[fs]=66.00000
   C -0.725213012E+01  0.450048952E+00 -0.112911105E+00
   C  0.729759357E+01 -0.445944411E+00  0.292182243E+00
   H -0.368007390E+02 -0.399205723E+01 -0.332600912E+00
   H  0.359936471E+02  0.418965743E+01 -0.227289530E+01
     4
 # iter = 66500  time[fs]=66.50000
   C -0.733795691E+01  0.455576214E+00 -0.114166352E+00
   C  0.738319653E+01 -0.451579926E+00  0.295754347E+00
   H -0.372029975E+02 -0.403649025E+01 -0.335997090E+00
   H  0.363866965E+02  0.423625759E+01 -0.229823707E+01
     4
 # iter = 67000  time[fs]=67.00000
   C -0.742384126E+01  0.461107968E+00 -0.115423092E+00
   C  0.746885658E+01 -0.457220097E+00  0.299328829E+00
   H -0.376053797E+02 -0.408093902E+01 -0.339394225E+00
   H  0.367798753E+02  0.428287548E+01 -0.232358852E+01
     4
 # iter = 67500  time[fs]=67.50000
   C -0.750978185E+01  0.466644114E+00 -0.116681291E+00
   C  0.755457241E+01 -0.462864824E+00  0.302905637E+00
   H -0.380078830E+02 -0.412540320E+01 -0.342792296E+00
   H  0.371731807E+02  0.432951075E+01 -0.234894944E+01
     4
 # iter = 68000  time[fs]=68.00000
   C -0.759577739E+01  0.472184558E+00 -0.117940914E+00
   C  0.764034274E+01 -0.468514008E+00  0.306484719E+00
   H -0.384105049E+02 -0.416988249E+01 -0.346191283E+00
   H  0.375666101E+02  0.437616303E+01 -0.237431965E+01
     4
 # iter = 68500  time[fs]=68.50000
   C -0.768182664E+01  0.477729207E+00 -0.119201931E+00
   C  0.772616634E+01 -0.474167554E+00  0.310066028E+00
   H -0.388132428E+02 -0.421437658E+01 -0.349591168E+00
   H  0.379601609E+02  0.442283200E+01 -0.239969894E+01
     4
 # iter = 69000  time[fs]=69.00000
   C -0.776792840E+01  0.483277972E+00 -0.120464309E+00
   C  0.781204202E+01 -0.479825368E+00  0.313649513E+00
   H -0.392160946E+02 -0.425888517E+01 -0.352991929E+00
   H  0.383538306E+02  0.446951730E+01 -0.242508715E+01
     4
 # iter = 69500  time[fs]=69.50000
   C -0.785408151E+01  0.488830767E+00 -0.121728020E+00
   C  0.789796863E+01 -0.485487362E+00  0.317235131E+00
   H -0.396190577E+02 -0.430340798E+01 -0.356393551E+00
   H  0.387476168E+02  0.451621861E+01 -0.245048409E+01
     4
 # iter = 70000  time[fs]=70.00000
   C -0.794028484E+01  0.494387507E+00 -0.122993034E+00
   C  0.798394505E+01 -0.491153449E+00  0.320822835E+00
   H -0.400221300E+02 -0.434794472E+01 -0.359796013E+00
   H  0.391415172E+02  0.456293563E+01 -0.247588959E+01
     4
 # iter = 70500  time[fs]=70.50000
   C -0.802653731E+01  0.499948112E+00 -0.124259322E+00
   C  0.806997019E+01 -0.496823545E+00  0.324412583E+00
   H -0.404253094E+02 -0.439249513E+01 -0.363199301E+00
   H  0.395355295E+02  0.460966804E+01 -0.250130349E+01
     4
 # iter = 71000  time[fs]=71.00000
   C -0.811283787E+01  0.505512502E+00 -0.125526859E+00
   C  0.815604303E+01 -0.502497568E+00  0.328004332E+00
   H -0.408285937E+02 -0.443705893E+01 -0.366603396E+00
   H  0.399296515E+02  0.465641555E+01 -0.252672562E+01
     4
 # iter = 71500  time[fs]=71.50000
   C -0.819918549E+01  0.511080602E+00 -0.126795617E+00
   C  0.824216254E+01 -0.508175438E+00  0.331598042E+00
   H -0.412319809E+02 -0.448163588E+01 -0.370008282E+00
   H  0.403238810E+02  0.470317786E+01 -0.255215584E+01
     4
 # iter = 72000  time[fs]=72.00000
   C -0.828557918E+01  0.516652337E+00 -0.128065571E+00
   C  0.832832774E+01 -0.513857080E+00  0.335193672E+00
   H -0.416354689E+02 -0.452622573E+01 -0.373413944E+00
   H  0.407182159E+02  0.474995471E+01 -0.257759397E+01
     4
 # iter = 72500  time[fs]=72.50000
   C -0.837201799E+01  0.522227635E+00 -0.129336697E+00
   C  0.841453768E+01 -0.519542419E+00  0.338791186E+00
   H -0.420390559E+02 -0.457082823E+01 -0.376820366E+00
   H  0.411126544E+02  0.479674581E+01 -0.260303989E+01
     4
 # iter = 73000  time[fs]=73.00000
   C -0.845850098E+01  0.527806426E+00 -0.130608969E+00
   C  0.850079144E+01 -0.525231382E+00  0.342390544E+00
   H -0.424427399E+02 -0.461544315E+01 -0.380227534E+00
   H  0.415071942E+02  0.484355091E+01 -0.262849343E+01
     4
 # iter = 73500  time[fs]=73.50000
   C -0.854502725E+01  0.533388642E+00 -0.131882366E+00
   C  0.858708812E+01 -0.530923898E+00  0.345991712E+00
   H -0.428465193E+02 -0.466007026E+01 -0.383635434E+00
   H  0.419018337E+02  0.489036974E+01 -0.265395447E+01
     4
 # iter = 74000  time[fs]=74.00000
   C -0.863159594E+01  0.538974217E+00 -0.133156863E+00
   C  0.867342685E+01 -0.536619900E+00  0.349594654E+00
   H -0.432503920E+02 -0.470470934E+01 -0.387044050E+00
   H  0.422965709E+02  0.493720205E+01 -0.267942286E+01
     4
 # iter = 74500  time[fs]=74.50000
   C -0.871820618E+01  0.544563088E+00 -0.134432440E+00
   C  0.875980680E+01 -0.542319322E+00  0.353199336E+00
   H -0.436543566E+02 -0.474936017E+01 -0.390453370E+00
   H  0.426914040E+02  0.498404760E+01 -0.270489848E+01
     4
 # iter = 75000  time[fs]=75.00000
   C -0.880485716E+01  0.550155191E+00 -0.135709075E+00
   C  0.884622715E+01 -0.548022097E+00  0.356805724E+00
   H -0.440584112E+02 -0.479402254E+01 -0.393863380E+00
   H  0.430863312E+02  0.503090615E+01 -0.273038119E+01
     4
 # iter = 75500  time[fs]=75.50000
   C -0.889154807E+01  0.555750467E+00 -0.136986748E+00
   C  0.893268709E+01 -0.553728165E+00  0.360413787E+00
   H -0.444625543E+02 -0.483869624E+01 -0.397274067E+00
   H  0.434813509E+02  0.507777748E+01 -0.275587087E+01
     4
 # iter = 76000  time[fs]=76.00000
   C -0.897827814E+01  0.561348856E+00 -0.138265438E+00
   C  0.901918587E+01 -0.559437464E+00  0.364023493E+00
   H -0.448667842E+02 -0.488338108E+01 -0.400685420E+00
   H  0.438764614E+02  0.512466135E+01 -0.278136739E+01
     4
 # iter = 76500  time[fs]=76.50000
   C -0.906504661E+01  0.566950301E+00 -0.139545125E+00
   C  0.910572272E+01 -0.565149934E+00  0.367634812E+00
   H -0.452710995E+02 -0.492807686E+01 -0.404097425E+00
   H  0.442716611E+02  0.517155754E+01 -0.280687063E+01
     4
 # iter = 77000  time[fs]=77.00000
   C -0.915185275E+01  0.572554747E+00 -0.140825792E+00
   C  0.919229693E+01 -0.570865518E+00  0.371247713E+00
   H -0.456754985E+02 -0.497278340E+01 -0.407510071E+00
   H  0.446669484E+02  0.521846585E+01 -0.283238049E+01
     4
 # iter = 77500  time[fs]=77.50000
   C -0.923869584E+01  0.578162139E+00 -0.142107418E+00
   C  0.927890778E+01 -0.576584160E+00  0.374862169E+00
   H -0.460799799E+02 -0.501750050E+01 -0.410923346E+00
   H  0.450623217E+02  0.526538607E+01 -0.285789684E+01
     4
 # iter = 78000  time[fs]=78.00000
   C -0.932557520E+01  0.583772423E+00 -0.143389988E+00
   C  0.936555459E+01 -0.582305805E+00  0.378478151E+00
   H -0.464845422E+02 -0.506222798E+01 -0.414337240E+00
   H  0.454577796E+02  0.531231799E+01 -0.288341958E+01
     4
 # iter = 78500  time[fs]=78.50000
   C -0.941249014E+01  0.589385550E+00 -0.144673482E+00
   C  0.945223668E+01 -0.588030399E+00  0.382095632E+00
   H -0.468891840E+02 -0.510696568E+01 -0.417751741E+00
   H  0.458533205E+02  0.535926141E+01 -0.290894860E+01
     4
 # iter = 79000  time[fs]=79.00000
   C -0.949944001E+01  0.595001469E+00 -0.145957884E+00
   C  0.953895341E+01 -0.593757890E+00  0.385714584E+00
   H -0.472939039E+02 -0.515171342E+01 -0.421166838E+00
   H  0.462489432E+02  0.540621615E+01 -0.293448379E+01
     4
 # iter = 79500  time[fs]=79.50000
   C -0.958642417E+01  0.600620130E+00 -0.147243178E+00
   C  0.962570414E+01 -0.599488229E+00  0.389334983E+00
   H -0.476987007E+02 -0.519647104E+01 -0.424582521E+00
   H  0.466446462E+02  0.545318201E+01 -0.296002505E+01
     4
 # iter = 80000  time[fs]=80.00000
   C -0.967344199E+01  0.606241487E+00 -0.148529347E+00
   C  0.971248825E+01 -0.605221366E+00  0.392956803E+00
   H -0.481035731E+02 -0.524123837E+01 -0.427998781E+00
   H  0.470404281E+02  0.550015881E+01 -0.298557228E+01
