     4
 # iter = 25000  time[fs]=25.00000
   C -0.989073055E+00 -0.406882451E-01 -0.238620053E-01
   C  0.100174272E+01  0.281913747E-03 -0.191875673E-01
   H -0.522026442E+01 -0.442153914E+00 -0.588054375E+00
   H  0.526098462E+01  0.417028025E+00  0.581985351E+00
     4
 # iter = 25500  time[fs]=25.50000
   C -0.103557345E+01 -0.403691947E-01 -0.213374682E-01
   C  0.104557671E+01 -0.552920925E-03 -0.203862785E-01
   H -0.555274214E+01 -0.468719099E+00 -0.622302603E+00
   H  0.557719872E+01  0.444726333E+00  0.621589620E+00
     4
 # iter = 26000  time[fs]=26.00000
   C -0.108559963E+01 -0.401109030E-01 -0.188028770E-01
   C  0.109293809E+01 -0.132746900E-02 -0.215963932E-01
   H -0.588791176E+01 -0.495517407E+00 -0.656870480E+00
   H  0.589608531E+01  0.472663431E+00  0.661529730E+00
     4
 # iter = 26500  time[fs]=26.50000
   C -0.113884686E+01 -0.399039928E-01 -0.162538353E-01
   C  0.114352105E+01 -0.205120311E-02 -0.228223879E-01
   H -0.622547151E+01 -0.522522502E+00 -0.691721588E+00
   H  0.621735572E+01  0.500814124E+00  0.701770226E+00
     4
 # iter = 27000  time[fs]=27.00000
   C -0.119503096E+01 -0.397404350E-01 -0.136871221E-01
   C  0.119704063E+01 -0.273221095E-02 -0.240675174E-01
   H -0.656516698E+01 -0.549712275E+00 -0.726825431E+00
   H  0.654076495E+01  0.529157010E+00  0.742281015E+00
     4
 # iter = 27500  time[fs]=27.50000
   C -0.125389014E+01 -0.396134150E-01 -0.111004952E-01
   C  0.125323446E+01 -0.337734019E-02 -0.253340263E-01
   H -0.690678180E+01 -0.577067992E+00 -0.762156213E+00
   H  0.686610338E+01  0.557673749E+00  0.783036333E+00
     4
 # iter = 28000  time[fs]=28.00000
   C -0.131518533E+01 -0.395171839E-01 -0.849250274E-02
   C  0.131186308E+01 -0.399235552E-02 -0.266233491E-01
   H -0.725013050E+01 -0.604573633E+00 -0.797691920E+00
   H  0.719319030E+01  0.586348513E+00  0.824013956E+00
     4
 # iter = 28500  time[fs]=28.50000
   C -0.137869960E+01 -0.394469099E-01 -0.586231459E-02
   C  0.137270928E+01 -0.458209218E-02 -0.279362851E-01
   H -0.759505290E+01 -0.632215400E+00 -0.833413611E+00
   H  0.752186894E+01  0.615167544E+00  0.865194571E+00
     4
 # iter = 29000  time[fs]=29.00000
   C -0.144423704E+01 -0.393985406E-01 -0.320957877E-02
   C  0.143557696E+01 -0.515059757E-02 -0.292731470E-01
   H -0.794140980E+01 -0.659981317E+00 -0.869304867E+00
   H  0.785200243E+01  0.644118807E+00  0.906561293E+00
     4
 # iter = 29500  time[fs]=29.50000
   C -0.151162121E+01 -0.393686803E-01 -0.534303304E-03
   C  0.150028954E+01 -0.570125684E-02 -0.306338830E-01
   H -0.828907947E+01 -0.687860927E+00 -0.905351369E+00
   H  0.818347061E+01  0.673191717E+00  0.948099272E+00
     4
 # iter = 30000  time[fs]=30.00000
   C -0.158069353E+01 -0.393544828E-01  0.216323880E-02
   C  0.156668837E+01 -0.623690169E-02 -0.320181732E-01
   H -0.863795489E+01 -0.715845044E+00 -0.941540544E+00
   H  0.851616741E+01  0.702376913E+00  0.989795375E+00
     4
 # iter = 30500  time[fs]=30.50000
   C -0.165131156E+01 -0.393535603E-01  0.488258450E-02
   C  0.163463095E+01 -0.675990283E-02 -0.334255066E-01
   H -0.898794147E+01 -0.743925555E+00 -0.977861298E+00
   H  0.884999881E+01  0.731666079E+00  0.103163793E+01
     4
 # iter = 31000  time[fs]=31.00000
   C -0.172334742E+01 -0.393639066E-01  0.762313889E-02
   C  0.170398939E+01 -0.727224778E-02 -0.348552406E-01
   H -0.933895521E+01 -0.772095257E+00 -0.101430379E+01
   H  0.918488105E+01  0.761051790E+00  0.107361653E+01
     4
 # iter = 31500  time[fs]=31.50000
   C -0.179668623E+01 -0.393838333E-01  0.103842199E-01
   C  0.177464880E+01 -0.777560572E-02 -0.363066459E-01
   H -0.969092122E+01 -0.800347731E+00 -0.105085925E+01
   H  0.952073921E+01  0.790527390E+00  0.111572183E+01
     4
 # iter = 32000  time[fs]=32.00000
   C -0.187122473E+01 -0.394119158E-01  0.131650921E-01
   C  0.184650595E+01 -0.827138128E-02 -0.377789410E-01
   H -0.100437724E+02 -0.828677224E+00 -0.108751982E+01
   H  0.985750604E+01  0.820086892E+00  0.115794543E+01
     4
 # iter = 32500  time[fs]=32.50000
   C -0.194686998E+01 -0.394469497E-01  0.159649920E-01
   C  0.191946793E+01 -0.876075906E-02 -0.392713180E-01
   H -0.103974485E+02 -0.857078569E+00 -0.112427845E+01
   H  0.101951209E+02  0.849724889E+00  0.120027974E+01
     4
 # iter = 33000  time[fs]=33.00000
   C -0.202353824E+01 -0.394879140E-01  0.187831467E-01
   C  0.199345101E+01 -0.924474036E-02 -0.407829611E-01
   H -0.107518951E+02 -0.885547099E+00 -0.116112878E+01
   H  0.105335290E+02  0.879436479E+00  0.124271788E+01
     4
 # iter = 33500  time[fs]=33.50000
   C -0.210115391E+01 -0.395339414E-01  0.216187874E-01
   C  0.206837965E+01 -0.972417346E-02 -0.423130606E-01
   H -0.111070629E+02 -0.914078593E+00 -0.119806503E+01
   H  0.108726807E+02  0.909217210E+00  0.128525359E+01
     4
 # iter = 34000  time[fs]=34.00000
   C -0.217964866E+01 -0.395842927E-01  0.244711593E-01
   C  0.214418555E+01 -0.101997787E-01 -0.438608225E-01
   H -0.114629074E+02 -0.942669212E+00 -0.123508199E+01
   H  0.112125307E+02  0.939063021E+00  0.132788118E+01
     4
 # iter = 34500  time[fs]=34.50000
   C -0.225896059E+01 -0.396383369E-01  0.273395283E-01
   C  0.222080687E+01 -0.106721691E-01 -0.454254752E-01
   H -0.118193877E+02 -0.971315462E+00 -0.127217488E+01
   H  0.115530378E+02  0.968970198E+00  0.137059543E+01
     4
 # iter = 35000  time[fs]=35.00000
   C -0.233903354E+01 -0.396955336E-01  0.302231853E-01
   C  0.229818751E+01 -0.111418676E-01 -0.470062742E-01
   H -0.121764667E+02 -0.100001415E+01 -0.130933935E+01
   H  0.118941642E+02  0.998935340E+00  0.141339155E+01
     4
 # iter = 35500  time[fs]=35.50000
   C -0.241981649E+01 -0.397554192E-01  0.331214493E-01
   C  0.237627645E+01 -0.116093210E-01 -0.486025044E-01
   H -0.125341104E+02 -0.102876235E+01 -0.134657141E+01
   H  0.122358753E+02  0.102895532E+01  0.145626516E+01
     4
 # iter = 36000  time[fs]=36.00000
   C -0.250126294E+01 -0.398175949E-01  0.360336686E-01
   C  0.245502728E+01 -0.120749121E-01 -0.502134822E-01
   H -0.128922876E+02 -0.105755737E+01 -0.138386740E+01
   H  0.125781394E+02  0.105902726E+01  0.149921220E+01
     4
 # iter = 36500  time[fs]=36.50000
   C -0.258333048E+01 -0.398817168E-01  0.389592220E-01
   C  0.253439763E+01 -0.125389691E-01 -0.518385557E-01
   H -0.132509696E+02 -0.108639675E+01 -0.142122395E+01
   H  0.129209271E+02  0.108914849E+01  0.154222894E+01
     4
 # iter = 37000  time[fs]=37.00000
   C -0.266598035E+01 -0.399474883E-01  0.418975183E-01
   C  0.261434878E+01 -0.130017741E-01 -0.534771047E-01
   H -0.136101297E+02 -0.111527819E+01 -0.145863794E+01
   H  0.132642113E+02  0.111931656E+01  0.158531191E+01
     4
 # iter = 37500  time[fs]=37.50000
   C -0.274917705E+01 -0.400146522E-01  0.448479962E-01
   C  0.269484528E+01 -0.134635701E-01 -0.551285403E-01
   H -0.139697437E+02 -0.114419959E+01 -0.149610650E+01
   H  0.136079671E+02  0.114952920E+01  0.162845792E+01
     4
 # iter = 38000  time[fs]=38.00000
   C -0.283288802E+01 -0.400829859E-01  0.478101234E-01
   C  0.277585462E+01 -0.139245662E-01 -0.567923040E-01
   H -0.143297889E+02 -0.117315900E+01 -0.153362697E+01
   H  0.139521713E+02  0.117978427E+01  0.167166398E+01
     4
 # iter = 38500  time[fs]=38.50000
   C -0.291708333E+01 -0.401522958E-01  0.507833953E-01
   C  0.285734691E+01 -0.143849431E-01 -0.584678666E-01
   H -0.146902442E+02 -0.120215460E+01 -0.157119687E+01
   H  0.142968023E+02  0.121007982E+01  0.171492731E+01
     4
 # iter = 39000  time[fs]=39.00000
   C -0.300173545E+01 -0.402224137E-01  0.537673345E-01
   C  0.293929465E+01 -0.148448568E-01 -0.601547268E-01
   H -0.150510901E+02 -0.123118469E+01 -0.160881389E+01
   H  0.146418401E+02  0.124041401E+01  0.175824535E+01
     4
 # iter = 39500  time[fs]=39.50000
   C -0.308681895E+01 -0.402931931E-01  0.567614889E-01
   C  0.302167248E+01 -0.153044419E-01 -0.618524100E-01
   H -0.154123085E+02 -0.126024772E+01 -0.164647591E+01
   H  0.149872661E+02  0.127078513E+01  0.180161566E+01
     4
 # iter = 40000  time[fs]=40.00000
   C -0.317231039E+01 -0.403645061E-01  0.597654306E-01
   C  0.310445698E+01 -0.157638152E-01 -0.635604671E-01
   H -0.157738824E+02 -0.128934221E+01 -0.168418092E+01
   H  0.153330627E+02  0.130119156E+01  0.184503601E+01
     4
 # iter = 40500  time[fs]=40.50000
   C -0.325818807E+01 -0.404362411E-01  0.627787550E-01
   C  0.318762649E+01 -0.162230774E-01 -0.652784732E-01
   H -0.161357960E+02 -0.131846680E+01 -0.172192705E+01
   H  0.156792138E+02  0.133163183E+01  0.188850426E+01
     4
 # iter = 41000  time[fs]=41.00000
   C -0.334443187E+01 -0.405083007E-01  0.658010791E-01
   C  0.327116093E+01 -0.166823159E-01 -0.670060257E-01
   H -0.164980346E+02 -0.134762019E+01 -0.175971255E+01
   H  0.160257041E+02  0.136210451E+01  0.193201846E+01
     4
 # iter = 41500  time[fs]=41.50000
   C -0.343102313E+01 -0.405805995E-01  0.688320402E-01
   C  0.335504169E+01 -0.171416062E-01 -0.687427438E-01
   H -0.168605842E+02 -0.137680119E+01 -0.179753578E+01
   H  0.163725192E+02  0.139260829E+01  0.197557673E+01
     4
 # iter = 42000  time[fs]=42.00000
   C -0.351794451E+01 -0.406530630E-01  0.718712953E-01
   C  0.343925145E+01 -0.176010135E-01 -0.704882668E-01
   H -0.172234320E+02 -0.140600867E+01 -0.183539521E+01
   H  0.167196459E+02  0.142314193E+01  0.201917732E+01
     4
 # iter = 42500  time[fs]=42.50000
   C -0.360517989E+01 -0.407256259E-01  0.749185194E-01
   C  0.352377411E+01 -0.180605942E-01 -0.722422529E-01
   H -0.175865657E+02 -0.143524156E+01 -0.187328938E+01
   H  0.170670715E+02  0.145370426E+01  0.206281859E+01
     4
 # iter = 43000  time[fs]=43.00000
   C -0.369271421E+01 -0.407982308E-01  0.779734044E-01
   C  0.360859468E+01 -0.185203971E-01 -0.740043782E-01
   H -0.179499738E+02 -0.146449888E+01 -0.191121694E+01
   H  0.174147842E+02  0.148429418E+01  0.210649898E+01
     4
 # iter = 43500  time[fs]=43.50000
   C -0.378053346E+01 -0.408708279E-01  0.810356587E-01
   C  0.369369914E+01 -0.189804638E-01 -0.757743356E-01
   H -0.183136455E+02 -0.149377967E+01 -0.194917660E+01
   H  0.177627727E+02  0.151491065E+01  0.215021703E+01
     4
 # iter = 44000  time[fs]=44.00000
   C -0.386862452E+01 -0.409433732E-01  0.841050053E-01
   C  0.377907443E+01 -0.194408306E-01 -0.775518339E-01
   H -0.186775707E+02 -0.152308305E+01 -0.198716716E+01
   H  0.181110266E+02  0.154555269E+01  0.219397136E+01
     4
 # iter = 44500  time[fs]=44.50000
   C -0.395697512E+01 -0.410158283E-01  0.871811819E-01
   C  0.386470830E+01 -0.199015283E-01 -0.793365966E-01
   H -0.190417398E+02 -0.155240819E+01 -0.202518747E+01
   H  0.184595360E+02  0.157621938E+01  0.223776066E+01
     4
 # iter = 45000  time[fs]=45.00000
   C -0.404557378E+01 -0.410881598E-01  0.902639390E-01
   C  0.395058930E+01 -0.203625832E-01 -0.811283613E-01
   H -0.194061437E+02 -0.158175429E+01 -0.206323645E+01
   H  0.188082913E+02  0.160690983E+01  0.228158368E+01
     4
 # iter = 45500  time[fs]=45.50000
   C -0.413440973E+01 -0.411603384E-01  0.933530402E-01
   C  0.403670667E+01 -0.208240178E-01 -0.829268784E-01
   H -0.197707739E+02 -0.161112061E+01 -0.210131308E+01
   H  0.191572838E+02  0.163762321E+01  0.232543925E+01
     4
 # iter = 46000  time[fs]=46.00000
   C -0.422347284E+01 -0.412323385E-01  0.964482603E-01
   C  0.412305033E+01 -0.212858509E-01 -0.847319110E-01
   H -0.201356222E+02 -0.164050642E+01 -0.213941639E+01
   H  0.195065050E+02  0.166835874E+01  0.236932626E+01
     4
 # iter = 46500  time[fs]=46.50000
   C -0.431275363E+01 -0.413041379E-01  0.995493855E-01
   C  0.420961080E+01 -0.217480986E-01 -0.865432335E-01
   H -0.205006809E+02 -0.166991107E+01 -0.217754546E+01
   H  0.198559469E+02  0.169911566E+01  0.241324365E+01
     4
 # iter = 47000  time[fs]=47.00000
   C -0.440224313E+01 -0.413757173E-01  0.102656212E+00
   C  0.429637916E+01 -0.222107741E-01 -0.883606313E-01
   H -0.208659427E+02 -0.169933390E+01 -0.221569942E+01
   H  0.202056019E+02  0.172989326E+01  0.245719041E+01
     4
 # iter = 47500  time[fs]=47.50000
   C -0.449193293E+01 -0.414470600E-01  0.105768547E+00
   C  0.438334700E+01 -0.226738882E-01 -0.901839000E-01
   H -0.212314008E+02 -0.172877432E+01 -0.225387744E+01
   H  0.205554629E+02  0.176069088E+01  0.250116559E+01
     4
 # iter = 48000  time[fs]=48.00000
   C -0.458181508E+01 -0.415181515E-01  0.108886206E+00
   C  0.447050641E+01 -0.231374499E-01 -0.920128450E-01
   H -0.215970486E+02 -0.175823175E+01 -0.229207874E+01
   H  0.209055231E+02  0.179150785E+01  0.254516828E+01
     4
 # iter = 48500  time[fs]=48.50000
   C -0.467188209E+01 -0.415889795E-01  0.112009012E+00
   C  0.455784990E+01 -0.236014662E-01 -0.938472806E-01
   H -0.219628797E+02 -0.178770563E+01 -0.233030256E+01
   H  0.212557758E+02  0.182234358E+01  0.258919760E+01
     4
 # iter = 49000  time[fs]=49.00000
   C -0.476212687E+01 -0.416595333E-01  0.115136798E+00
   C  0.464537043E+01 -0.240659425E-01 -0.956870298E-01
   H -0.223288883E+02 -0.181719545E+01 -0.236854819E+01
   H  0.216062150E+02  0.185319747E+01  0.263325275E+01
     4
 # iter = 49500  time[fs]=49.50000
   C -0.485254273E+01 -0.417298039E-01  0.118269404E+00
   C  0.473306130E+01 -0.245308829E-01 -0.975319235E-01
   H -0.226950687E+02 -0.184670071E+01 -0.240681496E+01
   H  0.219568346E+02  0.188406897E+01  0.267733291E+01
     4
 # iter = 50000  time[fs]=50.00000
   C -0.494312333E+01 -0.417997839E-01  0.121406678E+00
   C  0.482091620E+01 -0.249962901E-01 -0.993818004E-01
   H -0.230614155E+02 -0.187622092E+01 -0.244510221E+01
   H  0.223076292E+02  0.191495755E+01  0.272143735E+01
     4
 # iter = 50500  time[fs]=50.50000
   C -0.503386266E+01 -0.418694667E-01  0.124548474E+00
   C  0.490892915E+01 -0.254621661E-01 -0.101236506E+00
   H -0.234279236E+02 -0.190575565E+01 -0.248340932E+01
   H  0.226585933E+02  0.194586269E+01  0.276556534E+01
     4
 # iter = 51000  time[fs]=51.00000
   C -0.512475504E+01 -0.419388474E-01  0.127694651E+00
   C  0.499709448E+01 -0.259285114E-01 -0.103095894E+00
   H -0.237945880E+02 -0.193530444E+01 -0.252173570E+01
   H  0.230097218E+02  0.197678391E+01  0.280971619E+01
     4
 # iter = 51500  time[fs]=51.50000
   C -0.521579507E+01 -0.420079215E-01  0.130845078E+00
   C  0.508540679E+01 -0.263953261E-01 -0.104959822E+00
   H -0.241614040E+02 -0.196486690E+01 -0.256008079E+01
   H  0.233610098E+02  0.200772075E+01  0.285388925E+01
     4
 # iter = 52000  time[fs]=52.00000
   C -0.530697761E+01 -0.420766859E-01  0.133999626E+00
   C  0.517386098E+01 -0.268626094E-01 -0.106828156E+00
   H -0.245283671E+02 -0.199444262E+01 -0.259844405E+01
   H  0.237124526E+02  0.203867275E+01  0.289808388E+01
     4
 # iter = 52500  time[fs]=52.50000
   C -0.539829779E+01 -0.421451380E-01  0.137158174E+00
   C  0.526245219E+01 -0.273303600E-01 -0.108700766E+00
   H -0.248954731E+02 -0.202403123E+01 -0.263682495E+01
   H  0.240640458E+02  0.206963950E+01  0.294229949E+01
     4
 # iter = 53000  time[fs]=53.00000
   C -0.548975098E+01 -0.422132759E-01  0.140320604E+00
   C  0.535117579E+01 -0.277985757E-01 -0.110577529E+00
   H -0.252627179E+02 -0.205363236E+01 -0.267522300E+01
   H  0.244157850E+02  0.210062059E+01  0.298653548E+01
     4
 # iter = 53500  time[fs]=53.50000
   C -0.558133276E+01 -0.422810985E-01  0.143486805E+00
   C  0.544002740E+01 -0.282672543E-01 -0.112458326E+00
   H -0.256300975E+02 -0.208324566E+01 -0.271363773E+01
   H  0.247676661E+02  0.213161561E+01  0.303079132E+01
     4
 # iter = 54000  time[fs]=54.00000
   C -0.567303894E+01 -0.423486051E-01  0.146656669E+00
   C  0.552900282E+01 -0.287363927E-01 -0.114343043E+00
   H -0.259976081E+02 -0.211287080E+01 -0.275206868E+01
   H  0.251196852E+02  0.216262421E+01  0.307506645E+01
     4
 # iter = 54500  time[fs]=54.50000
   C -0.576486550E+01 -0.424157954E-01  0.149830093E+00
   C  0.561809806E+01 -0.292059878E-01 -0.116231571E+00
   H -0.263652461E+02 -0.214250746E+01 -0.279051541E+01
   H  0.254718386E+02  0.219364601E+01  0.311936038E+01
     4
 # iter = 55000  time[fs]=55.00000
   C -0.585680864E+01 -0.424826699E-01  0.153006979E+00
   C  0.570730932E+01 -0.296760360E-01 -0.118123805E+00
   H -0.267330082E+02 -0.217215533E+01 -0.282897751E+01
   H  0.258241225E+02  0.222468066E+01  0.316367261E+01
     4
 # iter = 55500  time[fs]=55.50000
   C -0.594886469E+01 -0.425492290E-01  0.156187231E+00
   C  0.579663296E+01 -0.301465335E-01 -0.120019645E+00
   H -0.271008908E+02 -0.220181412E+01 -0.286745456E+01
   H  0.261765335E+02  0.225572784E+01  0.320800267E+01
     4
 # iter = 56000  time[fs]=56.00000
   C -0.604103018E+01 -0.426154739E-01  0.159370758E+00
   C  0.588606552E+01 -0.306174762E-01 -0.121918994E+00
   H -0.274688909E+02 -0.223148355E+01 -0.290594618E+01
   H  0.265290683E+02  0.228678723E+01  0.325235011E+01
     4
 # iter = 56500  time[fs]=56.50000
   C -0.613330178E+01 -0.426814057E-01  0.162557474E+00
   C  0.597560367E+01 -0.310888598E-01 -0.123821759E+00
   H -0.278370054E+02 -0.226116333E+01 -0.294445201E+01
   H  0.268817236E+02  0.231785851E+01  0.329671448E+01
     4
 # iter = 57000  time[fs]=57.00000
   C -0.622567631E+01 -0.427470262E-01  0.165747292E+00
   C  0.606524424E+01 -0.315606799E-01 -0.125727850E+00
   H -0.282052312E+02 -0.229085321E+01 -0.298297167E+01
   H  0.272344964E+02  0.234894139E+01  0.334109536E+01
     4
 # iter = 57500  time[fs]=57.50000
   C -0.631815073E+01 -0.428123369E-01  0.168940134E+00
   C  0.615498421E+01 -0.320329320E-01 -0.127637182E+00
   H -0.285735657E+02 -0.232055294E+01 -0.302150483E+01
   H  0.275873837E+02  0.238003558E+01  0.338549236E+01
     4
 # iter = 58000  time[fs]=58.00000
   C -0.641072211E+01 -0.428773400E-01  0.172135919E+00
   C  0.624482066E+01 -0.325056114E-01 -0.129549671E+00
   H -0.289420059E+02 -0.235026227E+01 -0.306005115E+01
   H  0.279403826E+02  0.241114081E+01  0.342990507E+01
     4
 # iter = 58500  time[fs]=58.50000
   C -0.650338768E+01 -0.429420375E-01  0.175334575E+00
   C  0.633475083E+01 -0.329787132E-01 -0.131465238E+00
   H -0.293105494E+02 -0.237998097E+01 -0.309861032E+01
   H  0.282934903E+02  0.244225682E+01  0.347433313E+01
     4
 # iter = 59000  time[fs]=59.00000
   C -0.659614474E+01 -0.430064319E-01  0.178536027E+00
   C  0.642477203E+01 -0.334522326E-01 -0.133383807E+00
   H -0.296791936E+02 -0.240970880E+01 -0.313718201E+01
   H  0.286467042E+02  0.247338333E+01  0.351877617E+01
     4
 # iter = 59500  time[fs]=59.50000
   C -0.668899073E+01 -0.430705255E-01  0.181740207E+00
   C  0.651488171E+01 -0.339261648E-01 -0.135305302E+00
   H -0.300479360E+02 -0.243944557E+01 -0.317576595E+01
   H  0.290000218E+02  0.250452012E+01  0.356323383E+01
     4
 # iter = 60000  time[fs]=60.00000
   C -0.678192320E+01 -0.431343210E-01  0.184947048E+00
   C  0.660507743E+01 -0.344005048E-01 -0.137229653E+00
   H -0.304167742E+02 -0.246919105E+01 -0.321436183E+01
   H  0.293534405E+02  0.253566693E+01  0.360770579E+01
     4
 # iter = 60500  time[fs]=60.50000
   C -0.687493978E+01 -0.431978211E-01  0.188156484E+00
   C  0.669535682E+01 -0.348752476E-01 -0.139156790E+00
   H -0.307857061E+02 -0.249894503E+01 -0.325296938E+01
   H  0.297069580E+02  0.256682355E+01  0.365219171E+01
     4
 # iter = 61000  time[fs]=61.00000
   C -0.696803819E+01 -0.432610284E-01  0.191368453E+00
   C  0.678571763E+01 -0.353503883E-01 -0.141086648E+00
   H -0.311547293E+02 -0.252870734E+01 -0.329158833E+01
   H  0.300605719E+02  0.259798974E+01  0.369669128E+01
     4
 # iter = 61500  time[fs]=61.50000
   C -0.706121625E+01 -0.433239459E-01  0.194582895E+00
   C  0.687615767E+01 -0.358259218E-01 -0.143019162E+00
   H -0.315238419E+02 -0.255847777E+01 -0.333021843E+01
   H  0.304142801E+02  0.262916530E+01  0.374120419E+01
     4
 # iter = 62000  time[fs]=62.00000
   C -0.715447188E+01 -0.433865763E-01  0.197799752E+00
   C  0.696667487E+01 -0.363018431E-01 -0.144954270E+00
   H -0.318930416E+02 -0.258825615E+01 -0.336885943E+01
   H  0.307680804E+02  0.266035001E+01  0.378573015E+01
     4
 # iter = 62500  time[fs]=62.50000
   C -0.724780304E+01 -0.434489228E-01  0.201018968E+00
   C  0.705726721E+01 -0.367781473E-01 -0.146891912E+00
   H -0.322623267E+02 -0.261804229E+01 -0.340751108E+01
   H  0.311219708E+02  0.269154367E+01  0.383026887E+01
     4
 # iter = 63000  time[fs]=63.00000
   C -0.734120780E+01 -0.435109882E-01  0.204240488E+00
   C  0.714793276E+01 -0.372548295E-01 -0.148832031E+00
   H -0.326316951E+02 -0.264783603E+01 -0.344617314E+01
   H  0.314759492E+02  0.272274609E+01  0.387482008E+01
     4
 # iter = 63500  time[fs]=63.50000
   C -0.743468429E+01 -0.435727755E-01  0.207464259E+00
   C  0.723866965E+01 -0.377318847E-01 -0.150774571E+00
   H -0.330011450E+02 -0.267763720E+01 -0.348484541E+01
   H  0.318300136E+02  0.275395708E+01  0.391938350E+01
     4
 # iter = 64000  time[fs]=64.00000
   C -0.752823070E+01 -0.436342879E-01  0.210690232E+00
   C  0.732947610E+01 -0.382093079E-01 -0.152719477E+00
   H -0.333706746E+02 -0.270744564E+01 -0.352352764E+01
   H  0.321841623E+02  0.278517646E+01  0.396395889E+01
     4
 # iter = 64500  time[fs]=64.50000
   C -0.762184531E+01 -0.436955282E-01  0.213918357E+00
   C  0.742035038E+01 -0.386870945E-01 -0.154666697E+00
   H -0.337402823E+02 -0.273726119E+01 -0.356221964E+01
   H  0.325383934E+02  0.281640405E+01  0.400854599E+01
     4
 # iter = 65000  time[fs]=65.00000
   C -0.771552643E+01 -0.437564997E-01  0.217148586E+00
   C  0.751129081E+01 -0.391652395E-01 -0.156616180E+00
   H -0.341099662E+02 -0.276708372E+01 -0.360092120E+01
   H  0.328927051E+02  0.284763969E+01  0.405314455E+01
     4
 # iter = 65500  time[fs]=65.50000
   C -0.780927247E+01 -0.438172054E-01  0.220380873E+00
   C  0.760229580E+01 -0.396437381E-01 -0.158567879E+00
   H -0.344797249E+02 -0.279691306E+01 -0.363963211E+01
   H  0.332470957E+02  0.287888320E+01  0.409775435E+01
     4
 # iter = 66000  time[fs]=66.00000
   C -0.790308185E+01 -0.438776483E-01  0.223615175E+00
   C  0.769336380E+01 -0.401225858E-01 -0.160521744E+00
   H -0.348495567E+02 -0.282674909E+01 -0.367835220E+01
   H  0.336015636E+02  0.291013442E+01  0.414237515E+01
     4
 # iter = 66500  time[fs]=66.50000
   C -0.799695309E+01 -0.439378315E-01  0.226851447E+00
   C  0.778449330E+01 -0.406017777E-01 -0.162477730E+00
   H -0.352194601E+02 -0.285659166E+01 -0.371708126E+01
   H  0.339561073E+02  0.294139321E+01  0.418700673E+01
     4
 # iter = 67000  time[fs]=67.00000
   C -0.809088472E+01 -0.439977581E-01  0.230089649E+00
   C  0.787568287E+01 -0.410813093E-01 -0.164435793E+00
   H -0.355894337E+02 -0.288644064E+01 -0.375581912E+01
   H  0.343107250E+02  0.297265940E+01  0.423164888E+01
     4
 # iter = 67500  time[fs]=67.50000
   C -0.818487535E+01 -0.440574310E-01  0.233329739E+00
   C  0.796693111E+01 -0.415611760E-01 -0.166395890E+00
   H -0.359594759E+02 -0.291629591E+01 -0.379456560E+01
   H  0.346654154E+02  0.300393285E+01  0.427630138E+01
     4
 # iter = 68000  time[fs]=68.00000
   C -0.827892363E+01 -0.441168533E-01  0.236571679E+00
   C  0.805823668E+01 -0.420413733E-01 -0.168357978E+00
   H -0.363295855E+02 -0.294615733E+01 -0.383332054E+01
   H  0.350201769E+02  0.303521342E+01  0.432096405E+01
     4
 # iter = 68500  time[fs]=68.50000
   C -0.837302824E+01 -0.441760281E-01  0.239815431E+00
   C  0.814959826E+01 -0.425218968E-01 -0.170322017E+00
   H -0.366997611E+02 -0.297602480E+01 -0.387208377E+01
   H  0.353750083E+02  0.306650098E+01  0.436563667E+01
     4
 # iter = 69000  time[fs]=69.00000
   C -0.846718792E+01 -0.442349582E-01  0.243060957E+00
   C  0.824101461E+01 -0.430027420E-01 -0.172287967E+00
   H -0.370700014E+02 -0.300589818E+01 -0.391085512E+01
   H  0.357299080E+02  0.309779538E+01  0.441031907E+01
     4
 # iter = 69500  time[fs]=69.50000
   C -0.856140145E+01 -0.442936466E-01  0.246308222E+00
   C  0.833248450E+01 -0.434839047E-01 -0.174255791E+00
   H -0.374403050E+02 -0.303577737E+01 -0.394963444E+01
   H  0.360848747E+02  0.312909649E+01  0.445501105E+01
     4
 # iter = 70000  time[fs]=70.00000
   C -0.865566764E+01 -0.443520964E-01  0.249557191E+00
   C  0.842400676E+01 -0.439653807E-01 -0.176225451E+00
   H -0.378106709E+02 -0.306566226E+01 -0.398842158E+01
   H  0.364399073E+02  0.316040420E+01  0.449971243E+01
     4
 # iter = 70500  time[fs]=70.50000
   C -0.874998535E+01 -0.444103103E-01  0.252807830E+00
   C  0.851558024E+01 -0.444471656E-01 -0.178196911E+00
   H -0.381810977E+02 -0.309555273E+01 -0.402721639E+01
   H  0.367950043E+02  0.319171837E+01  0.454442304E+01
     4
 # iter = 71000  time[fs]=71.00000
   C -0.884435346E+01 -0.444682913E-01  0.256060108E+00
   C  0.860720384E+01 -0.449292553E-01 -0.180170136E+00
   H -0.385515844E+02 -0.312544869E+01 -0.406601874E+01
   H  0.371501646E+02  0.322303890E+01  0.458914272E+01
     4
 # iter = 71500  time[fs]=71.50000
   C -0.893877091E+01 -0.445260421E-01  0.259313991E+00
   C  0.869887649E+01 -0.454116459E-01 -0.182145093E+00
   H -0.389221298E+02 -0.315535004E+01 -0.410482847E+01
   H  0.375053870E+02  0.325436565E+01  0.463387128E+01
     4
 # iter = 72000  time[fs]=72.00000
   C -0.903323665E+01 -0.445835657E-01  0.262569449E+00
   C  0.879059715E+01 -0.458943332E-01 -0.184121748E+00
   H -0.392927328E+02 -0.318525666E+01 -0.414364545E+01
   H  0.378606704E+02  0.328569852E+01  0.467860858E+01
     4
 # iter = 72500  time[fs]=72.50000
   C -0.912774967E+01 -0.446408648E-01  0.265826452E+00
   C  0.888236482E+01 -0.463773133E-01 -0.186100069E+00
   H -0.396633923E+02 -0.321516847E+01 -0.418246956E+01
   H  0.382160135E+02  0.331703739E+01  0.472335445E+01
     4
 # iter = 73000  time[fs]=73.00000
   C -0.922230899E+01 -0.446979421E-01  0.269084971E+00
   C  0.897417852E+01 -0.468605823E-01 -0.188080025E+00
   H -0.400341073E+02 -0.324508538E+01 -0.422130067E+01
   H  0.385714154E+02  0.334838217E+01  0.476810875E+01
     4
 # iter = 73500  time[fs]=73.50000
   C -0.931691367E+01 -0.447548005E-01  0.272344978E+00
   C  0.906603731E+01 -0.473441363E-01 -0.190061585E+00
   H -0.404048769E+02 -0.327500729E+01 -0.426013864E+01
   H  0.389268750E+02  0.337973274E+01  0.481287132E+01
     4
 # iter = 74000  time[fs]=74.00000
   C -0.941156278E+01 -0.448114424E-01  0.275606444E+00
   C  0.915794028E+01 -0.478279717E-01 -0.192044721E+00
   H -0.407756999E+02 -0.330493412E+01 -0.429898336E+01
   H  0.392823912E+02  0.341108900E+01  0.485764202E+01
     4
 # iter = 74500  time[fs]=74.50000
   C -0.950625542E+01 -0.448678707E-01  0.278869344E+00
   C  0.924988653E+01 -0.483120847E-01 -0.194029402E+00
   H -0.411465755E+02 -0.333486577E+01 -0.433783471E+01
   H  0.396379630E+02  0.344245087E+01  0.490242071E+01
     4
 # iter = 75000  time[fs]=75.00000
   C -0.960099074E+01 -0.449240879E-01  0.282133650E+00
   C  0.934187520E+01 -0.487964716E-01 -0.196015602E+00
   H -0.415175027E+02 -0.336480217E+01 -0.437669258E+01
   H  0.399935895E+02  0.347381822E+01  0.494720725E+01
     4
 # iter = 75500  time[fs]=75.50000
   C -0.969576789E+01 -0.449800967E-01  0.285399338E+00
   C  0.943390545E+01 -0.492811288E-01 -0.198003294E+00
   H -0.418884807E+02 -0.339474323E+01 -0.441555685E+01
   H  0.403492696E+02  0.350519099E+01  0.499200151E+01
     4
 # iter = 76000  time[fs]=76.00000
   C -0.979058605E+01 -0.450358995E-01  0.288666383E+00
   C  0.952597647E+01 -0.497660529E-01 -0.199992449E+00
   H -0.422595085E+02 -0.342468887E+01 -0.445442741E+01
   H  0.407050025E+02  0.353656906E+01  0.503680336E+01
     4
 # iter = 76500  time[fs]=76.50000
   C -0.988544443E+01 -0.450914988E-01  0.291934760E+00
   C  0.961808747E+01 -0.502512403E-01 -0.201983044E+00
   H -0.426305853E+02 -0.345463902E+01 -0.449330416E+01
   H  0.410607873E+02  0.356795236E+01  0.508161267E+01
     4
 # iter = 77000  time[fs]=77.00000
   C -0.998034226E+01 -0.451468973E-01  0.295204447E+00
   C  0.971023769E+01 -0.507366876E-01 -0.203975052E+00
   H -0.430017102E+02 -0.348459359E+01 -0.453218700E+01
   H  0.414166230E+02  0.359934080E+01  0.512642931E+01
     4
 # iter = 77500  time[fs]=77.50000
   C -0.100752788E+02 -0.452020972E-01  0.298475420E+00
   C  0.980242636E+01 -0.512223915E-01 -0.205968449E+00
   H -0.433728825E+02 -0.351455252E+01 -0.457107582E+01
   H  0.417725089E+02  0.363073429E+01  0.517125317E+01
     4
 # iter = 78000  time[fs]=78.00000
   C -0.101702533E+02 -0.452571011E-01  0.301747657E+00
   C  0.989465278E+01 -0.517083486E-01 -0.207963212E+00
   H -0.437441012E+02 -0.354451574E+01 -0.460997052E+01
   H  0.421284440E+02  0.366213275E+01  0.521608413E+01
     4
 # iter = 78500  time[fs]=78.50000
   C -0.102652650E+02 -0.453119112E-01  0.305021137E+00
   C  0.998691623E+01 -0.521945556E-01 -0.209959317E+00
   H -0.441153658E+02 -0.357448317E+01 -0.464887100E+01
   H  0.424844275E+02  0.369353609E+01  0.526092207E+01
     4
 # iter = 79000  time[fs]=79.00000
   C -0.103603133E+02 -0.453665300E-01  0.308295838E+00
   C  0.100792160E+02 -0.526810095E-01 -0.211956741E+00
   H -0.444866753E+02 -0.360445474E+01 -0.468777718E+01
   H  0.428404588E+02  0.372494425E+01  0.530576688E+01
     4
 # iter = 79500  time[fs]=79.50000
   C -0.104553976E+02 -0.454209597E-01  0.311571739E+00
   C  0.101715515E+02 -0.531677070E-01 -0.213955462E+00
   H -0.448580292E+02 -0.363443038E+01 -0.472668897E+01
   H  0.431965369E+02  0.375635713E+01  0.535061845E+01
     4
 # iter = 80000  time[fs]=80.00000
   C -0.105505170E+02 -0.454752026E-01  0.314848821E+00
   C  0.102639220E+02 -0.536546451E-01 -0.215955460E+00
   H -0.452294265E+02 -0.366441004E+01 -0.476560626E+01
   H  0.435526611E+02  0.378777468E+01  0.539547668E+01
