     4
 # iter = 25000  time[fs]=25.00000
   C -0.944772012E+00 -0.192093184E-02 -0.332035766E-03
   C  0.103190865E+01  0.337457441E-01 -0.676925895E-02
   H -0.523228839E+01  0.258239653E+00  0.734880398E-01
   H  0.539920321E+01  0.387712403E+00  0.519397438E+00
     4
 # iter = 25500  time[fs]=25.50000
   C -0.987703000E+00 -0.357668792E-02 -0.455790955E-03
   C  0.107734879E+01  0.327726712E-01 -0.848108886E-02
   H -0.556529273E+01  0.272785796E+00  0.772243609E-01
   H  0.571833969E+01  0.408396886E+00  0.550369545E+00
     4
 # iter = 26000  time[fs]=26.00000
   C -0.103400099E+01 -0.530523241E-02 -0.573762719E-03
   C  0.112616471E+01  0.318472751E-01 -0.102227999E-01
   H -0.590100192E+01  0.287456502E+00  0.809873526E-01
   H  0.604007567E+01  0.429258146E+00  0.581604154E+00
     4
 # iter = 26500  time[fs]=26.50000
   C -0.108337949E+01 -0.709870229E-02 -0.684454020E-03
   C  0.117806763E+01  0.309644610E-01 -0.119932916E-01
   H -0.623911269E+01  0.302237482E+00  0.847736741E-01
   H  0.636413532E+01  0.450277253E+00  0.613073436E+00
     4
 # iter = 27000  time[fs]=27.00000
   C -0.113557104E+01 -0.895014962E-02 -0.786860395E-03
   C  0.123278836E+01  0.301196109E-01 -0.137913734E-01
   H -0.657936938E+01  0.317116812E+00  0.885805791E-01
   H  0.669028381E+01  0.471438170E+00  0.644753796E+00
     4
 # iter = 27500  time[fs]=27.50000
   C -0.119032890E+01 -0.108534556E-01 -0.880361905E-03
   C  0.129007883E+01  0.293085867E-01 -0.156157930E-01
   H -0.692155457E+01  0.332084434E+00  0.924057814E-01
   H  0.701831968E+01  0.492727189E+00  0.676625054E+00
     4
 # iter = 28000  time[fs]=28.00000
   C -0.124742736E+01 -0.128032427E-01 -0.964632430E-03
   C  0.134971230E+01  0.285277090E-01 -0.174652662E-01
   H -0.726548186E+01  0.347131775E+00  0.962473576E-01
   H  0.734806881E+01  0.514132505E+00  0.708669810E+00
     4
 # iter = 28500  time[fs]=28.50000
   C -0.130666126E+01 -0.147947898E-01 -0.103956570E-02
   C  0.141148281E+01  0.277737235E-01 -0.193385043E-01
   H -0.761099030E+01  0.362251475E+00  0.100103674E+00
   H  0.767937983E+01  0.535643875E+00  0.740872958E+00
     4
 # iter = 29000  time[fs]=29.00000
   C -0.136784496E+01 -0.168239521E-01 -0.110521630E-02
   C  0.147520411E+01  0.270437619E-01 -0.212342358E-01
   H -0.795794002E+01  0.377437159E+00  0.103973329E+00
   H  0.801212027E+01  0.557252356E+00  0.773221294E+00
     4
 # iter = 29500  time[fs]=29.50000
   C -0.143081095E+01 -0.188870881E-01 -0.116175356E-02
   C  0.154070821E+01  0.263353005E-01 -0.231512231E-01
   H -0.830620869E+01  0.392683268E+00  0.107855115E+00
   H  0.834617366E+01  0.578950094E+00  0.805703211E+00
     4
 # iter = 30000  time[fs]=30.00000
   C -0.149540840E+01 -0.209809947E-01 -0.120942605E-02
   C  0.160784387E+01  0.256461207E-01 -0.250882752E-01
   H -0.865568878E+01  0.407984927E+00  0.111747979E+00
   H  0.868143700E+01  0.600730152E+00  0.838308448E+00
     4
 # iter = 30500  time[fs]=30.50000
   C -0.156150157E+01 -0.231028498E-01 -0.124853460E-02
   C  0.167647510E+01  0.249742716E-01 -0.270442549E-01
   H -0.900628525E+01  0.423337834E+00  0.115651002E+00
   H  0.901781883E+01  0.622586373E+00  0.871027891E+00
     4
 # iter = 31000  time[fs]=31.00000
   C -0.162896840E+01 -0.252501612E-01 -0.127941215E-02
   C  0.174647957E+01  0.243180366E-01 -0.290180839E-01
   H -0.935791370E+01  0.438738174E+00  0.119563372E+00
   H  0.935523756E+01  0.644513270E+00  0.903853407E+00
     4
 # iter = 31500  time[fs]=31.50000
   C -0.169769905E+01 -0.274207236E-01 -0.130240884E-02
   C  0.181774726E+01  0.236759032E-01 -0.310087449E-01
   H -0.971049887E+01  0.454182545E+00  0.123484374E+00
   H  0.969362012E+01  0.666505926E+00  0.936777704E+00
     4
 # iter = 32000  time[fs]=32.00000
   C -0.176759460E+01 -0.296125805E-01 -0.131788112E-02
   C  0.189017912E+01  0.230465368E-01 -0.330152817E-01
   H -0.100639734E+02  0.469667905E+00  0.127413370E+00
   H  0.100329008E+02  0.688559924E+00  0.969794225E+00
     4
 # iter = 32500  time[fs]=32.50000
   C -0.183856591E+01 -0.318239916E-01 -0.132618402E-02
   C  0.196368590E+01  0.224287574E-01 -0.350367982E-01
   H -0.104182766E+02  0.485191516E+00  0.131349790E+00
   H  0.103730204E+02  0.710671278E+00  0.100289704E+01
     4
 # iter = 33000  time[fs]=33.00000
   C -0.191053252E+01 -0.340534050E-01 -0.132766573E-02
   C  0.203818706E+01  0.218215194E-01 -0.370724565E-01
   H -0.107733540E+02  0.500750911E+00  0.135293124E+00
   H  0.107139252E+02  0.732836378E+00  0.103608080E+01
     4
 # iter = 33500  time[fs]=33.50000
   C -0.198342172E+01 -0.362994329E-01 -0.132266383E-02
   C  0.211360981E+01  0.212238947E-01 -0.391214739E-01
   H -0.111291560E+02  0.516343854E+00  0.139242913E+00
   H  0.110555665E+02  0.755051946E+00  0.106934060E+01
     4
 # iter = 34000  time[fs]=34.00000
   C -0.205716768E+01 -0.385608313E-01 -0.131150299E-02
   C  0.218988829E+01  0.206350571E-01 -0.411831206E-01
   H -0.114856377E+02  0.531968315E+00  0.143198740E+00
   H  0.113979000E+02  0.777314996E+00  0.110267201E+01
     4
 # iter = 34500  time[fs]=34.50000
   C -0.213171071E+01 -0.408364818E-01 -0.129449347E-02
   C  0.226696277E+01  0.200542698E-01 -0.432567159E-01
   H -0.118427583E+02  0.547622443E+00  0.147160229E+00
   H  0.117408851E+02  0.799622799E+00  0.113607096E+01
     4
 # iter = 35000  time[fs]=35.00000
   C -0.220699658E+01 -0.431253762E-01 -0.127193037E-02
   C  0.234477899E+01  0.194808740E-01 -0.453416253E-01
   H -0.122004804E+02  0.563304549E+00  0.151127039E+00
   H  0.120844849E+02  0.821972855E+00  0.116953371E+01
     4
 # iter = 35500  time[fs]=35.50000
   C -0.228297594E+01 -0.454266040E-01 -0.124409340E-02
   C  0.242328762E+01  0.189142794E-01 -0.474372575E-01
   H -0.125587699E+02  0.579013082E+00  0.155098855E+00
   H  0.124286652E+02  0.844362869E+00  0.120305685E+01
     4
 # iter = 36000  time[fs]=36.00000
   C -0.235960383E+01 -0.477393401E-01 -0.121124700E-02
   C  0.250244366E+01  0.183539556E-01 -0.495430612E-01
   H -0.129175953E+02  0.594746621E+00  0.159075394E+00
   H  0.127733947E+02  0.866790728E+00  0.123663720E+01
     4
 # iter = 36500  time[fs]=36.50000
   C -0.243683916E+01 -0.500628355E-01 -0.117364064E-02
   C  0.258220603E+01  0.177994254E-01 -0.516585222E-01
   H -0.132769278E+02  0.610503853E+00  0.163056392E+00
   H  0.131186447E+02  0.889254482E+00  0.127027187E+01
     4
 # iter = 37000  time[fs]=37.00000
   C -0.251464435E+01 -0.523964084E-01 -0.113150937E-02
   C  0.266253715E+01  0.172502578E-01 -0.537831605E-01
   H -0.136367408E+02  0.626283570E+00  0.167041610E+00
   H  0.134643884E+02  0.911752329E+00  0.130395814E+01
     4
 # iter = 37500  time[fs]=37.50000
   C -0.259298495E+01 -0.547394370E-01 -0.108507444E-02
   C  0.274340260E+01  0.167060635E-01 -0.559165282E-01
   H -0.139970098E+02  0.642084654E+00  0.171030824E+00
   H  0.138106012E+02  0.934282599E+00  0.133769353E+01
     4
 # iter = 38000  time[fs]=38.00000
   C -0.267182934E+01 -0.570913528E-01 -0.103454393E-02
   C  0.282477074E+01  0.161664895E-01 -0.580582065E-01
   H -0.143577119E+02  0.657906067E+00  0.175023831E+00
   H  0.141572602E+02  0.956843743E+00  0.137147570E+01
     4
 # iter = 38500  time[fs]=38.50000
   C -0.275114842E+01 -0.594516349E-01 -0.980113523E-03
   C  0.290661251E+01  0.156312153E-01 -0.602078039E-01
   H -0.147188261E+02  0.673746846E+00  0.179020441E+00
   H  0.145043441E+02  0.979434318E+00  0.140530250E+01
     4
 # iter = 39000  time[fs]=39.00000
   C -0.283091541E+01 -0.618198051E-01 -0.921967171E-03
   C  0.298890113E+01  0.150999491E-01 -0.623649539E-01
   H -0.150803327E+02  0.689606097E+00  0.183020479E+00
   H  0.148518331E+02  0.100205298E+01  0.143917191E+01
     4
 # iter = 39500  time[fs]=39.50000
   C -0.291110558E+01 -0.641954237E-01 -0.860277821E-03
   C  0.307161190E+01  0.145724252E-01 -0.645293133E-01
   H -0.154422136E+02  0.705482985E+00  0.187023780E+00
   H  0.151997088E+02  0.102469848E+01  0.147308206E+01
     4
 # iter = 40000  time[fs]=40.00000
   C -0.299169608E+01 -0.665780853E-01 -0.795208090E-03
   C  0.315472197E+01  0.140484007E-01 -0.667005604E-01
   H -0.158044517E+02  0.721376730E+00  0.191030193E+00
   H  0.155479539E+02  0.104736965E+01  0.150703118E+01
     4
 # iter = 40500  time[fs]=40.50000
   C -0.307266575E+01 -0.689674156E-01 -0.726910936E-03
   C  0.323821022E+01  0.135276532E-01 -0.688783932E-01
   H -0.161670311E+02  0.737286605E+00  0.195039577E+00
   H  0.158965524E+02  0.107006539E+01  0.154101763E+01
     4
 # iter = 41000  time[fs]=41.00000
   C -0.315399500E+01 -0.713630685E-01 -0.655530275E-03
   C  0.332205705E+01  0.130099790E-01 -0.710625280E-01
   H -0.165299370E+02  0.753211927E+00  0.199051800E+00
   H  0.162454891E+02  0.109278467E+01  0.157503987E+01
     4
 # iter = 41500  time[fs]=41.50000
   C -0.323566560E+01 -0.737647232E-01 -0.581201581E-03
   C  0.340624428E+01  0.124951910E-01 -0.732526983E-01
   H -0.168931554E+02  0.769152058E+00  0.203066738E+00
   H  0.165947500E+02  0.111552653E+01  0.160909644E+01
     4
 # iter = 42000  time[fs]=42.00000
   C -0.331766063E+01 -0.761720820E-01 -0.504052447E-03
   C  0.349075499E+01  0.119831169E-01 -0.754486532E-01
   H -0.172566734E+02  0.785106397E+00  0.207084276E+00
   H  0.169443217E+02  0.113829006E+01  0.164318597E+01
     4
 # iter = 42500  time[fs]=42.50000
   C -0.339996432E+01 -0.785848683E-01 -0.424203107E-03
   C  0.357557345E+01  0.114735982E-01 -0.776501565E-01
   H -0.176204786E+02  0.801074379E+00  0.211104305E+00
   H  0.172941917E+02  0.116107442E+01  0.167730720E+01
     4
 # iter = 43000  time[fs]=43.00000
   C -0.348256200E+01 -0.810028244E-01 -0.341766928E-03
   C  0.366068498E+01  0.109664885E-01 -0.798569855E-01
   H -0.179845595E+02  0.817055474E+00  0.215126723E+00
   H  0.176443484E+02  0.118387880E+01  0.171145890E+01
     4
 # iter = 43500  time[fs]=43.50000
   C -0.356543992E+01 -0.834257103E-01 -0.256850869E-03
   C  0.374607588E+01  0.104616523E-01 -0.820689302E-01
   H -0.183489054E+02  0.833049180E+00  0.219151434E+00
   H  0.179947805E+02  0.120670243E+01  0.174563994E+01
     4
 # iter = 44000  time[fs]=44.00000
   C -0.364858528E+01 -0.858533016E-01 -0.169555908E-03
   C  0.383173334E+01  0.995896455E-02 -0.842857920E-01
   H -0.187135059E+02  0.849055025E+00  0.223178350E+00
   H  0.183454777E+02  0.122954461E+01  0.177984924E+01
     4
 # iter = 44500  time[fs]=44.50000
   C -0.373198607E+01 -0.882853887E-01 -0.799774392E-04
   C  0.391764539E+01  0.945830901E-02 -0.865073837E-01
   H -0.190783515E+02  0.865072563E+00  0.227207383E+00
   H  0.186964301E+02  0.125240467E+01  0.181408577E+01
     4
 # iter = 45000  time[fs]=45.00000
   C -0.381563104E+01 -0.907217753E-01  0.117943578E-04
   C  0.400380079E+01  0.895957792E-02 -0.887335277E-01
   H -0.194434330E+02  0.881101372E+00  0.231238456E+00
   H  0.190476284E+02  0.127528195E+01  0.184834857E+01
     4
 # iter = 45500  time[fs]=45.50000
   C -0.389950964E+01 -0.931622774E-01  0.105674176E-03
   C  0.409018901E+01  0.846267108E-02 -0.909640563E-01
   H -0.198087419E+02  0.897141051E+00  0.235271492E+00
   H  0.193990637E+02  0.129817586E+01  0.188263673E+01
     4
 # iter = 46000  time[fs]=46.00000
   C -0.398361196E+01 -0.956067224E-01  0.201581264E-03
   C  0.417680017E+01  0.796749523E-02 -0.931988104E-01
   H -0.201742699E+02  0.913191223E+00  0.239306418E+00
   H  0.197507277E+02  0.132108581E+01  0.191694937E+01
     4
 # iter = 46500  time[fs]=46.50000
   C -0.406792869E+01 -0.980549478E-01  0.299439127E-03
   C  0.426362495E+01  0.747396347E-02 -0.954376391E-01
   H -0.205400093E+02  0.929251528E+00  0.243343169E+00
   H  0.201026123E+02  0.134401127E+01  0.195128568E+01
     4
 # iter = 47000  time[fs]=47.00000
   C -0.415245105E+01 -0.100506801E+00  0.399175256E-03
   C  0.435065462E+01  0.698199470E-02 -0.976803993E-01
   H -0.209059529E+02  0.945321625E+00  0.247381679E+00
   H  0.204547102E+02  0.136695172E+01  0.198564486E+01
     4
 # iter = 47500  time[fs]=47.50000
   C -0.423717079E+01 -0.102962139E+00  0.500720874E-03
   C  0.443788093E+01  0.649151316E-02 -0.999269551E-01
   H -0.212720936E+02  0.961401190E+00  0.251421889E+00
   H  0.208070141E+02  0.138990666E+01  0.202002618E+01
     4
 # iter = 48000  time[fs]=48.00000
   C -0.432208012E+01 -0.105420824E+00  0.604010698E-03
   C  0.452529610E+01  0.600244803E-02 -0.102177177E+00
   H -0.216384249E+02  0.977489916E+00  0.255463739E+00
   H  0.211595173E+02  0.141287563E+01  0.205442893E+01
     4
 # iter = 48500  time[fs]=48.50000
   C -0.440717166E+01 -0.107882731E+00  0.708982722E-03
   C  0.461289278E+01  0.551473294E-02 -0.104430943E+00
   H -0.220049406E+02  0.993587508E+00  0.259507175E+00
   H  0.215122132E+02  0.143585817E+01  0.208885242E+01
     4
 # iter = 49000  time[fs]=49.00000
   C -0.449243849E+01 -0.110347737E+00  0.815578012E-03
   C  0.470066405E+01  0.502830574E-02 -0.106688135E+00
   H -0.223716345E+02  0.100969369E+01  0.263552146E+00
   H  0.218650957E+02  0.145885387E+01  0.212329602E+01
     4
 # iter = 49500  time[fs]=49.50000
   C -0.457787401E+01 -0.112815728E+00  0.923740519E-03
   C  0.478860335E+01  0.454310809E-02 -0.108948643E+00
   H -0.227385010E+02  0.102580819E+01  0.267598600E+00
   H  0.222181589E+02  0.148186232E+01  0.215775911E+01
     4
 # iter = 50000  time[fs]=50.00000
   C -0.466347201E+01 -0.115286597E+00  0.103341690E-02
   C  0.487670446E+01  0.405908518E-02 -0.111212359E+00
   H -0.231055348E+02  0.104193075E+01  0.271646492E+00
   H  0.225713972E+02  0.150488312E+01  0.219224111E+01
     4
 # iter = 50500  time[fs]=50.50000
   C -0.474922658E+01 -0.117760240E+00  0.114455637E-02
   C  0.496496150E+01  0.357618552E-02 -0.113479183E+00
   H -0.234727306E+02  0.105806114E+01  0.275695777E+00
   H  0.229248053E+02  0.152791592E+01  0.222674145E+01
     4
 # iter = 51000  time[fs]=51.00000
   C -0.483513214E+01 -0.120236560E+00  0.125711052E-02
   C  0.505336890E+01  0.309436060E-02 -0.115749018E+00
   H -0.238400834E+02  0.107419913E+01  0.279746410E+00
   H  0.232783781E+02  0.155096036E+01  0.226125959E+01
     4
 # iter = 51500  time[fs]=51.50000
   C -0.492118338E+01 -0.122715465E+00  0.137103321E-02
   C  0.514192136E+01  0.261356478E-02 -0.118021772E+00
   H -0.242075887E+02  0.109034448E+01  0.283798351E+00
   H  0.236321106E+02  0.157401609E+01  0.229579503E+01
     4
 # iter = 52000  time[fs]=52.00000
   C -0.500737525E+01 -0.125196867E+00  0.148628040E-02
   C  0.523061384E+01  0.213375498E-02 -0.120297356E+00
   H -0.245752418E+02  0.110649699E+01  0.287851562E+00
   H  0.239859983E+02  0.159708281E+01  0.233034727E+01
     4
 # iter = 52500  time[fs]=52.50000
   C -0.509370296E+01 -0.127680683E+00  0.160281007E-02
   C  0.531944159E+01  0.165489059E-02 -0.122575687E+00
   H -0.249430384E+02  0.112265646E+01  0.291906004E+00
   H  0.243400366E+02  0.162016019E+01  0.236491585E+01
     4
 # iter = 53000  time[fs]=53.00000
   C -0.518016197E+01 -0.130166834E+00  0.172058209E-02
   C  0.540840003E+01  0.117693324E-02 -0.124856683E+00
   H -0.253109745E+02  0.113882269E+01  0.295961641E+00
   H  0.246942213E+02  0.164324793E+01  0.239950031E+01
     4
 # iter = 53500  time[fs]=53.50000
   C -0.526674791E+01 -0.132655244E+00  0.183955808E-02
   C  0.549748486E+01  0.699846644E-03 -0.127140267E+00
   H -0.256790461E+02  0.115499549E+01  0.300018440E+00
   H  0.250485482E+02  0.166634577E+01  0.243410021E+01
     4
 # iter = 54000  time[fs]=54.00000
   C -0.535345667E+01 -0.135145840E+00  0.195970136E-02
   C  0.558669195E+01  0.223596497E-03 -0.129426365E+00
   H -0.260472493E+02  0.117117469E+01  0.304076368E+00
   H  0.254030135E+02  0.168945341E+01  0.246871515E+01
     4
 # iter = 54500  time[fs]=54.50000
   C -0.544028430E+01 -0.137638556E+00  0.208097683E-02
   C  0.567601736E+01 -0.251849689E-03 -0.131714907E+00
   H -0.264155807E+02  0.118736011E+01  0.308135393E+00
   H  0.257576133E+02  0.171257060E+01  0.250334473E+01
     4
 # iter = 55000  time[fs]=55.00000
   C -0.552722703E+01 -0.140133324E+00  0.220335090E-02
   C  0.576545735E+01 -0.726522694E-03 -0.134005824E+00
   H -0.267840365E+02  0.120355159E+01  0.312195484E+00
   H  0.261123441E+02  0.173569709E+01  0.253798856E+01
     4
 # iter = 55500  time[fs]=55.50000
   C -0.561428129E+01 -0.142630082E+00  0.232679137E-02
   C  0.585500834E+01 -0.120045171E-02 -0.136299051E+00
   H -0.271526137E+02  0.121974897E+01  0.316256614E+00
   H  0.264672023E+02  0.175883264E+01  0.257264627E+01
     4
 # iter = 56000  time[fs]=56.00000
   C -0.570144364E+01 -0.145128771E+00  0.245126742E-02
   C  0.594466692E+01 -0.167366442E-02 -0.138594525E+00
   H -0.275213088E+02  0.123595210E+01  0.320318754E+00
   H  0.268221847E+02  0.178197701E+01  0.260731752E+01
     4
 # iter = 56500  time[fs]=56.50000
   C -0.578871080E+01 -0.147629333E+00  0.257674947E-02
   C  0.603442981E+01 -0.214618713E-02 -0.140892186E+00
   H -0.278901188E+02  0.125216083E+01  0.324381877E+00
   H  0.271772879E+02  0.180512998E+01  0.264200196E+01
     4
 # iter = 57000  time[fs]=57.00000
   C -0.587607965E+01 -0.150131714E+00  0.270320916E-02
   C  0.612429390E+01 -0.261804484E-02 -0.143191977E+00
   H -0.282590409E+02  0.126837502E+01  0.328445958E+00
   H  0.275325090E+02  0.182829133E+01  0.267669925E+01
     4
 # iter = 57500  time[fs]=57.50000
   C -0.596354718E+01 -0.152635862E+00  0.283061927E-02
   C  0.621425619E+01 -0.308926129E-02 -0.145493841E+00
   H -0.286280720E+02  0.128459454E+01  0.332510972E+00
   H  0.278878450E+02  0.185146086E+01  0.271140910E+01
     4
 # iter = 58000  time[fs]=58.00000
   C -0.605111052E+01 -0.155141726E+00  0.295895366E-02
   C  0.630431382E+01 -0.355985911E-02 -0.147797726E+00
   H -0.289972095E+02  0.130081925E+01  0.336576896E+00
   H  0.282432929E+02  0.187463836E+01  0.274613118E+01
     4
 # iter = 58500  time[fs]=58.50000
   C -0.613876692E+01 -0.157649257E+00  0.308818722E-02
   C  0.639446405E+01 -0.402985982E-02 -0.150103579E+00
   H -0.293664507E+02  0.131704904E+01  0.340643706E+00
   H  0.285988501E+02  0.189782365E+01  0.278086522E+01
     4
 # iter = 59000  time[fs]=59.00000
   C -0.622651374E+01 -0.160158411E+00  0.321829582E-02
   C  0.648470425E+01 -0.449928393E-02 -0.152411352E+00
   H -0.297357931E+02  0.133328377E+01  0.344711381E+00
   H  0.289545139E+02  0.192101653E+01  0.281561092E+01
     4
 # iter = 59500  time[fs]=59.50000
   C -0.631434845E+01 -0.162669143E+00  0.334925625E-02
   C  0.657503191E+01 -0.496815099E-02 -0.154720996E+00
   H -0.301052342E+02  0.134952333E+01  0.348779900E+00
   H  0.293102816E+02  0.194421684E+01  0.285036801E+01
     4
 # iter = 60000  time[fs]=60.00000
   C -0.640226863E+01 -0.165181410E+00  0.348104620E-02
   C  0.666544459E+01 -0.543647966E-02 -0.157032466E+00
   H -0.304747717E+02  0.136576760E+01  0.352849241E+00
   H  0.296661509E+02  0.196742439E+01  0.288513623E+01
     4
 # iter = 60500  time[fs]=60.50000
   C -0.649027195E+01 -0.167695172E+00  0.361364417E-02
   C  0.675593999E+01 -0.590428772E-02 -0.159345716E+00
   H -0.308444032E+02  0.138201649E+01  0.356919386E+00
   H  0.300221194E+02  0.199063902E+01  0.291991533E+01
     4
 # iter = 61000  time[fs]=61.00000
   C -0.657835616E+01 -0.170210389E+00  0.374702949E-02
   C  0.684651587E+01 -0.637159219E-02 -0.161660706E+00
   H -0.312141265E+02  0.139826988E+01  0.360990315E+00
   H  0.303781847E+02  0.201386056E+01  0.295470505E+01
     4
 # iter = 61500  time[fs]=61.50000
   C -0.666651911E+01 -0.172727024E+00  0.388118223E-02
   C  0.693717008E+01 -0.683840931E-02 -0.163977392E+00
   H -0.315839397E+02  0.141452767E+01  0.365062010E+00
   H  0.307343447E+02  0.203708887E+01  0.298950517E+01
     4
 # iter = 62000  time[fs]=62.00000
   C -0.675475874E+01 -0.175245040E+00  0.401608320E-02
   C  0.702790057E+01 -0.730475459E-02 -0.166295736E+00
   H -0.319538404E+02  0.143078977E+01  0.369134453E+00
   H  0.310905972E+02  0.206032379E+01  0.302431544E+01
     4
 # iter = 62500  time[fs]=62.50000
   C -0.684307306E+01 -0.177764402E+00  0.415171389E-02
   C  0.711870534E+01 -0.777064291E-02 -0.168615698E+00
   H -0.323238269E+02  0.144705607E+01  0.373207628E+00
   H  0.314469401E+02  0.208356518E+01  0.305913566E+01
     4
 # iter = 63000  time[fs]=63.00000
   C -0.693146014E+01 -0.180285078E+00  0.428805646E-02
   C  0.720958251E+01 -0.823608847E-02 -0.170937243E+00
   H -0.326938972E+02  0.146332649E+01  0.377281518E+00
   H  0.318033713E+02  0.210681289E+01  0.309396560E+01
     4
 # iter = 63500  time[fs]=63.50000
   C -0.701991816E+01 -0.182807034E+00  0.442509369E-02
   C  0.730053022E+01 -0.870110488E-02 -0.173260333E+00
   H -0.330640494E+02  0.147960094E+01  0.381356106E+00
   H  0.321598891E+02  0.213006678E+01  0.312880505E+01
     4
 # iter = 64000  time[fs]=64.00000
   C -0.710844532E+01 -0.185330239E+00  0.456280896E-02
   C  0.739154671E+01 -0.916570519E-02 -0.175584934E+00
   H -0.334342817E+02  0.149587933E+01  0.385431377E+00
   H  0.325164914E+02  0.215332674E+01  0.316365382E+01
     4
 # iter = 64500  time[fs]=64.50000
   C -0.719703993E+01 -0.187854663E+00  0.470118622E-02
   C  0.748263027E+01 -0.962990189E-02 -0.177911013E+00
   H -0.338045924E+02  0.151216158E+01  0.389507317E+00
   H  0.328731766E+02  0.217659262E+01  0.319851171E+01
     4
 # iter = 65000  time[fs]=65.00000
   C -0.728570032E+01 -0.190380278E+00  0.484020999E-02
   C  0.757377926E+01 -0.100937070E-01 -0.180238537E+00
   H -0.341749798E+02  0.152844761E+01  0.393583911E+00
   H  0.332299427E+02  0.219986431E+01  0.323337853E+01
     4
 # iter = 65500  time[fs]=65.50000
   C -0.737442490E+01 -0.192907055E+00  0.497986530E-02
   C  0.766499210E+01 -0.105571319E-01 -0.182567475E+00
   H -0.345454422E+02  0.154473733E+01  0.397661145E+00
   H  0.335867881E+02  0.222314168E+01  0.326825409E+01
     4
 # iter = 66000  time[fs]=66.00000
   C -0.746321215E+01 -0.195434966E+00  0.512013766E-02
   C  0.775626725E+01 -0.110201878E-01 -0.184897796E+00
   H -0.349159782E+02  0.156103068E+01  0.401739005E+00
   H  0.339437112E+02  0.224642463E+01  0.330313823E+01
     4
 # iter = 66500  time[fs]=66.50000
   C -0.755206057E+01 -0.197963987E+00  0.526101310E-02
   C  0.784760324E+01 -0.114828852E-01 -0.187229472E+00
   H -0.352865862E+02  0.157732758E+01  0.405817479E+00
   H  0.343007104E+02  0.226971302E+01  0.333803075E+01
     4
 # iter = 67000  time[fs]=67.00000
   C -0.764096875E+01 -0.200494091E+00  0.540247808E-02
   C  0.793899864E+01 -0.119452343E-01 -0.189562472E+00
   H -0.356572647E+02  0.159362796E+01  0.409896553E+00
   H  0.346577841E+02  0.229300677E+01  0.337293151E+01
     4
 # iter = 67500  time[fs]=67.50000
   C -0.772993528E+01 -0.203025255E+00  0.554451951E-02
   C  0.803045208E+01 -0.124072448E-01 -0.191896770E+00
   H -0.360280122E+02  0.160993174E+01  0.413976216E+00
   H  0.350149307E+02  0.231630575E+01  0.340784034E+01
     4
 # iter = 68000  time[fs]=68.00000
   C -0.781895884E+01 -0.205557455E+00  0.568712472E-02
   C  0.812196222E+01 -0.128689263E-01 -0.194232339E+00
   H -0.363988274E+02  0.162623887E+01  0.418056455E+00
   H  0.353721489E+02  0.233960987E+01  0.344275707E+01
     4
 # iter = 68500  time[fs]=68.50000
   C -0.790803814E+01 -0.208090667E+00  0.583028145E-02
   C  0.821352778E+01 -0.133302877E-01 -0.196569153E+00
   H -0.367697089E+02  0.164254928E+01  0.422137258E+00
   H  0.357294373E+02  0.236291903E+01  0.347768157E+01
     4
 # iter = 69000  time[fs]=69.00000
   C -0.799717193E+01 -0.210624871E+00  0.597397780E-02
   C  0.830514751E+01 -0.137913377E-01 -0.198907187E+00
   H -0.371406555E+02  0.165886290E+01  0.426218615E+00
   H  0.360867943E+02  0.238623313E+01  0.351261367E+01
     4
 # iter = 69500  time[fs]=69.50000
   C -0.808635899E+01 -0.213160043E+00  0.611820228E-02
   C  0.839682022E+01 -0.142520848E-01 -0.201246416E+00
   H -0.375116657E+02  0.167517967E+01  0.430300515E+00
   H  0.364442188E+02  0.240955208E+01  0.354755323E+01
     4
 # iter = 70000  time[fs]=70.00000
   C -0.817559816E+01 -0.215696165E+00  0.626294374E-02
   C  0.848854473E+01 -0.147125369E-01 -0.203586817E+00
   H -0.378827385E+02  0.169149953E+01  0.434382947E+00
   H  0.368017094E+02  0.243287578E+01  0.358250011E+01
     4
 # iter = 70500  time[fs]=70.50000
   C -0.826488831E+01 -0.218233215E+00  0.640819135E-02
   C  0.858031992E+01 -0.151727020E-01 -0.205928366E+00
   H -0.382538726E+02  0.170782243E+01  0.438465900E+00
   H  0.371592649E+02  0.245620414E+01  0.361745419E+01
     4
 # iter = 71000  time[fs]=71.00000
   C -0.835422833E+01 -0.220771175E+00  0.655393464E-02
   C  0.867214470E+01 -0.156325874E-01 -0.208271042E+00
   H -0.386250668E+02  0.172414831E+01  0.442549366E+00
   H  0.375168840E+02  0.247953709E+01  0.365241532E+01
     4
 # iter = 71500  time[fs]=71.50000
   C -0.844361718E+01 -0.223310026E+00  0.670016345E-02
   C  0.876401802E+01 -0.160922004E-01 -0.210614822E+00
   H -0.389963200E+02  0.174047711E+01  0.446633333E+00
   H  0.378745656E+02  0.250287453E+01  0.368738337E+01
     4
 # iter = 72000  time[fs]=72.00000
   C -0.853305381E+01 -0.225849748E+00  0.684686790E-02
   C  0.885593884E+01 -0.165515480E-01 -0.212959685E+00
   H -0.393676311E+02  0.175680878E+01  0.450717793E+00
   H  0.382323084E+02  0.252621638E+01  0.372235822E+01
     4
 # iter = 72500  time[fs]=72.50000
   C -0.862253724E+01 -0.228390326E+00  0.699403843E-02
   C  0.894790618E+01 -0.170106369E-01 -0.215305611E+00
   H -0.397389990E+02  0.177314327E+01  0.454802736E+00
   H  0.385901114E+02  0.254956256E+01  0.375733975E+01
     4
 # iter = 73000  time[fs]=73.00000
   C -0.871206650E+01 -0.230931740E+00  0.714166574E-02
   C  0.903991907E+01 -0.174694735E-01 -0.217652580E+00
   H -0.401104228E+02  0.178948053E+01  0.458888153E+00
   H  0.389479734E+02  0.257291300E+01  0.379232784E+01
     4
 # iter = 73500  time[fs]=73.50000
   C -0.880164064E+01 -0.233473976E+00  0.728974082E-02
   C  0.913197657E+01 -0.179280643E-01 -0.220000573E+00
   H -0.404819013E+02  0.180582050E+01  0.462974037E+00
   H  0.393058935E+02  0.259626762E+01  0.382732238E+01
     4
 # iter = 74000  time[fs]=74.00000
   C -0.889125876E+01 -0.236017016E+00  0.743825490E-02
   C  0.922407780E+01 -0.183864151E-01 -0.222349570E+00
   H -0.408534336E+02  0.182216315E+01  0.467060378E+00
   H  0.396638705E+02  0.261962634E+01  0.386232324E+01
     4
 # iter = 74500  time[fs]=74.50000
   C -0.898091997E+01 -0.238560845E+00  0.758719946E-02
   C  0.931622185E+01 -0.188445319E-01 -0.224699554E+00
   H -0.412250187E+02  0.183850842E+01  0.471147168E+00
   H  0.400219034E+02  0.264298910E+01  0.389733033E+01
     4
 # iter = 75000  time[fs]=75.00000
   C -0.907062342E+01 -0.241105448E+00  0.773656623E-02
   C  0.940840789E+01 -0.193024202E-01 -0.227050506E+00
   H -0.415966557E+02  0.185485627E+01  0.475234399E+00
   H  0.403799914E+02  0.266635583E+01  0.393234353E+01
     4
 # iter = 75500  time[fs]=75.50000
   C -0.916036828E+01 -0.243650810E+00  0.788634717E-02
   C  0.950063509E+01 -0.197600857E-01 -0.229402409E+00
   H -0.419683437E+02  0.187120665E+01  0.479322064E+00
   H  0.407381333E+02  0.268972645E+01  0.396736274E+01
     4
 # iter = 76000  time[fs]=76.00000
   C -0.925015374E+01 -0.246196916E+00  0.803653447E-02
   C  0.959290263E+01 -0.202175334E-01 -0.231755246E+00
   H -0.423400819E+02  0.188755952E+01  0.483410154E+00
   H  0.410963284E+02  0.271310090E+01  0.400238786E+01
     4
 # iter = 76500  time[fs]=76.50000
   C -0.933997901E+01 -0.248743752E+00  0.818712052E-02
   C  0.968520974E+01 -0.206747686E-01 -0.234109002E+00
   H -0.427118692E+02  0.190391485E+01  0.487498663E+00
   H  0.414545756E+02  0.273647912E+01  0.403741878E+01
     4
 # iter = 77000  time[fs]=77.00000
   C -0.942984333E+01 -0.251291306E+00  0.833809793E-02
   C  0.977755566E+01 -0.211317963E-01 -0.236463659E+00
   H -0.430837050E+02  0.192027258E+01  0.491587583E+00
   H  0.418128740E+02  0.275986104E+01  0.407245543E+01
     4
 # iter = 77500  time[fs]=77.50000
   C -0.951974596E+01 -0.253839563E+00  0.848945950E-02
   C  0.986993965E+01 -0.215886211E-01 -0.238819202E+00
   H -0.434555883E+02  0.193663268E+01  0.495676908E+00
   H  0.421712229E+02  0.278324660E+01  0.410749769E+01
     4
 # iter = 78000  time[fs]=78.00000
   C -0.960968618E+01 -0.256388511E+00  0.864119823E-02
   C  0.996236100E+01 -0.220452477E-01 -0.241175615E+00
   H -0.438275184E+02  0.195299511E+01  0.499766629E+00
   H  0.425296214E+02  0.280663575E+01  0.414254547E+01
     4
 # iter = 78500  time[fs]=78.50000
   C -0.969966328E+01 -0.258938138E+00  0.879330730E-02
   C  0.100548190E+02 -0.225016806E-01 -0.243532885E+00
   H -0.441994945E+02  0.196935983E+01  0.503856742E+00
   H  0.428880687E+02  0.283002842E+01  0.417759870E+01
     4
 # iter = 79000  time[fs]=79.00000
   C -0.978967659E+01 -0.261488430E+00  0.894578008E-02
   C  0.101473130E+02 -0.229579241E-01 -0.245890997E+00
   H -0.445715158E+02  0.198572680E+01  0.507947239E+00
   H  0.432465639E+02  0.285342456E+01  0.421265727E+01
     4
 # iter = 79500  time[fs]=79.50000
   C -0.987972544E+01 -0.264039377E+00  0.909861011E-02
   C  0.102398423E+02 -0.234139825E-01 -0.248249936E+00
   H -0.449435816E+02  0.200209599E+01  0.512038113E+00
   H  0.436051063E+02  0.287682410E+01  0.424772111E+01
     4
 # iter = 80000  time[fs]=80.00000
   C -0.996980919E+01 -0.266590966E+00  0.925179108E-02
   C  0.103324063E+02 -0.238698599E-01 -0.250609688E+00
   H -0.453156912E+02  0.201846737E+01  0.516129360E+00
   H  0.439636951E+02  0.290022701E+01  0.428279013E+01
