     4
 # iter = 25000  time[fs]=25.00000
   C -0.944772012E+00 -0.192093184E-02 -0.332035766E-03
   C  0.103190865E+01  0.337457441E-01 -0.676925895E-02
   H -0.523228839E+01  0.258239653E+00  0.734880398E-01
   H  0.539920321E+01  0.387712403E+00  0.519397438E+00
     4
 # iter = 25500  time[fs]=25.50000
   C -0.987534417E+00 -0.358175727E-02 -0.460701714E-03
   C  0.107718092E+01  0.327617075E-01 -0.849187109E-02
   H -0.556681107E+01  0.272864688E+00  0.772481062E-01
   H  0.571984943E+01  0.408510392E+00  0.550534116E+00
     4
 # iter = 26000  time[fs]=26.00000
   C -0.103334997E+01 -0.532466706E-02 -0.592756076E-03
   C  0.112551529E+01  0.318050906E-01 -0.102641707E-01
   H -0.590683283E+01  0.287759185E+00  0.810783042E-01
   H  0.604588737E+01  0.429694893E+00  0.582237572E+00
     4
 # iter = 26500  time[fs]=26.50000
   C -0.108196542E+01 -0.714072448E-02 -0.725799580E-03
   C  0.117665474E+01  0.308730581E-01 -0.120827574E-01
   H -0.625172862E+01  0.302891880E+00  0.849700185E-01
   H  0.637673713E+01  0.451223955E+00  0.614446828E+00
     4
 # iter = 27000  time[fs]=27.00000
   C -0.113314398E+01 -0.902210902E-02 -0.858014191E-03
   C  0.123035971E+01  0.299629556E-01 -0.139445204E-01
   H -0.660096890E+01  0.318236520E+00  0.889160863E-01
   H  0.671190243E+01  0.473061839E+00  0.647109898E+00
     4
 # iter = 27500  time[fs]=27.50000
   C -0.118666673E+01 -0.109619800E-01 -0.988047211E-03
   C  0.128640924E+01  0.290723501E-01 -0.158465923E-01
   H -0.695410193E+01  0.333770865E+00  0.929104942E-01
   H  0.705095604E+01  0.495177890E+00  0.680182156E+00
     4
 # iter = 28000  time[fs]=28.00000
   C -0.124233297E+01 -0.129543524E-01 -0.111491389E-02
   C  0.134460113E+01  0.281990445E-01 -0.177863207E-01
   H -0.731073987E+01  0.349475925E+00  0.969481493E-01
   H  0.739352812E+01  0.517545645E+00  0.713625049E+00
     4
 # iter = 28500  time[fs]=28.50000
   C -0.129995981E+01 -0.149939860E-01 -0.123791729E-02
   C  0.140475139E+01  0.273410745E-01 -0.197612478E-01
   H -0.767054769E+01  0.365335366E+00  0.101024703E+00
   H  0.773929682E+01  0.540142127E+00  0.747405069E+00
     4
 # iter = 29000  time[fs]=29.00000
   C -0.135938129E+01 -0.170762862E-01 -0.135658335E-02
   C  0.146669327E+01  0.264966962E-01 -0.217690957E-01
   H -0.803323436E+01  0.381335043E+00  0.105136417E+00
   H  0.808798060E+01  0.562947271E+00  0.781492930E+00
     4
 # iter = 29500  time[fs]=29.50000
   C -0.142044726E+01 -0.191972177E-01 -0.147060902E-02
   C  0.153027607E+01  0.256643688E-01 -0.238077537E-01
   H -0.839854565E+01  0.397462633E+00  0.109280052E+00
   H  0.843933204E+01  0.585943465E+00  0.815862906E+00
     4
 # iter = 30000  time[fs]=30.00000
   C -0.148302213E+01 -0.213532290E-01 -0.157982130E-02
   C  0.159536377E+01  0.248427351E-01 -0.258752673E-01
   H -0.876625845E+01  0.413707341E+00  0.113452789E+00
   H  0.879313275E+01  0.609115176E+00  0.850492286E+00
     4
 # iter = 30500  time[fs]=30.50000
   C -0.154698352E+01 -0.235411871E-01 -0.168414499E-02
   C  0.166183376E+01  0.240306013E-01 -0.279698273E-01
   H -0.913617596E+01  0.430059657E+00  0.117652157E+00
   H  0.914918908E+01  0.632448642E+00  0.885360931E+00
     4
 # iter = 31000  time[fs]=31.00000
   C -0.161222108E+01 -0.257583213E-01 -0.178357770E-02
   C  0.172957550E+01  0.232269184E-01 -0.300897604E-01
   H -0.950812386E+01  0.446511164E+00  0.121875980E+00
   H  0.950732869E+01  0.655931618E+00  0.920450905E+00
     4
 # iter = 31500  time[fs]=31.50000
   C -0.167863521E+01 -0.280021749E-01 -0.187817044E-02
   C  0.179848932E+01  0.224307650E-01 -0.322335189E-01
   H -0.988194708E+01  0.463054380E+00  0.126122333E+00
   H  0.986739758E+01  0.679553165E+00  0.955746174E+00
     4
 # iter = 32000  time[fs]=32.00000
   C -0.174613601E+01 -0.302705636E-01 -0.196801270E-02
   C  0.186848528E+01  0.216413306E-01 -0.343996716E-01
   H -0.102575072E+02  0.479682625E+00  0.130389505E+00
   H  0.102292577E+02  0.703303475E+00  0.991232348E+00
     4
 # iter = 32500  time[fs]=32.50000
   C -0.181464221E+01 -0.325615401E-01 -0.205322098E-02
   C  0.193948212E+01  0.208579024E-01 -0.365868949E-01
   H -0.106346800E+02  0.496389912E+00  0.134675969E+00
   H  0.105927848E+02  0.727173723E+00  0.102689647E+01
     4
 # iter = 33000  time[fs]=33.00000
   C -0.188408031E+01 -0.348733635E-01 -0.213393010E-02
   C  0.201140638E+01  0.200798523E-01 -0.387939642E-01
   H -0.110133539E+02  0.513170856E+00  0.138980357E+00
   H  0.109578667E+02  0.751155940E+00  0.106272683E+01
     4
 # iter = 33500  time[fs]=33.50000
   C -0.195438370E+01 -0.372044733E-01 -0.221028659E-02
   C  0.208419152E+01  0.193066262E-01 -0.410197463E-01
   H -0.113934283E+02  0.530020595E+00  0.143301437E+00
   H  0.113244021E+02  0.775242912E+00  0.109871282E+01
     4
 # iter = 34000  time[fs]=34.00000
   C -0.202549194E+01 -0.395534669E-01 -0.228244366E-02
   C  0.215777718E+01  0.185377344E-01 -0.432631916E-01
   H -0.117748119E+02  0.546934726E+00  0.147638100E+00
   H  0.116922986E+02  0.799428085E+00  0.113484479E+01
     4
 # iter = 34500  time[fs]=34.50000
   C -0.209735011E+01 -0.419190802E-01 -0.235055755E-02
   C  0.223210852E+01  0.177727435E-01 -0.455233276E-01
   H -0.121574220E+02  0.563909251E+00  0.151989340E+00
   H  0.120614725E+02  0.823705488E+00  0.117111396E+01
     4
 # iter = 35000  time[fs]=35.00000
   C -0.216990820E+01 -0.443001710E-01 -0.241478469E-02
   C  0.230713565E+01  0.170112691E-01 -0.477992523E-01
   H -0.125411832E+02  0.580940528E+00  0.156354244E+00
   H  0.124318472E+02  0.848069672E+00  0.120751228E+01
     4
 # iter = 35500  time[fs]=35.50000
   C -0.224312063E+01 -0.466957049E-01 -0.247527976E-02
   C  0.238281310E+01  0.162529700E-01 -0.500901285E-01
   H -0.129260268E+02  0.598025230E+00  0.160731981E+00
   H  0.128033525E+02  0.872515646E+00  0.124403241E+01
     4
 # iter = 36000  time[fs]=36.00000
   C -0.231694575E+01 -0.491047425E-01 -0.253219422E-02
   C  0.245909932E+01  0.154975422E-01 -0.523951783E-01
   H -0.133118898E+02  0.615160309E+00  0.165121793E+00
   H  0.131759244E+02  0.897038829E+00  0.128066758E+01
     4
 # iter = 36500  time[fs]=36.50000
   C -0.239134547E+01 -0.515264288E-01 -0.258567530E-02
   C  0.253595634E+01  0.147447148E-01 -0.547136782E-01
   H -0.136987147E+02  0.632342972E+00  0.169522984E+00
   H  0.135495036E+02  0.921635010E+00  0.131741156E+01
     4
 # iter = 37000  time[fs]=37.00000
   C -0.246628486E+01 -0.539599838E-01 -0.263586532E-02
   C  0.261334934E+01  0.139942458E-01 -0.570449549E-01
   H -0.140864482E+02  0.649570644E+00  0.173934917E+00
   H  0.139240358E+02  0.946300306E+00  0.135425864E+01
     4
 # iter = 37500  time[fs]=37.50000
   C -0.254173187E+01 -0.564046946E-01 -0.268290124E-02
   C  0.269124638E+01  0.132459185E-01 -0.593883806E-01
   H -0.144750417E+02  0.666840953E+00  0.178357007E+00
   H  0.142994708E+02  0.971031131E+00  0.139120350E+01
     4
 # iter = 38000  time[fs]=38.00000
   C -0.261765702E+01 -0.588599078E-01 -0.272691449E-02
   C  0.276961809E+01  0.124995388E-01 -0.617433700E-01
   H -0.148644500E+02  0.684151710E+00  0.182788712E+00
   H  0.146757623E+02  0.995824168E+00  0.142824123E+01
     4
 # iter = 38500  time[fs]=38.50000
   C -0.269403315E+01 -0.613250235E-01 -0.276803078E-02
   C  0.284843743E+01  0.117549323E-01 -0.641093763E-01
   H -0.152546313E+02  0.701500884E+00  0.187229535E+00
   H  0.150528670E+02  0.102067634E+01  0.146536728E+01
     4
 # iter = 39000  time[fs]=39.00000
   C -0.277083522E+01 -0.637994901E-01 -0.280637016E-02
   C  0.292767945E+01  0.110119420E-01 -0.664858885E-01
   H -0.156455471E+02  0.718886595E+00  0.191679013E+00
   H  0.154307453E+02  0.104558479E+01  0.150257743E+01
     4
 # iter = 39500  time[fs]=39.50000
   C -0.284804007E+01 -0.662827989E-01 -0.284204710E-02
   C  0.300732112E+01  0.102704266E-01 -0.688724281E-01
   H -0.160371615E+02  0.736307095E+00  0.196136719E+00
   H  0.158093599E+02  0.107054686E+01  0.153986773E+01
     4
 # iter = 40000  time[fs]=40.00000
   C -0.292562628E+01 -0.687744802E-01 -0.287517059E-02
   C  0.308734109E+01  0.953025830E-02 -0.712685471E-01
   H -0.164294412E+02  0.753760757E+00  0.200602255E+00
   H  0.161886763E+02  0.109556007E+01  0.157723451E+01
     4
 # iter = 40500  time[fs]=40.50000
   C -0.300357400E+01 -0.712740998E-01 -0.290584432E-02
   C  0.316771963E+01  0.879132180E-02 -0.736738253E-01
   H -0.168223550E+02  0.771246064E+00  0.205075251E+00
   H  0.165686623E+02  0.112062212E+01  0.161467435E+01
     4
 # iter = 41000  time[fs]=41.00000
   C -0.308186480E+01 -0.737812550E-01 -0.293416691E-02
   C  0.324843838E+01  0.805351255E-02 -0.760878683E-01
   H -0.172158740E+02  0.788761601E+00  0.209555363E+00
   H  0.169492878E+02  0.114573083E+01  0.165218403E+01
     4
 # iter = 41500  time[fs]=41.50000
   C -0.316048156E+01 -0.762955723E-01 -0.296023208E-02
   C  0.332948032E+01  0.731673576E-02 -0.785103053E-01
   H -0.176099711E+02  0.806306043E+00  0.214042270E+00
   H  0.173305247E+02  0.117088420E+01  0.168976055E+01
     4
 # iter = 42000  time[fs]=42.00000
   C -0.323940831E+01 -0.788167043E-01 -0.298412887E-02
   C  0.341082959E+01  0.658090537E-02 -0.809407877E-01
   H -0.180046212E+02  0.823878152E+00  0.218535670E+00
   H  0.177123465E+02  0.119608032E+01  0.172740111E+01
     4
 # iter = 42500  time[fs]=42.50000
   C -0.331863022E+01 -0.813443277E-01 -0.300594190E-02
   C  0.349247141E+01  0.584594306E-02 -0.833789872E-01
   H -0.183998003E+02  0.841476765E+00  0.223035283E+00
   H  0.180947286E+02  0.122131741E+01  0.176510306E+01
     4
 # iter = 43000  time[fs]=43.00000
   C -0.339813339E+01 -0.838781410E-01 -0.302575156E-02
   C  0.357439199E+01  0.511177753E-02 -0.858245944E-01
   H -0.187954863E+02  0.859100791E+00  0.227540844E+00
   H  0.184776477E+02  0.124659381E+01  0.180286390E+01
     4
 # iter = 43500  time[fs]=43.50000
   C -0.347790488E+01 -0.864178625E-01 -0.304363422E-02
   C  0.365657845E+01  0.437834377E-02 -0.882773175E-01
   H -0.191916583E+02  0.876749203E+00  0.232052108E+00
   H  0.188610821E+02  0.127190794E+01  0.184068132E+01
     4
 # iter = 44000  time[fs]=44.00000
   C -0.355793256E+01 -0.889632291E-01 -0.305966247E-02
   C  0.373901873E+01  0.364558238E-02 -0.907368808E-01
   H -0.195882967E+02  0.894421037E+00  0.236568840E+00
   H  0.192450111E+02  0.129725832E+01  0.187855309E+01
     4
 # iter = 44500  time[fs]=44.50000
   C -0.363820507E+01 -0.915139943E-01 -0.307390531E-02
   C  0.382170156E+01  0.291343910E-02 -0.932030240E-01
   H -0.199853830E+02  0.912115383E+00  0.241090823E+00
   H  0.196294155E+02  0.132264355E+01  0.191647715E+01
     4
 # iter = 45000  time[fs]=45.00000
   C -0.371871176E+01 -0.940699269E-01 -0.308642835E-02
   C  0.390461635E+01  0.218186423E-02 -0.956755006E-01
   H -0.203828996E+02  0.929831381E+00  0.245617850E+00
   H  0.200142769E+02  0.134806232E+01  0.195445152E+01
     4
 # iter = 45500  time[fs]=45.50000
   C -0.379944262E+01 -0.966308101E-01 -0.309729398E-02
   C  0.398775315E+01  0.145081224E-02 -0.981540774E-01
   H -0.207808303E+02  0.947568223E+00  0.250149727E+00
   H  0.203995782E+02  0.137351338E+01  0.199247436E+01
     4
 # iter = 46000  time[fs]=46.00000
   C -0.388038825E+01 -0.991964401E-01 -0.310656156E-02
   C  0.407110265E+01  0.720241357E-03 -0.100638534E+00
   H -0.211791594E+02  0.965325141E+00  0.254686271E+00
   H  0.207853029E+02  0.139899555E+01  0.203054391E+01
     4
 # iter = 46500  time[fs]=46.50000
   C -0.396153981E+01 -0.101766625E+00 -0.311428760E-02
   C  0.415465604E+01 -0.988677004E-05 -0.103128659E+00
   H -0.215778723E+02  0.983101410E+00  0.259227308E+00
   H  0.211714358E+02  0.142450772E+01  0.206865850E+01
     4
 # iter = 47000  time[fs]=47.00000
   C -0.404288897E+01 -0.104341184E+00 -0.312052592E-02
   C  0.423840507E+01 -0.739607408E-03 -0.105624256E+00
   H -0.219769550E+02  0.100089634E+01  0.263772674E+00
   H  0.215579621E+02  0.145004883E+01  0.210681656E+01
     4
 # iter = 47500  time[fs]=47.50000
   C -0.412442788E+01 -0.106919948E+00 -0.312532776E-02
   C  0.432234192E+01 -0.146895301E-02 -0.108125135E+00
   H -0.223763945E+02  0.101870929E+01  0.268322215E+00
   H  0.219448680E+02  0.147561786E+01  0.214501659E+01
     4
 # iter = 48000  time[fs]=48.00000
   C -0.420614911E+01 -0.109502755E+00 -0.312874199E-02
   C  0.440645925E+01 -0.219795346E-02 -0.110631116E+00
   H -0.227761781E+02  0.103653963E+01  0.272875783E+00
   H  0.223321404E+02  0.150121389E+01  0.218325718E+01
     4
 # iter = 48500  time[fs]=48.50000
   C -0.428804566E+01 -0.112089453E+00 -0.313081517E-02
   C  0.449075010E+01 -0.292663631E-02 -0.113142028E+00
   H -0.231762941E+02  0.105438678E+01  0.277433238E+00
   H  0.227197669E+02  0.152683599E+01  0.222153696E+01
     4
 # iter = 49000  time[fs]=49.00000
   C -0.437011092E+01 -0.114679898E+00 -0.313159175E-02
   C  0.457520790E+01 -0.365502700E-02 -0.115657710E+00
   H -0.235767313E+02  0.107225019E+01  0.281994448E+00
   H  0.231077354E+02  0.155248330E+01  0.225985465E+01
     4
 # iter = 49500  time[fs]=49.50000
   C -0.445233861E+01 -0.117273956E+00 -0.313111414E-02
   C  0.465982643E+01 -0.438314900E-02 -0.118178006E+00
   H -0.239774788E+02  0.109012931E+01  0.286559287E+00
   H  0.234960348E+02  0.157815501E+01  0.229820904E+01
     4
 # iter = 50000  time[fs]=50.00000
   C -0.453472280E+01 -0.119871496E+00 -0.312942282E-02
   C  0.474459981E+01 -0.511102402E-02 -0.120702768E+00
   H -0.243785265E+02  0.110802364E+01  0.291127636E+00
   H  0.238846544E+02  0.160385034E+01  0.233659895E+01
     4
 # iter = 50500  time[fs]=50.50000
   C -0.461725787E+01 -0.122472397E+00 -0.312655648E-02
   C  0.482952244E+01 -0.583867214E-02 -0.123231856E+00
   H -0.247798648E+02  0.112593271E+01  0.295699380E+00
   H  0.242735837E+02  0.162956854E+01  0.237502328E+01
     4
 # iter = 51000  time[fs]=51.00000
   C -0.469993846E+01 -0.125076543E+00 -0.312255209E-02
   C  0.491458904E+01 -0.656611193E-02 -0.125765136E+00
   H -0.251814844E+02  0.114385605E+01  0.300274410E+00
   H  0.246628133E+02  0.165530891E+01  0.241348095E+01
     4
 # iter = 51500  time[fs]=51.50000
   C -0.478275952E+01 -0.127683823E+00 -0.311744501E-02
   C  0.499979457E+01 -0.729336062E-02 -0.128302478E+00
   H -0.255833765E+02  0.116179322E+01  0.304852624E+00
   H  0.250523336E+02  0.168107076E+01  0.245197097E+01
     4
 # iter = 52000  time[fs]=52.00000
   C -0.486571622E+01 -0.130294133E+00 -0.311126905E-02
   C  0.508513427E+01 -0.802043416E-02 -0.130843760E+00
   H -0.259855327E+02  0.117974382E+01  0.309433922E+00
   H  0.254421358E+02  0.170685344E+01  0.249049236E+01
     4
 # iter = 52500  time[fs]=52.50000
   C -0.494880399E+01 -0.132907373E+00 -0.310405658E-02
   C  0.517060357E+01 -0.874734735E-02 -0.133388866E+00
   H -0.263879449E+02  0.119770742E+01  0.314018211E+00
   H  0.258322115E+02  0.173265635E+01  0.252904419E+01
     4
 # iter = 53000  time[fs]=53.00000
   C -0.503201845E+01 -0.135523448E+00 -0.309583861E-02
   C  0.525619817E+01 -0.947411394E-02 -0.135937682E+00
   H -0.267906055E+02  0.121568366E+01  0.318605400E+00
   H  0.262225525E+02  0.175847889E+01  0.256762559E+01
     4
 # iter = 53500  time[fs]=53.50000
   C -0.511535547E+01 -0.138142267E+00 -0.308664484E-02
   C  0.534191394E+01 -0.102007467E-01 -0.138490101E+00
   H -0.271935071E+02  0.123367217E+01  0.323195402E+00
   H  0.266131510E+02  0.178432048E+01  0.260623569E+01
     4
 # iter = 54000  time[fs]=54.00000
   C -0.519881107E+01 -0.140763745E+00 -0.307650372E-02
   C  0.542774697E+01 -0.109272574E-01 -0.141046020E+00
   H -0.275966428E+02  0.125167260E+01  0.327788137E+00
   H  0.270039996E+02  0.181018060E+01  0.264487370E+01
     4
 # iter = 54500  time[fs]=54.50000
   C -0.528238149E+01 -0.143387799E+00 -0.306544256E-02
   C  0.551369350E+01 -0.116536573E-01 -0.143605341E+00
   H -0.280000059E+02  0.126968461E+01  0.332383525E+00
   H  0.273950912E+02  0.183605872E+01  0.268353884E+01
     4
 # iter = 55000  time[fs]=55.00000
   C -0.536606312E+01 -0.146014350E+00 -0.305348754E-02
   C  0.559974997E+01 -0.123799564E-01 -0.146167968E+00
   H -0.284035898E+02  0.128770787E+01  0.336981490E+00
   H  0.277864189E+02  0.186195433E+01  0.272223034E+01
     4
 # iter = 55500  time[fs]=55.50000
   C -0.544985252E+01 -0.148643324E+00 -0.304066380E-02
   C  0.568591297E+01 -0.131061643E-01 -0.148733811E+00
   H -0.288073884E+02  0.130574209E+01  0.341581960E+00
   H  0.281779763E+02  0.188786697E+01  0.276094751E+01
     4
 # iter = 56000  time[fs]=56.00000
   C -0.553374641E+01 -0.151274648E+00 -0.302699546E-02
   C  0.577217924E+01 -0.138322900E-01 -0.151302782E+00
   H -0.292113958E+02  0.132378696E+01  0.346184866E+00
   H  0.285697570E+02  0.191379617E+01  0.279968965E+01
     4
 # iter = 56500  time[fs]=56.50000
   C -0.561774163E+01 -0.153908253E+00 -0.301250572E-02
   C  0.585854567E+01 -0.145583416E-01 -0.153874799E+00
   H -0.296156063E+02  0.134184221E+01  0.350790141E+00
   H  0.289617550E+02  0.193974150E+01  0.283845610E+01
     4
 # iter = 57000  time[fs]=57.00000
   C -0.570183519E+01 -0.156544075E+00 -0.299721686E-02
   C  0.594500928E+01 -0.152843271E-01 -0.156449779E+00
   H -0.300200145E+02  0.135990755E+01  0.355397722E+00
   H  0.293539645E+02  0.196570252E+01  0.287724623E+01
     4
 # iter = 57500  time[fs]=57.50000
   C -0.578602420E+01 -0.159182050E+00 -0.298115030E-02
   C  0.603156721E+01 -0.160102534E-01 -0.159027646E+00
   H -0.304246151E+02  0.137798272E+01  0.360007546E+00
   H  0.297463800E+02  0.199167884E+01  0.291605942E+01
     4
 # iter = 58000  time[fs]=58.00000
   C -0.587030590E+01 -0.161822117E+00 -0.296432665E-02
   C  0.611821674E+01 -0.167361274E-01 -0.161608326E+00
   H -0.308294031E+02  0.139606748E+01  0.364619556E+00
   H  0.301389961E+02  0.201767005E+01  0.295489509E+01
     4
 # iter = 58500  time[fs]=58.50000
   C -0.595467766E+01 -0.164464218E+00 -0.294676573E-02
   C  0.620495525E+01 -0.174619552E-01 -0.164191746E+00
   H -0.312343736E+02  0.141416157E+01  0.369233694E+00
   H  0.305318076E+02  0.204367579E+01  0.299375267E+01
     4
 # iter = 59000  time[fs]=59.00000
   C -0.603913694E+01 -0.167108299E+00 -0.292848664E-02
   C  0.629178022E+01 -0.181877428E-01 -0.166777838E+00
   H -0.316395221E+02  0.143226477E+01  0.373849906E+00
   H  0.309248096E+02  0.206969569E+01  0.303263162E+01
     4
 # iter = 59500  time[fs]=59.50000
   C -0.612368130E+01 -0.169754305E+00 -0.290950776E-02
   C  0.637868925E+01 -0.189134956E-01 -0.169366535E+00
   H -0.320448440E+02  0.145037685E+01  0.378468140E+00
   H  0.313179974E+02  0.209572940E+01  0.307153141E+01
     4
 # iter = 60000  time[fs]=60.00000
   C -0.620830841E+01 -0.172402186E+00 -0.288984681E-02
   C  0.646568003E+01 -0.196392186E-01 -0.171957773E+00
   H -0.324503349E+02  0.146849759E+01  0.383088344E+00
   H  0.317113663E+02  0.212177658E+01  0.311045153E+01
     4
 # iter = 60500  time[fs]=60.50000
   C -0.629301604E+01 -0.175051891E+00 -0.286952085E-02
   C  0.655275034E+01 -0.203649167E-01 -0.174551490E+00
   H -0.328559908E+02  0.148662678E+01  0.387710470E+00
   H  0.321049119E+02  0.214783691E+01  0.314939151E+01
     4
 # iter = 61000  time[fs]=61.00000
   C -0.637780202E+01 -0.177703374E+00 -0.284854634E-02
   C  0.663989805E+01 -0.210905942E-01 -0.177147627E+00
   H -0.332618077E+02  0.150476422E+01  0.392334472E+00
   H  0.324986300E+02  0.217391007E+01  0.318835087E+01
     4
 # iter = 61500  time[fs]=61.50000
   C -0.646266429E+01 -0.180356590E+00 -0.282693917E-02
   C  0.672712111E+01 -0.218162554E-01 -0.179746127E+00
   H -0.336677816E+02  0.152290972E+01  0.396960304E+00
   H  0.328925164E+02  0.219999577E+01  0.322732915E+01
     4
 # iter = 62000  time[fs]=62.00000
   C -0.654760085E+01 -0.183011493E+00 -0.280471464E-02
   C  0.681441754E+01 -0.225419040E-01 -0.182346933E+00
   H -0.340739088E+02  0.154106309E+01  0.401587923E+00
   H  0.332865672E+02  0.222609371E+01  0.326632591E+01
     4
 # iter = 62500  time[fs]=62.50000
   C -0.663260979E+01 -0.185668042E+00 -0.278188756E-02
   C  0.690178545E+01 -0.232675438E-01 -0.184949992E+00
   H -0.344801857E+02  0.155922414E+01  0.406217285E+00
   H  0.336807784E+02  0.225220360E+01  0.330534074E+01
     4
 # iter = 63000  time[fs]=63.00000
   C -0.671768927E+01 -0.188326197E+00 -0.275847219E-02
   C  0.698922302E+01 -0.239931781E-01 -0.187555252E+00
   H -0.348866090E+02  0.157739271E+01  0.410848352E+00
   H  0.340751465E+02  0.227832518E+01  0.334437323E+01
     4
 # iter = 63500  time[fs]=63.50000
   C -0.680283750E+01 -0.190985918E+00 -0.273448233E-02
   C  0.707672848E+01 -0.247188100E-01 -0.190162664E+00
   H -0.352931751E+02  0.159556861E+01  0.415481083E+00
   H  0.344696679E+02  0.230445819E+01  0.338342297E+01
     4
 # iter = 64000  time[fs]=64.00000
   C -0.688805278E+01 -0.193647167E+00 -0.270993130E-02
   C  0.716430014E+01 -0.254444426E-01 -0.192772179E+00
   H -0.356998809E+02  0.161375170E+01  0.420115441E+00
   H  0.348643390E+02  0.233060236E+01  0.342248958E+01
     4
 # iter = 64500  time[fs]=64.50000
   C -0.697333346E+01 -0.196309908E+00 -0.268483200E-02
   C  0.725193638E+01 -0.261700785E-01 -0.195383750E+00
   H -0.361067232E+02  0.163194180E+01  0.424751389E+00
   H  0.352591566E+02  0.235675746E+01  0.346157270E+01
     4
 # iter = 65000  time[fs]=65.00000
   C -0.705867794E+01 -0.198974105E+00 -0.265919687E-02
   C  0.733963561E+01 -0.268957205E-01 -0.197997332E+00
   H -0.365136990E+02  0.165013877E+01  0.429388891E+00
   H  0.356541173E+02  0.238292324E+01  0.350067197E+01
     4
 # iter = 65500  time[fs]=65.50000
   C -0.714408470E+01 -0.201639725E+00 -0.263303796E-02
   C  0.742739632E+01 -0.276213708E-01 -0.200612882E+00
   H -0.369208054E+02  0.166834246E+01  0.434027914E+00
   H  0.360492182E+02  0.240909947E+01  0.353978704E+01
     4
 # iter = 66000  time[fs]=66.00000
   C -0.722955224E+01 -0.204306735E+00 -0.260636694E-02
   C  0.751521704E+01 -0.283470317E-01 -0.203230356E+00
   H -0.373280395E+02  0.168655272E+01  0.438668424E+00
   H  0.364444560E+02  0.243528594E+01  0.357891757E+01
     4
 # iter = 66500  time[fs]=66.50000
   C -0.731507914E+01 -0.206975102E+00 -0.257919508E-02
   C  0.760309636E+01 -0.290727054E-01 -0.205849713E+00
   H -0.377353985E+02  0.170476941E+01  0.443310389E+00
   H  0.368398281E+02  0.246148241E+01  0.361806325E+01
     4
 # iter = 67000  time[fs]=67.00000
   C -0.740066402E+01 -0.209644797E+00 -0.255153331E-02
   C  0.769103291E+01 -0.297983938E-01 -0.208470915E+00
   H -0.381428799E+02  0.172299241E+01  0.447953778E+00
   H  0.372353313E+02  0.248768870E+01  0.365722374E+01
     4
 # iter = 67500  time[fs]=67.50000
   C -0.748630554E+01 -0.212315790E+00 -0.252339221E-02
   C  0.777902537E+01 -0.305240987E-01 -0.211093923E+00
   H -0.385504811E+02  0.174122158E+01  0.452598561E+00
   H  0.376309631E+02  0.251390458E+01  0.369639876E+01
     4
 # iter = 68000  time[fs]=68.00000
   C -0.757200242E+01 -0.214988052E+00 -0.249478204E-02
   C  0.786707247E+01 -0.312498219E-01 -0.213718698E+00
   H -0.389581994E+02  0.175945679E+01  0.457244709E+00
   H  0.380267208E+02  0.254012987E+01  0.373558800E+01
     4
 # iter = 68500  time[fs]=68.50000
   C -0.765775340E+01 -0.217661556E+00 -0.246571271E-02
   C  0.795517297E+01 -0.319755650E-01 -0.216345205E+00
   H -0.393660326E+02  0.177769792E+01  0.461892194E+00
   H  0.384226017E+02  0.256636438E+01  0.377479118E+01
     4
 # iter = 69000  time[fs]=69.00000
   C -0.774355728E+01 -0.220336273E+00 -0.243619387E-02
   C  0.804332568E+01 -0.327013294E-01 -0.218973409E+00
   H -0.397739783E+02  0.179594485E+01  0.466540988E+00
   H  0.388186034E+02  0.259260791E+01  0.381400802E+01
     4
 # iter = 69500  time[fs]=69.50000
   C -0.782941289E+01 -0.223012180E+00 -0.240623485E-02
   C  0.813152944E+01 -0.334271165E-01 -0.221603276E+00
   H -0.401820342E+02  0.181419747E+01  0.471191064E+00
   H  0.392147235E+02  0.261886030E+01  0.385323824E+01
     4
 # iter = 70000  time[fs]=70.00000
   C -0.791531911E+01 -0.225689250E+00 -0.237584470E-02
   C  0.821978314E+01 -0.341529277E-01 -0.224234772E+00
   H -0.405901981E+02  0.183245566E+01  0.475842397E+00
   H  0.396109595E+02  0.264512136E+01  0.389248158E+01
     4
 # iter = 70500  time[fs]=70.50000
   C -0.800127483E+01 -0.228367459E+00 -0.234503221E-02
   C  0.830808570E+01 -0.348787642E-01 -0.226867866E+00
   H -0.409984678E+02  0.185071932E+01  0.480494962E+00
   H  0.400073092E+02  0.267139092E+01  0.393173780E+01
     4
 # iter = 71000  time[fs]=71.00000
   C -0.808727901E+01 -0.231046783E+00 -0.231380591E-02
   C  0.839643607E+01 -0.356046270E-01 -0.229502526E+00
   H -0.414068414E+02  0.186898833E+01  0.485148735E+00
   H  0.404037704E+02  0.269766883E+01  0.397100664E+01
     4
 # iter = 71500  time[fs]=71.50000
   C -0.817333061E+01 -0.233727200E+00 -0.228217406E-02
   C  0.848483323E+01 -0.363305173E-01 -0.232138722E+00
   H -0.418153166E+02  0.188726261E+01  0.489803691E+00
   H  0.408003408E+02  0.272395492E+01  0.401028786E+01
     4
 # iter = 72000  time[fs]=72.00000
   C -0.825942864E+01 -0.236408686E+00 -0.225014472E-02
   C  0.857327621E+01 -0.370564359E-01 -0.234776424E+00
   H -0.422238917E+02  0.190554204E+01  0.494459809E+00
   H  0.411970185E+02  0.275024903E+01  0.404958123E+01
     4
 # iter = 72500  time[fs]=72.50000
   C -0.834557213E+01 -0.239091222E+00 -0.221772567E-02
   C  0.866176404E+01 -0.377823839E-01 -0.237415605E+00
   H -0.426325647E+02  0.192382653E+01  0.499117066E+00
   H  0.415938013E+02  0.277655103E+01  0.408888652E+01
     4
 # iter = 73000  time[fs]=73.00000
   C -0.843176016E+01 -0.241774785E+00 -0.218492451E-02
   C  0.875029581E+01 -0.385083620E-01 -0.240056236E+00
   H -0.430413337E+02  0.194211598E+01  0.503775440E+00
   H  0.419906874E+02  0.280286075E+01  0.412820351E+01
     4
 # iter = 73500  time[fs]=73.50000
   C -0.851799181E+01 -0.244459356E+00 -0.215174859E-02
   C  0.883887062E+01 -0.392343709E-01 -0.242698290E+00
   H -0.434501969E+02  0.196041031E+01  0.508434910E+00
   H  0.423876746E+02  0.282917805E+01  0.416753198E+01
     4
 # iter = 74000  time[fs]=74.00000
   C -0.860426620E+01 -0.247144915E+00 -0.211820509E-02
   C  0.892748759E+01 -0.399604116E-01 -0.245341741E+00
   H -0.438591526E+02  0.197870943E+01  0.513095457E+00
   H  0.427847613E+02  0.285550281E+01  0.420687173E+01
     4
 # iter = 74500  time[fs]=74.50000
   C -0.869058248E+01 -0.249831442E+00 -0.208430096E-02
   C  0.901614589E+01 -0.406864845E-01 -0.247986563E+00
   H -0.442681991E+02  0.199701324E+01  0.517757059E+00
   H  0.431819455E+02  0.288183488E+01  0.424622255E+01
     4
 # iter = 75000  time[fs]=75.00000
   C -0.877693982E+01 -0.252518919E+00 -0.205004298E-02
   C  0.910484469E+01 -0.414125903E-01 -0.250632731E+00
   H -0.446773348E+02  0.201532166E+01  0.522419698E+00
   H  0.435792256E+02  0.290817412E+01  0.428558425E+01
     4
 # iter = 75500  time[fs]=75.50000
   C -0.886333742E+01 -0.255207328E+00 -0.201543772E-02
   C  0.919358321E+01 -0.421387295E-01 -0.253280222E+00
   H -0.450865579E+02  0.203363462E+01  0.527083355E+00
   H  0.439765996E+02  0.293452043E+01  0.432495662E+01
     4
 # iter = 76000  time[fs]=76.00000
   C -0.894977448E+01 -0.257896652E+00 -0.198049160E-02
   C  0.928236066E+01 -0.428649028E-01 -0.255929011E+00
   H -0.454958670E+02  0.205195203E+01  0.531748012E+00
   H  0.443740661E+02  0.296087366E+01  0.436433949E+01
     4
 # iter = 76500  time[fs]=76.50000
   C -0.903625027E+01 -0.260586873E+00 -0.194521084E-02
   C  0.937117629E+01 -0.435911105E-01 -0.258579077E+00
   H -0.459052605E+02  0.207027381E+01  0.536413651E+00
   H  0.447716233E+02  0.298723370E+01  0.440373267E+01
     4
 # iter = 77000  time[fs]=77.00000
   C -0.912276402E+01 -0.263277974E+00 -0.190960152E-02
   C  0.946002938E+01 -0.443173531E-01 -0.261230395E+00
   H -0.463147370E+02  0.208859989E+01  0.541080254E+00
   H  0.451692697E+02  0.301360043E+01  0.444313599E+01
     4
 # iter = 77500  time[fs]=77.50000
   C -0.920931504E+01 -0.265969940E+00 -0.187366955E-02
   C  0.954891922E+01 -0.450436311E-01 -0.263882945E+00
   H -0.467242949E+02  0.210693020E+01  0.545747805E+00
   H  0.455670037E+02  0.303997373E+01  0.448254926E+01
     4
 # iter = 78000  time[fs]=78.00000
   C -0.929590261E+01 -0.268662755E+00 -0.183742068E-02
   C  0.963784512E+01 -0.457699446E-01 -0.266536705E+00
   H -0.471339329E+02  0.212526465E+01  0.550416287E+00
   H  0.459648238E+02  0.306635349E+01  0.452197232E+01
     4
 # iter = 78500  time[fs]=78.50000
   C -0.938252606E+01 -0.271356404E+00 -0.180086050E-02
   C  0.972680640E+01 -0.464962942E-01 -0.269191655E+00
   H -0.475436497E+02  0.214360319E+01  0.555085684E+00
   H  0.463627285E+02  0.309273961E+01  0.456140501E+01
     4
 # iter = 79000  time[fs]=79.00000
   C -0.946918473E+01 -0.274050871E+00 -0.176399449E-02
   C  0.981580242E+01 -0.472226800E-01 -0.271847774E+00
   H -0.479534437E+02  0.216194574E+01  0.559755981E+00
   H  0.467607164E+02  0.311913198E+01  0.460084716E+01
     4
 # iter = 79500  time[fs]=79.50000
   C -0.955587798E+01 -0.276746142E+00 -0.172682795E-02
   C  0.990483253E+01 -0.479491024E-01 -0.274505044E+00
   H -0.483633139E+02  0.218029223E+01  0.564427162E+00
   H  0.471587861E+02  0.314553048E+01  0.464029861E+01
     4
 # iter = 80000  time[fs]=80.00000
   C -0.964260518E+01 -0.279442204E+00 -0.168936608E-02
   C  0.999389613E+01 -0.486755615E-01 -0.277163443E+00
   H -0.487732588E+02  0.219864261E+01  0.569099212E+00
   H  0.475569362E+02  0.317193503E+01  0.467975922E+01
