     4
 # iter = 25000  time[fs]=25.00000
   C -0.996271087E+00 -0.556172655E-01  0.249851795E-01
   C  0.101523636E+01 -0.272276078E-01  0.294931355E-01
   H -0.521265625E+01  0.502374482E+00 -0.670155336E+00
   H  0.536375207E+01  0.132313993E+00  0.535853587E+00
     4
 # iter = 25500  time[fs]=25.50000
   C -0.104319271E+01 -0.589148542E-01  0.281273176E-01
   C  0.105982793E+01 -0.281957704E-01  0.282905868E-01
   H -0.554425218E+01  0.535614006E+00 -0.714126465E+00
   H  0.568576300E+01  0.140949962E+00  0.567373585E+00
     4
 # iter = 26000  time[fs]=26.00000
   C -0.109308519E+01 -0.622996670E-01  0.313052868E-01
   C  0.110738827E+01 -0.291415636E-01  0.270700645E-01
   H -0.588127294E+01  0.569462955E+00 -0.758887488E+00
   H  0.601322373E+01  0.149754764E+00  0.599469184E+00
     4
 # iter = 26500  time[fs]=26.50000
   C -0.114569765E+01 -0.657642549E-01  0.345205290E-01
   C  0.115766471E+01 -0.300650967E-01  0.258278885E-01
   H -0.622310473E+01  0.603851801E+00 -0.804348884E+00
   H  0.634554207E+01  0.158709849E+00  0.632077727E+00
     4
 # iter = 27000  time[fs]=27.00000
   C -0.120079697E+01 -0.693019424E-01  0.377738151E-01
   C  0.121042291E+01 -0.309668423E-01  0.245614272E-01
   H -0.656922694E+01  0.638721883E+00 -0.850434977E+00
   H  0.668221208E+01  0.167799443E+00  0.665145864E+00
     4
 # iter = 27500  time[fs]=27.50000
   C -0.125816871E+01 -0.729067286E-01  0.410653466E-01
   C  0.126544761E+01 -0.318475188E-01  0.232689188E-01
   H -0.691919500E+01  0.674023320E+00 -0.897081310E+00
   H  0.702279887E+01  0.177010038E+00  0.698627859E+00
     4
 # iter = 28000  time[fs]=28.00000
   C -0.131761701E+01 -0.765732084E-01  0.443948653E-01
   C  0.132254246E+01 -0.327080003E-01  0.219493025E-01
   H -0.727262689E+01  0.709713380E+00 -0.944232597E+00
   H  0.736692654E+01  0.186329991E+00  0.732484257E+00
     4
 # iter = 28500  time[fs]=28.50000
   C -0.137896397E+01 -0.802965054E-01  0.477617565E-01
   C  0.138152925E+01 -0.335492504E-01  0.206020691E-01
   H -0.762919239E+01  0.745755208E+00 -0.991841105E+00
   H  0.771426834E+01  0.195749208E+00  0.766680812E+00
     4
 # iter = 29000  time[fs]=29.00000
   C -0.144204852E+01 -0.840722162E-01  0.511651399E-01
   C  0.144224679E+01 -0.343722738E-01  0.192271347E-01
   H -0.798860442E+01  0.782116822E+00 -0.103986538E+01
   H  0.806453885E+01  0.205258882E+00  0.801187637E+00
     4
 # iter = 29500  time[fs]=29.50000
   C -0.150672523E+01 -0.878963594E-01  0.546039461E-01
   C  0.150454961E+01 -0.351780818E-01  0.178247360E-01
   H -0.835061212E+01  0.818770305E+00 -0.108826920E+01
   H  0.841748750E+01  0.214851293E+00  0.835978510E+00
     4
 # iter = 30000  time[fs]=30.00000
   C -0.157286291E+01 -0.917653318E-01  0.580769789E-01
   C  0.156830659E+01 -0.359676695E-01  0.163953459E-01
   H -0.871499518E+01  0.855691157E+00 -0.113702077E+01
   H  0.877289332E+01  0.224519640E+00  0.871030312E+00
     4
 # iter = 30500  time[fs]=30.50000
   C -0.164034333E+01 -0.956758690E-01  0.615829641E-01
   C  0.163339961E+01 -0.367419989E-01  0.149396066E-01
   H -0.908155924E+01  0.892857771E+00 -0.118609204E+01
   H  0.913056061E+01  0.234257903E+00  0.906322569E+00
     4
 # iter = 31000  time[fs]=31.00000
   C -0.170905993E+01 -0.996250094E-01  0.651205883E-01
   C  0.169972224E+01 -0.375019902E-01  0.134582766E-01
   H -0.945013204E+01  0.930251003E+00 -0.123545813E+01
   H  0.949031533E+01  0.244060731E+00  0.941837071E+00
     4
 # iter = 31500  time[fs]=31.50000
   C -0.177891660E+01 -0.103610063E+00  0.686885270E-01
   C  0.176717856E+01 -0.382485155E-01  0.119521909E-01
   H -0.982056033E+01  0.967853815E+00 -0.128509691E+01
   H  0.985200212E+01  0.253923347E+00  0.977557551E+00
     4
 # iter = 32000  time[fs]=32.00000
   C -0.184982660E+01 -0.107628584E+00  0.722854665E-01
   C  0.183568202E+01 -0.389823960E-01  0.104222289E-01
   H -0.101927072E+02  0.100565098E+01 -0.133498858E+01
   H  0.102154818E+02  0.263841474E+00  0.101346943E+01
     4
 # iter = 32500  time[fs]=32.50000
   C -0.192171156E+01 -0.111678343E+00  0.759101192E-01
   C  0.190515445E+01 -0.397044019E-01  0.886929203E-02
   H -0.105664500E+02  0.104362885E+01 -0.138511539E+01
   H  0.105806292E+02  0.273811264E+00  0.104955960E+01
     4
 # iter = 33000  time[fs]=33.00000
   C -0.199450057E+01 -0.115757309E+00  0.795612346E-01
   C  0.197552515E+01 -0.404152525E-01  0.729428535E-02
   H -0.109416782E+02  0.108177514E+01 -0.143546137E+01
   H  0.109473314E+02  0.283829248E+00  0.108581621E+01
     4
 # iter = 33500  time[fs]=33.50000
   C -0.206812937E+01 -0.119863622E+00  0.832376066E-01
   C  0.204673007E+01 -0.411156187E-01  0.569810531E-02
   H -0.113182922E+02  0.112007874E+01 -0.148601208E+01
   H  0.113154865E+02  0.293892286E+00  0.112222855E+01
     4
 # iter = 34000  time[fs]=34.00000
   C -0.214253968E+01 -0.123995585E+00  0.869380781E-01
   C  0.211871111E+01 -0.418061245E-01  0.408163027E-02
   H -0.116962018E+02  0.115852959E+01 -0.153675442E+01
   H  0.116850016E+02  0.303997529E+00  0.115878689E+01
     4
 # iter = 34500  time[fs]=34.50000
   C -0.221767849E+01 -0.128151639E+00  0.906615434E-01
   C  0.219141549E+01 -0.424873498E-01  0.244571410E-02
   H -0.120753252E+02  0.119711857E+01 -0.158767653E+01
   H  0.120557925E+02  0.314142383E+00  0.119548235E+01
     4
 # iter = 35000  time[fs]=35.00000
   C -0.229349755E+01 -0.132330354E+00  0.944069493E-01
   C  0.226479514E+01 -0.431598337E-01  0.791181815E-03
   H -0.124555877E+02  0.123583734E+01 -0.163876757E+01
   H  0.124277823E+02  0.324324481E+00  0.123230684E+01
     4
 # iter = 35500  time[fs]=35.50000
   C -0.236995284E+01 -0.136530416E+00  0.981732953E-01
   C  0.233880622E+01 -0.438240766E-01 -0.881173178E-03
   H -0.128369214E+02  0.127467830E+01 -0.169001763E+01
   H  0.128009007E+02  0.334541659E+00  0.126925295E+01
     4
 # iter = 36000  time[fs]=36.00000
   C -0.244700415E+01 -0.140750614E+00  0.101959632E+00
   C  0.241340873E+01 -0.444805431E-01 -0.257059061E-02
   H -0.132192640E+02  0.131363448E+01 -0.174141766E+01
   H  0.131750833E+02  0.344791930E+00  0.130631389E+01
     4
 # iter = 36500  time[fs]=36.50000
   C -0.252461467E+01 -0.144989831E+00  0.105765061E+00
   C  0.248856600E+01 -0.451296649E-01 -0.427634401E-02
   H -0.136025582E+02  0.135269949E+01 -0.179295933E+01
   H  0.135502707E+02  0.355073471E+00  0.134348339E+01
     4
 # iter = 37000  time[fs]=37.00000
   C -0.260275065E+01 -0.149247036E+00  0.109588732E+00
   C  0.256424448E+01 -0.457718431E-01 -0.599774070E-02
   H -0.139867518E+02  0.139186743E+01 -0.184463497E+01
   H  0.139264086E+02  0.365384600E+00  0.138075569E+01
     4
 # iter = 37500  time[fs]=37.50000
   C -0.268138109E+01 -0.153521274E+00  0.113429839E+00
   C  0.264041333E+01 -0.464074507E-01 -0.773412128E-02
   H -0.143717962E+02  0.143113289E+01 -0.189643754E+01
   H  0.143034465E+02  0.375723765E+00  0.141812547E+01
     4
 # iter = 38000  time[fs]=38.00000
   C -0.276047749E+01 -0.157811661E+00  0.117287623E+00
   C  0.271704418E+01 -0.470368344E-01 -0.948485881E-02
   H -0.147576468E+02  0.147049085E+01 -0.194836049E+01
   H  0.146813380E+02  0.386089533E+00  0.145558780E+01
     4
 # iter = 38500  time[fs]=38.50000
   C -0.284001356E+01 -0.162117376E+00  0.121161366E+00
   C  0.279411091E+01 -0.476603174E-01 -0.112493578E-01
   H -0.151442624E+02  0.150993666E+01 -0.200039779E+01
   H  0.150600400E+02  0.396480574E+00  0.149313812E+01
     4
 # iter = 39000  time[fs]=39.00000
   C -0.291996507E+01 -0.166437656E+00  0.125050387E+00
   C  0.287158942E+01 -0.482782004E-01 -0.130270528E-01
   H -0.155316047E+02  0.154946602E+01 -0.205254383E+01
   H  0.154395126E+02  0.406895653E+00  0.153077218E+01
     4
 # iter = 39500  time[fs]=39.50000
   C -0.300030958E+01 -0.170771792E+00  0.128954047E+00
   C  0.294945741E+01 -0.488907642E-01 -0.148174075E-01
   H -0.159196382E+02  0.158907493E+01 -0.210479340E+01
   H  0.158197187E+02  0.417333625E+00  0.156848603E+01
     4
 # iter = 40000  time[fs]=40.00000
   C -0.308102635E+01 -0.175119123E+00  0.132871738E+00
   C  0.302769427E+01 -0.494982705E-01 -0.166199128E-01
   H -0.163083298E+02  0.162875966E+01 -0.215714166E+01
   H  0.162006237E+02  0.427793419E+00  0.160627601E+01
     4
 # iter = 40500  time[fs]=40.50000
   C -0.316209614E+01 -0.179479032E+00  0.136802887E+00
   C  0.310628087E+01 -0.501009640E-01 -0.184340860E-01
   H -0.166976489E+02  0.166851674E+01 -0.220958409E+01
   H  0.165821953E+02  0.438274041E+00  0.164413866E+01
     4
 # iter = 41000  time[fs]=41.00000
   C -0.324350107E+01 -0.183850942E+00  0.140746952E+00
   C  0.318519946E+01 -0.506990734E-01 -0.202594690E-01
   H -0.170875667E+02  0.170834293E+01 -0.226211646E+01
   H  0.169644035E+02  0.448774559E+00  0.168207080E+01
     4
 # iter = 41500  time[fs]=41.50000
   C -0.332522452E+01 -0.188234314E+00  0.144703419E+00
   C  0.326443353E+01 -0.512928128E-01 -0.220956274E-01
   H -0.174780565E+02  0.174823521E+01 -0.231473484E+01
   H  0.173472202E+02  0.459294102E+00  0.172006941E+01
     4
 # iter = 42000  time[fs]=42.00000
   C -0.340725104E+01 -0.192628643E+00  0.148671804E+00
   C  0.334396772E+01 -0.518823827E-01 -0.239421488E-01
   H -0.178690931E+02  0.178819072E+01 -0.236743553E+01
   H  0.177306191E+02  0.469831854E+00  0.175813168E+01
     4
 # iter = 42500  time[fs]=42.50000
   C -0.348956618E+01 -0.197033456E+00  0.152651646E+00
   C  0.342378770E+01 -0.524679712E-01 -0.257986418E-01
   H -0.182606532E+02  0.182820682E+01 -0.242021507E+01
   H  0.181145753E+02  0.480387052E+00  0.179625497E+01
     4
 # iter = 43000  time[fs]=43.00000
   C -0.357215647E+01 -0.201448308E+00  0.156642509E+00
   C  0.350388010E+01 -0.530497546E-01 -0.276647347E-01
   H -0.186527146E+02  0.186828100E+01 -0.247307020E+01
   H  0.184990659E+02  0.490958975E+00  0.183443680E+01
     4
 # iter = 43500  time[fs]=43.50000
   C -0.365500934E+01 -0.205872781E+00  0.160643981E+00
   C  0.358423242E+01 -0.536278987E-01 -0.295400745E-01
   H -0.190452567E+02  0.190841092E+01 -0.252599787E+01
   H  0.188840689E+02  0.501546948E+00  0.187267482E+01
     4
 # iter = 44000  time[fs]=44.00000
   C -0.373811298E+01 -0.210306483E+00  0.164655669E+00
   C  0.366483296E+01 -0.542025595E-01 -0.314243256E-01
   H -0.194382601E+02  0.194859435E+01 -0.257899519E+01
   H  0.192695639E+02  0.512150335E+00  0.191096685E+01
     4
 # iter = 44500  time[fs]=44.50000
   C -0.382145636E+01 -0.214749042E+00  0.168677201E+00
   C  0.374567076E+01 -0.547738834E-01 -0.333171693E-01
   H -0.198317065E+02  0.198882923E+01 -0.263205947E+01
   H  0.196555315E+02  0.522768536E+00  0.194931080E+01
     4
 # iter = 45000  time[fs]=45.00000
   C -0.390502912E+01 -0.219200111E+00  0.172708225E+00
   C  0.382673554E+01 -0.553420088E-01 -0.352183020E-01
   H -0.202255785E+02  0.202911359E+01 -0.268518814E+01
   H  0.200419536E+02  0.533400986E+00  0.198770472E+01
     4
 # iter = 45500  time[fs]=45.50000
   C -0.398882152E+01 -0.223659359E+00  0.176748404E+00
   C  0.390801765E+01 -0.559070658E-01 -0.371274352E-01
   H -0.206198600E+02  0.206944557E+01 -0.273837878E+01
   H  0.204288129E+02  0.544047150E+00  0.202614675E+01
     4
 # iter = 46000  time[fs]=46.00000
   C -0.407282441E+01 -0.228126476E+00  0.180797419E+00
   C  0.398950800E+01 -0.564691774E-01 -0.390442939E-01
   H -0.210145355E+02  0.210982342E+01 -0.279162912E+01
   H  0.208160931E+02  0.554706523E+00  0.206463515E+01
     4
 # iter = 46500  time[fs]=46.50000
   C -0.415702919E+01 -0.232601167E+00  0.184854968E+00
   C  0.407119807E+01 -0.570284596E-01 -0.409686165E-01
   H -0.214095905E+02  0.215024547E+01 -0.284493699E+01
   H  0.212037790E+02  0.565378627E+00  0.210316825E+01
     4
 # iter = 47000  time[fs]=47.00000
   C -0.424142773E+01 -0.237083154E+00  0.188920759E+00
   C  0.415307979E+01 -0.575850220E-01 -0.429001534E-01
   H -0.218050112E+02  0.219071016E+01 -0.289830035E+01
   H  0.215918559E+02  0.576063008E+00  0.214174449E+01
     4
 # iter = 47500  time[fs]=47.50000
   C -0.432601238E+01 -0.241572173E+00  0.192994519E+00
   C  0.423514558E+01 -0.581389686E-01 -0.448386666E-01
   H -0.222007847E+02  0.223121600E+01 -0.295171725E+01
   H  0.219803100E+02  0.586759237E+00  0.218036237E+01
     4
 # iter = 48000  time[fs]=48.00000
   C -0.441077593E+01 -0.246067974E+00  0.197075985E+00
   C  0.431738828E+01 -0.586903975E-01 -0.467839293E-01
   H -0.225968985E+02  0.227176157E+01 -0.300518586E+01
   H  0.223691282E+02  0.597466906E+00  0.221902048E+01
     4
 # iter = 48500  time[fs]=48.50000
   C -0.449571153E+01 -0.250570320E+00  0.201164907E+00
   C  0.439980111E+01 -0.592394018E-01 -0.487357247E-01
   H -0.229933409E+02  0.231234552E+01 -0.305870442E+01
   H  0.227582982E+02  0.608185628E+00  0.225771748E+01
     4
 # iter = 49000  time[fs]=49.00000
   C -0.458081273E+01 -0.255078985E+00  0.205261046E+00
   C  0.448237768E+01 -0.597860698E-01 -0.506938461E-01
   H -0.233901007E+02  0.235296659E+01 -0.311227129E+01
   H  0.231478080E+02  0.618915035E+00  0.229645207E+01
     4
 # iter = 49500  time[fs]=49.50000
   C -0.466607342E+01 -0.259593755E+00  0.209364173E+00
   C  0.456511192E+01 -0.603304852E-01 -0.526580956E-01
   H -0.237871675E+02  0.239362355E+01 -0.316588486E+01
   H  0.235376464E+02  0.629654777E+00  0.233522305E+01
     4
 # iter = 50000  time[fs]=50.00000
   C -0.475148780E+01 -0.264114426E+00  0.213474072E+00
   C  0.464799811E+01 -0.608727276E-01 -0.546282843E-01
   H -0.241845310E+02  0.243431525E+01 -0.321954364E+01
   H  0.239278027E+02  0.640404519E+00  0.237402925E+01
     4
 # iter = 50500  time[fs]=50.50000
   C -0.483705039E+01 -0.268640805E+00  0.217590534E+00
   C  0.473103078E+01 -0.614128725E-01 -0.566042314E-01
   H -0.245821818E+02  0.247504059E+01 -0.327324620E+01
   H  0.243182668E+02  0.651163944E+00  0.241286957E+01
     4
 # iter = 51000  time[fs]=51.00000
   C -0.492275597E+01 -0.273172707E+00  0.221713360E+00
   C  0.481420478E+01 -0.619509918E-01 -0.585857639E-01
   H -0.249801107E+02  0.251579852E+01 -0.332699117E+01
   H  0.247090289E+02  0.661932750E+00  0.245174295E+01
     4
 # iter = 51500  time[fs]=51.50000
   C -0.500859958E+01 -0.277709955E+00  0.225842360E+00
   C  0.489751520E+01 -0.624871540E-01 -0.605727162E-01
   H -0.253783089E+02  0.255658803E+01 -0.338077723E+01
   H  0.251000798E+02  0.672710646E+00  0.249064839E+01
     4
 # iter = 52000  time[fs]=52.00000
   C -0.509457653E+01 -0.282252383E+00  0.229977351E+00
   C  0.498095737E+01 -0.630214241E-01 -0.625649296E-01
   H -0.257767681E+02  0.259740816E+01 -0.343460315E+01
   H  0.254914106E+02  0.683497357E+00  0.252958492E+01
     4
 # iter = 52500  time[fs]=52.50000
   C -0.518068233E+01 -0.286799828E+00  0.234118159E+00
   C  0.506452688E+01 -0.635538643E-01 -0.645622520E-01
   H -0.261754805E+02  0.263825801E+01 -0.348846773E+01
   H  0.258830128E+02  0.694292618E+00  0.256855162E+01
     4
 # iter = 53000  time[fs]=53.00000
   C -0.526691272E+01 -0.291352139E+00  0.238264616E+00
   C  0.514821948E+01 -0.640845337E-01 -0.665645375E-01
   H -0.265744383E+02  0.267913670E+01 -0.354236984E+01
   H  0.262748784E+02  0.705096177E+00  0.260754761E+01
     4
 # iter = 53500  time[fs]=53.50000
   C -0.535326364E+01 -0.295909169E+00  0.242416562E+00
   C  0.523203116E+01 -0.646134888E-01 -0.685716464E-01
   H -0.269736344E+02  0.272004338E+01 -0.359630839E+01
   H  0.266669997E+02  0.715907793E+00  0.264657205E+01
     4
 # iter = 54000  time[fs]=54.00000
   C -0.543973122E+01 -0.300470778E+00  0.246573843E+00
   C  0.531595810E+01 -0.651407836E-01 -0.705834443E-01
   H -0.273730618E+02  0.276097726E+01 -0.365028232E+01
   H  0.270593691E+02  0.726727235E+00  0.268562413E+01
     4
 # iter = 54500  time[fs]=54.50000
   C -0.552631176E+01 -0.305036832E+00  0.250736311E+00
   C  0.539999662E+01 -0.656664694E-01 -0.725998023E-01
   H -0.277727139E+02  0.280193757E+01 -0.370429065E+01
   H  0.274519798E+02  0.737554280E+00  0.272470308E+01
     4
 # iter = 55000  time[fs]=55.00000
   C -0.561300175E+01 -0.309607203E+00  0.254903824E+00
   C  0.548414325E+01 -0.661905957E-01 -0.746205965E-01
   H -0.281725842E+02  0.284292358E+01 -0.375833241E+01
   H  0.278448248E+02  0.748388717E+00  0.276380815E+01
     4
 # iter = 55500  time[fs]=55.50000
   C -0.569979782E+01 -0.314181768E+00  0.259076246E+00
   C  0.556839464E+01 -0.667132094E-01 -0.766457079E-01
   H -0.285726667E+02  0.288393458E+01 -0.381240669E+01
   H  0.282378977E+02  0.759230342E+00  0.280293864E+01
     4
 # iter = 56000  time[fs]=56.00000
   C -0.578669674E+01 -0.318760409E+00  0.263253447E+00
   C  0.565274762E+01 -0.672343556E-01 -0.786750221E-01
   H -0.289729556E+02  0.292496988E+01 -0.386651261E+01
   H  0.286311922E+02  0.770078960E+00  0.284209386E+01
     4
 # iter = 56500  time[fs]=56.50000
   C -0.587369544E+01 -0.323343013E+00  0.267435299E+00
   C  0.573719914E+01 -0.677540775E-01 -0.807084288E-01
   H -0.293734452E+02  0.296602885E+01 -0.392064931E+01
   H  0.290247023E+02  0.780934383E+00  0.288127315E+01
     4
 # iter = 57000  time[fs]=57.00000
   C -0.596079098E+01 -0.327929471E+00  0.271621683E+00
   C  0.582174627E+01 -0.682724165E-01 -0.827458222E-01
   H -0.297741301E+02  0.300711085E+01 -0.397481599E+01
   H  0.294184223E+02  0.791796430E+00  0.292047589E+01
     4
 # iter = 57500  time[fs]=57.50000
   C -0.604798052E+01 -0.332519680E+00  0.275812480E+00
   C  0.590638624E+01 -0.687894121E-01 -0.847871003E-01
   H -0.301750051E+02  0.304821528E+01 -0.402901186E+01
   H  0.298123466E+02  0.802664928E+00  0.295970147E+01
     4
 # iter = 58000  time[fs]=58.00000
   C -0.613526139E+01 -0.337113540E+00  0.280007580E+00
   C  0.599111637E+01 -0.693051023E-01 -0.868321647E-01
   H -0.305760653E+02  0.308934158E+01 -0.408323617E+01
   H  0.302064700E+02  0.813539712E+00  0.299894930E+01
     4
 # iter = 58500  time[fs]=58.50000
   C -0.622263097E+01 -0.341710954E+00  0.284206873E+00
   C  0.607593409E+01 -0.698195237E-01 -0.888809208E-01
   H -0.309773058E+02  0.313048917E+01 -0.413748820E+01
   H  0.306007872E+02  0.824420620E+00  0.303821882E+01
     4
 # iter = 59000  time[fs]=59.00000
   C -0.631008679E+01 -0.346311830E+00  0.288410256E+00
   C  0.616083695E+01 -0.703327112E-01 -0.909332773E-01
   H -0.313787221E+02  0.317165754E+01 -0.419176725E+01
   H  0.309952935E+02  0.835307498E+00  0.307750949E+01
     4
 # iter = 59500  time[fs]=59.50000
   C -0.639762647E+01 -0.350916079E+00  0.292617628E+00
   C  0.624582258E+01 -0.708446985E-01 -0.929891463E-01
   H -0.317803098E+02  0.321284615E+01 -0.424607265E+01
   H  0.313899839E+02  0.846200198E+00  0.311682080E+01
     4
 # iter = 60000  time[fs]=60.00000
   C -0.648524772E+01 -0.355523615E+00  0.296828892E+00
   C  0.633088874E+01 -0.713555178E-01 -0.950484427E-01
   H -0.321820645E+02  0.325405452E+01 -0.430040376E+01
   H  0.317848540E+02  0.857098576E+00  0.315615224E+01
     4
 # iter = 60500  time[fs]=60.50000
   C -0.657294833E+01 -0.360134357E+00  0.301043955E+00
   C  0.641603323E+01 -0.718652002E-01 -0.971110847E-01
   H -0.325839821E+02  0.329528216E+01 -0.435475995E+01
   H  0.321798994E+02  0.868002494E+00  0.319550332E+01
     4
 # iter = 61000  time[fs]=61.00000
   C -0.666072621E+01 -0.364748224E+00  0.305262727E+00
   C  0.650125398E+01 -0.723737757E-01 -0.991769932E-01
   H -0.329860588E+02  0.333652863E+01 -0.440914063E+01
   H  0.325751159E+02  0.878911820E+00  0.323487358E+01
     4
 # iter = 61500  time[fs]=61.50000
   C -0.674857930E+01 -0.369365140E+00  0.309485119E+00
   C  0.658654897E+01 -0.728812728E-01 -0.101246092E+00
   H -0.333882906E+02  0.337779346E+01 -0.446354520E+01
   H  0.329704993E+02  0.889826425E+00  0.327426257E+01
     4
 # iter = 62000  time[fs]=62.00000
   C -0.683650567E+01 -0.373985031E+00  0.313711049E+00
   C  0.667191628E+01 -0.733877195E-01 -0.103318306E+00
   H -0.337906738E+02  0.341907623E+01 -0.451797313E+01
   H  0.333660456E+02  0.900746186E+00  0.331366985E+01
     4
 # iter = 62500  time[fs]=62.50000
   C -0.692450343E+01 -0.378607826E+00  0.317940435E+00
   C  0.675735403E+01 -0.738931421E-01 -0.105393566E+00
   H -0.341932050E+02  0.346037653E+01 -0.457242385E+01
   H  0.337617512E+02  0.911670981E+00  0.335309500E+01
     4
 # iter = 63000  time[fs]=63.00000
   C -0.701257077E+01 -0.383233457E+00  0.322173198E+00
   C  0.684286045E+01 -0.743975666E-01 -0.107471802E+00
   H -0.345958806E+02  0.350169396E+01 -0.462689686E+01
   H  0.341576122E+02  0.922600697E+00  0.339253762E+01
     4
 # iter = 63500  time[fs]=63.50000
   C -0.710070595E+01 -0.387861857E+00  0.326409262E+00
   C  0.692843380E+01 -0.749010176E-01 -0.109552947E+00
   H -0.349986974E+02  0.354302812E+01 -0.468139165E+01
   H  0.345536253E+02  0.933535221E+00  0.343199732E+01
     4
 # iter = 64000  time[fs]=64.00000
   C -0.718890728E+01 -0.392492961E+00  0.330648554E+00
   C  0.701407242E+01 -0.754035189E-01 -0.111636936E+00
   H -0.354016521E+02  0.358437864E+01 -0.473590773E+01
   H  0.349497868E+02  0.944474445E+00  0.347147371E+01
     4
 # iter = 64500  time[fs]=64.50000
   C -0.727717315E+01 -0.397126709E+00  0.334891002E+00
   C  0.709977472E+01 -0.759050936E-01 -0.113723708E+00
   H -0.358047417E+02  0.362574517E+01 -0.479044463E+01
   H  0.353460935E+02  0.955418265E+00  0.351096644E+01
     4
 # iter = 65000  time[fs]=65.00000
   C -0.736550199E+01 -0.401763040E+00  0.339136538E+00
   C  0.718553915E+01 -0.764057640E-01 -0.115813202E+00
   H -0.362079631E+02  0.366712735E+01 -0.484500189E+01
   H  0.357425422E+02  0.966366581E+00  0.355047513E+01
     4
 # iter = 65500  time[fs]=65.50000
   C -0.745389230E+01 -0.406401897E+00  0.343385095E+00
   C  0.727136422E+01 -0.769055514E-01 -0.117905359E+00
   H -0.366113135E+02  0.370852485E+01 -0.489957908E+01
   H  0.361391298E+02  0.977319294E+00  0.358999946E+01
     4
 # iter = 66000  time[fs]=66.00000
   C -0.754234261E+01 -0.411043223E+00  0.347636609E+00
   C  0.735724849E+01 -0.774044766E-01 -0.120000122E+00
   H -0.370147900E+02  0.374993733E+01 -0.495417577E+01
   H  0.365358532E+02  0.988276309E+00  0.362953908E+01
     4
 # iter = 66500  time[fs]=66.50000
   C -0.763085154E+01 -0.415686964E+00  0.351891017E+00
   C  0.744319057E+01 -0.779025596E-01 -0.122097437E+00
   H -0.374183900E+02  0.379136447E+01 -0.500879154E+01
   H  0.369327096E+02  0.999237537E+00  0.366909368E+01
     4
 # iter = 67000  time[fs]=67.00000
   C -0.771941771E+01 -0.420333069E+00  0.356148258E+00
   C  0.752918911E+01 -0.783998198E-01 -0.124197250E+00
   H -0.378221108E+02  0.383280598E+01 -0.506342600E+01
   H  0.373296962E+02  0.101020289E+01  0.370866294E+01
     4
 # iter = 67500  time[fs]=67.50000
   C -0.780803981E+01 -0.424981486E+00  0.360408274E+00
   C  0.761524283E+01 -0.788962758E-01 -0.126299510E+00
   H -0.382259498E+02  0.387426155E+01 -0.511807875E+01
   H  0.377268101E+02  0.102117227E+01  0.374824657E+01
     4
 # iter = 68000  time[fs]=68.00000
   C -0.789671658E+01 -0.429632166E+00  0.364671007E+00
   C  0.770135047E+01 -0.793919457E-01 -0.128404167E+00
   H -0.386299045E+02  0.391573089E+01 -0.517274942E+01
   H  0.381240488E+02  0.103214561E+01  0.378784426E+01
     4
 # iter = 68500  time[fs]=68.50000
   C -0.798544680E+01 -0.434285062E+00  0.368936402E+00
   C  0.778751082E+01 -0.798868471E-01 -0.130511171E+00
   H -0.390339727E+02  0.395721372E+01 -0.522743764E+01
   H  0.385214097E+02  0.104312283E+01  0.382745573E+01
     4
 # iter = 69000  time[fs]=69.00000
   C -0.807422927E+01 -0.438940127E+00  0.373204407E+00
   C  0.787372270E+01 -0.803809967E-01 -0.132620476E+00
   H -0.394381520E+02  0.399870977E+01 -0.528214307E+01
   H  0.389188904E+02  0.105410383E+01  0.386708071E+01
     4
 # iter = 69500  time[fs]=69.50000
   C -0.816306285E+01 -0.443597318E+00  0.377474968E+00
   C  0.795998499E+01 -0.808744112E-01 -0.134732036E+00
   H -0.398424400E+02  0.404021878E+01 -0.533686535E+01
   H  0.393164883E+02  0.106508856E+01  0.390671892E+01
     4
 # iter = 70000  time[fs]=70.00000
   C -0.825194642E+01 -0.448256589E+00  0.381748035E+00
   C  0.804629658E+01 -0.813671063E-01 -0.136845807E+00
   H -0.402468347E+02  0.408174049E+01 -0.539160416E+01
   H  0.397142011E+02  0.107607693E+01  0.394637012E+01
     4
 # iter = 70500  time[fs]=70.50000
   C -0.834087892E+01 -0.452917901E+00  0.386023559E+00
   C  0.813265641E+01 -0.818590973E-01 -0.138961745E+00
   H -0.406513340E+02  0.412327465E+01 -0.544635917E+01
   H  0.401120266E+02  0.108706887E+01  0.398603404E+01
     4
 # iter = 71000  time[fs]=71.00000
   C -0.842985929E+01 -0.457581210E+00  0.390301492E+00
   C  0.821906346E+01 -0.823503993E-01 -0.141079809E+00
   H -0.410559357E+02  0.416482103E+01 -0.550113007E+01
   H  0.405099626E+02  0.109806432E+01  0.402571044E+01
     4
 # iter = 71500  time[fs]=71.50000
   C -0.851888653E+01 -0.462246479E+00  0.394581789E+00
   C  0.830551671E+01 -0.828410266E-01 -0.143199958E+00
   H -0.414606378E+02  0.420637938E+01 -0.555591655E+01
   H  0.409080069E+02  0.110906320E+01  0.406539909E+01
     4
 # iter = 72000  time[fs]=72.00000
   C -0.860795967E+01 -0.466913669E+00  0.398864403E+00
   C  0.839201522E+01 -0.833309932E-01 -0.145322151E+00
   H -0.418654385E+02  0.424794948E+01 -0.561071832E+01
   H  0.413061575E+02  0.112006545E+01  0.410509975E+01
     4
 # iter = 72500  time[fs]=72.50000
   C -0.869707774E+01 -0.471582741E+00  0.403149292E+00
   C  0.847855803E+01 -0.838203128E-01 -0.147446351E+00
   H -0.422703359E+02  0.428953110E+01 -0.566553509E+01
   H  0.417044123E+02  0.113107101E+01  0.414481219E+01
     4
 # iter = 73000  time[fs]=73.00000
   C -0.878623984E+01 -0.476253661E+00  0.407436412E+00
   C  0.856514425E+01 -0.843089985E-01 -0.149572520E+00
   H -0.426753281E+02  0.433112404E+01 -0.572036657E+01
   H  0.421027693E+02  0.114207981E+01  0.418453620E+01
     4
 # iter = 73500  time[fs]=73.50000
   C -0.887544506E+01 -0.480926392E+00  0.411725723E+00
   C  0.865177299E+01 -0.847970630E-01 -0.151700622E+00
   H -0.430804133E+02  0.437272808E+01 -0.577521250E+01
   H  0.425012267E+02  0.115309180E+01  0.422427156E+01
     4
 # iter = 74000  time[fs]=74.00000
   C -0.896469255E+01 -0.485600901E+00  0.416017184E+00
   C  0.873844339E+01 -0.852845189E-01 -0.153830622E+00
   H -0.434855898E+02  0.441434303E+01 -0.583007261E+01
   H  0.428997826E+02  0.116410691E+01  0.426401807E+01
     4
 # iter = 74500  time[fs]=74.50000
   C -0.905398145E+01 -0.490277154E+00  0.420310756E+00
   C  0.882515462E+01 -0.857713781E-01 -0.155962484E+00
   H -0.438908559E+02  0.445596867E+01 -0.588494664E+01
   H  0.432984351E+02  0.117512509E+01  0.430377552E+01
     4
 # iter = 75000  time[fs]=75.00000
   C -0.914331096E+01 -0.494955119E+00  0.424606401E+00
   C  0.891190588E+01 -0.862576523E-01 -0.158096175E+00
   H -0.442962101E+02  0.449760482E+01 -0.593983434E+01
   H  0.436971825E+02  0.118614629E+01  0.434354373E+01
     4
 # iter = 75500  time[fs]=75.50000
   C -0.923268028E+01 -0.499634764E+00  0.428904081E+00
   C  0.899869638E+01 -0.867433530E-01 -0.160231663E+00
   H -0.447016506E+02  0.453925129E+01 -0.599473548E+01
   H  0.440960232E+02  0.119717044E+01  0.438332249E+01
     4
 # iter = 76000  time[fs]=76.00000
   C -0.932208865E+01 -0.504316059E+00  0.433203761E+00
   C  0.908552537E+01 -0.872284911E-01 -0.162368916E+00
   H -0.451071760E+02  0.458090791E+01 -0.604964980E+01
   H  0.444949554E+02  0.120819751E+01  0.442311163E+01
     4
 # iter = 76500  time[fs]=76.50000
   C -0.941153530E+01 -0.508998973E+00  0.437505406E+00
   C  0.917239210E+01 -0.877130775E-01 -0.164507902E+00
   H -0.455127847E+02  0.462257448E+01 -0.610457708E+01
   H  0.448939775E+02  0.121922742E+01  0.446291095E+01
     4
 # iter = 77000  time[fs]=77.00000
   C -0.950101952E+01 -0.513683479E+00  0.441808980E+00
   C  0.925929586E+01 -0.881971225E-01 -0.166648592E+00
   H -0.459184752E+02  0.466425084E+01 -0.615951710E+01
   H  0.452930880E+02  0.123026014E+01  0.450272030E+01
     4
 # iter = 77500  time[fs]=77.50000
   C -0.959054060E+01 -0.518369546E+00  0.446114451E+00
   C  0.934623595E+01 -0.886806362E-01 -0.168790956E+00
   H -0.463242463E+02  0.470593682E+01 -0.621446963E+01
   H  0.456922852E+02  0.124129562E+01  0.454253948E+01
     4
 # iter = 78000  time[fs]=78.00000
   C -0.968009785E+01 -0.523057149E+00  0.450421787E+00
   C  0.943321168E+01 -0.891636287E-01 -0.170934966E+00
   H -0.467300963E+02  0.474763225E+01 -0.626943446E+01
   H  0.460915678E+02  0.125233381E+01  0.458236835E+01
     4
 # iter = 78500  time[fs]=78.50000
   C -0.976969060E+01 -0.527746260E+00  0.454730954E+00
   C  0.952022241E+01 -0.896461094E-01 -0.173080593E+00
   H -0.471360241E+02  0.478933698E+01 -0.632441139E+01
   H  0.464909342E+02  0.126337466E+01  0.462220672E+01
     4
 # iter = 79000  time[fs]=79.00000
   C -0.985931820E+01 -0.532436853E+00  0.459041924E+00
   C  0.960726747E+01 -0.901280878E-01 -0.175227810E+00
   H -0.475420282E+02  0.483105084E+01 -0.637940020E+01
   H  0.468903830E+02  0.127441813E+01  0.466205445E+01
     4
 # iter = 79500  time[fs]=79.50000
   C -0.994898001E+01 -0.537128903E+00  0.463354664E+00
   C  0.969434626E+01 -0.906095729E-01 -0.177376591E+00
   H -0.479481073E+02  0.487277370E+01 -0.643440070E+01
   H  0.472899128E+02  0.128546418E+01  0.470191138E+01
     4
 # iter = 80000  time[fs]=80.00000
   C -0.100386754E+02 -0.541822385E+00  0.467669147E+00
   C  0.978145816E+01 -0.910905735E-01 -0.179526909E+00
   H -0.483542603E+02  0.491450538E+01 -0.648941270E+01
   H  0.476895223E+02  0.129651276E+01  0.474177735E+01
