     4
 # iter = 25000  time[fs]=25.00000
   C -0.958827803E+00  0.373571151E-01 -0.401157453E-01
   C  0.981801501E+00  0.213074197E-01 -0.155645241E-01
   H -0.529323931E+01 -0.113591859E+00  0.316321045E+00
   H  0.528727763E+01  0.379680428E+00 -0.356394754E+00
     4
 # iter = 25500  time[fs]=25.50000
   C -0.100131972E+01  0.385398607E-01 -0.415084306E-01
   C  0.102235849E+01  0.197751977E-01 -0.144180095E-01
   H -0.562295795E+01 -0.123070000E+00  0.338490345E+00
   H  0.560334480E+01  0.400924450E+00 -0.378960747E+00
     4
 # iter = 26000  time[fs]=26.00000
   C -0.104681557E+01  0.397542533E-01 -0.429606659E-01
   C  0.106593488E+01  0.181942516E-01 -0.132148106E-01
   H -0.595813607E+01 -0.132721376E+00  0.361058445E+00
   H  0.592468558E+01  0.422546634E+00 -0.401891153E+00
     4
 # iter = 26500  time[fs]=26.50000
   C -0.109507427E+01  0.410002437E-01 -0.444688546E-01
   C  0.111228639E+01  0.165664714E-01 -0.119579768E-01
   H -0.629816445E+01 -0.142527015E+00  0.383980979E+00
   H  0.625072957E+01  0.444505916E+00 -0.425148169E+00
     4
 # iter = 27000  time[fs]=27.00000
   C -0.114586883E+01  0.422773897E-01 -0.460295559E-01
   C  0.116118353E+01  0.148938694E-01 -0.106505221E-01
   H -0.664252537E+01 -0.152470797E+00  0.407220366E+00
   H  0.658098900E+01  0.466767333E+00 -0.448699339E+00
     4
 # iter = 27500  time[fs]=27.50000
   C -0.119898812E+01  0.435849504E-01 -0.476394861E-01
   C  0.121241319E+01  0.131785354E-01 -0.929539374E-02
   H -0.699077588E+01 -0.162538929E+00  0.430744535E+00
   H  0.691504429E+01  0.489300910E+00 -0.472516627E+00
     4
 # iter = 28000  time[fs]=28.00000
   C -0.125423748E+01  0.449219688E-01 -0.492955260E-01
   C  0.126577921E+01  0.114225915E-01 -0.789544359E-02
   H -0.734253468E+01 -0.172719529E+00  0.454525921E+00
   H  0.725253247E+01  0.512080780E+00 -0.496575678E+00
     4
 # iter = 28500  time[fs]=28.50000
   C -0.131143870E+01  0.462873419E-01 -0.509947268E-01
   C  0.132110217E+01  0.962815402E-02 -0.645340583E-02
   H -0.769747161E+01 -0.183002297E+00  0.478540677E+00
   H  0.759313787E+01  0.535084486E+00 -0.520855219E+00
     4
 # iter = 29000  time[fs]=29.00000
   C -0.137042940E+01  0.476798766E-01 -0.527343142E-01
   C  0.137821872E+01  0.779730143E-02 -0.497188122E-02
   H -0.805529917E+01 -0.193378254E+00  0.502768049E+00
   H  0.793658454E+01  0.558292422E+00 -0.545336579E+00
     4
 # iter = 29500  time[fs]=29.50000
   C -0.143106212E+01  0.490983342E-01 -0.545116893E-01
   C  0.143698064E+01  0.593205049E-02 -0.345332750E-02
   H -0.841576578E+01 -0.203839528E+00  0.527189873E+00
   H  0.828263012E+01  0.581687382E+00 -0.570003287E+00
     4
 # iter = 30000  time[fs]=30.00000
   C -0.149320323E+01  0.505414632E-01 -0.563244258E-01
   C  0.149725367E+01  0.403433931E-02 -0.190005505E-02
   H -0.877865016E+01 -0.214379187E+00  0.551790167E+00
   H  0.863106078E+01  0.605254191E+00 -0.594840754E+00
     4
 # iter = 30500  time[fs]=30.50000
   C -0.155673186E+01  0.520080242E-01 -0.581702653E-01
   C  0.155891644E+01  0.210601609E-02 -0.314226620E-03
   H -0.914375681E+01 -0.224991090E+00  0.576554805E+00
   H  0.898168703E+01  0.628979406E+00 -0.619836001E+00
     4
 # iter = 31000  time[fs]=31.00000
   C -0.162153867E+01  0.534968073E-01 -0.600471102E-01
   C  0.162185921E+01  0.148832771E-03  0.130213970E-02
   H -0.951091227E+01 -0.235669782E+00  0.601471240E+00
   H  0.933434033E+01  0.652851065E+00 -0.644977435E+00
     4
 # iter = 31500  time[fs]=31.50000
   C -0.168752480E+01  0.550066442E-01 -0.619530157E-01
   C  0.168598277E+01 -0.183555779E-02  0.294716544E-02
   H -0.987996200E+01 -0.246410389E+00  0.626528285E+00
   H  0.968887014E+01  0.676858481E+00 -0.670254665E+00
     4
 # iter = 32000  time[fs]=32.00000
   C -0.175460083E+01  0.565364157E-01 -0.638861805E-01
   C  0.175119745E+01 -0.384560183E-02  0.461910518E-02
   H -0.102507678E+02 -0.257208546E+00  0.651715924E+00
   H  0.100451415E+02  0.700992074E+00 -0.695658345E+00
     4
 # iter = 32500  time[fs]=32.50000
   C -0.182268582E+01  0.580850563E-01 -0.658449377E-01
   C  0.181742206E+01 -0.587984273E-02  0.631633906E-02
   H -0.106232056E+02 -0.268060326E+00  0.677025155E+00
   H  0.104030332E+02  0.725243221E+00 -0.721180037E+00
     4
 # iter = 33000  time[fs]=33.00000
   C -0.189170642E+01  0.596515568E-01 -0.678277454E-01
   C  0.188458307E+01 -0.793691773E-02  0.803736496E-02
   H -0.109971638E+02 -0.278962183E+00  0.702447862E+00
   H  0.107624358E+02  0.749604138E+00 -0.746812105E+00
     4
 # iter = 33500  time[fs]=33.50000
   C -0.196159608E+01  0.612349640E-01 -0.698331770E-01
   C  0.195261379E+01 -0.100155537E-01  0.978079045E-02
   H -0.113725414E+02 -0.289910908E+00  0.727976703E+00
   H  0.111232501E+02  0.774067773E+00 -0.772547613E+00
     4
 # iter = 34000  time[fs]=34.00000
   C -0.203229438E+01  0.628343806E-01 -0.718599130E-01
   C  0.202145364E+01 -0.121145625E-01  0.115453249E-01
   H -0.117492469E+02 -0.300903587E+00  0.753605013E+00
   H  0.114853863E+02  0.798627723E+00 -0.798380247E+00
     4
 # iter = 34500  time[fs]=34.50000
   C -0.210374631E+01  0.644489634E-01 -0.739067319E-01
   C  0.209104752E+01 -0.142328359E-01  0.133297719E-01
   H -0.121271974E+02 -0.311937565E+00  0.779326730E+00
   H  0.118487626E+02  0.823278153E+00 -0.824304243E+00
     4
 # iter = 35000  time[fs]=35.00000
   C -0.217590179E+01  0.660779210E-01 -0.759725027E-01
   C  0.216134526E+01 -0.163693406E-01  0.151330220E-01
   H -0.125063170E+02 -0.323010418E+00  0.805136320E+00
   H  0.122133044E+02  0.848013736E+00 -0.850314325E+00
     4
 # iter = 35500  time[fs]=35.50000
   C -0.224871509E+01  0.677205114E-01 -0.780561773E-01
   C  0.223230106E+01 -0.185231129E-01  0.169540456E-01
   H -0.128865366E+02 -0.334119927E+00  0.831028720E+00
   H  0.125789434E+02  0.872829592E+00 -0.876405654E+00
     4
 # iter = 36000  time[fs]=36.00000
   C -0.232214444E+01  0.693760395E-01 -0.801567839E-01
   C  0.230387308E+01 -0.206932543E-01  0.187918869E-01
   H -0.132677929E+02 -0.345264054E+00  0.856999287E+00
   H  0.129456170E+02  0.897721244E+00 -0.902573780E+00
     4
 # iter = 36500  time[fs]=36.50000
   C -0.239615159E+01  0.710438541E-01 -0.822734203E-01
   C  0.237602301E+01 -0.228789266E-01  0.206456580E-01
   H -0.136500277E+02 -0.356440926E+00  0.883043751E+00
   H  0.133132677E+02  0.922684573E+00 -0.928814602E+00
     4
 # iter = 37000  time[fs]=37.00000
   C -0.247070145E+01  0.727233456E-01 -0.844052486E-01
   C  0.244871573E+01 -0.250793476E-01  0.225145331E-01
   H -0.140331876E+02 -0.367648815E+00  0.909158182E+00
   H  0.136818427E+02  0.947715782E+00 -0.955124335E+00
     4
 # iter = 37500  time[fs]=37.50000
   C -0.254576182E+01  0.744139426E-01 -0.865514895E-01
   C  0.252191899E+01 -0.272937867E-01  0.243977435E-01
   H -0.144172231E+02 -0.378886127E+00  0.935338947E+00
   H  0.140512929E+02  0.972811363E+00 -0.981499477E+00
     4
 # iter = 38000  time[fs]=38.00000
   C -0.262130306E+01  0.761151100E-01 -0.887114175E-01
   C  0.259560311E+01 -0.295215613E-01  0.262945733E-01
   H -0.148020889E+02 -0.390151383E+00  0.961582689E+00
   H  0.144215733E+02  0.997968070E+00 -0.100793678E+01
     4
 # iter = 38500  time[fs]=38.50000
   C -0.269729786E+01  0.778263462E-01 -0.908843569E-01
   C  0.266974078E+01 -0.317620332E-01  0.282043548E-01
   H -0.151877426E+02 -0.401443215E+00  0.987886294E+00
   H  0.147926420E+02  0.102318289E+01 -0.103443323E+01
     4
 # iter = 39000  time[fs]=39.00000
   C -0.277372103E+01  0.795471811E-01 -0.930696771E-01
   C  0.274430676E+01 -0.340146051E-01  0.301264649E-01
   H -0.155741454E+02 -0.412760349E+00  0.101424687E+01
   H  0.151644602E+02  0.104845304E+01 -0.106098603E+01
     4
 # iter = 39500  time[fs]=39.50000
   C -0.285054927E+01  0.812771732E-01 -0.952667895E-01
   C  0.281927776E+01 -0.362787176E-01  0.320603213E-01
   H -0.159612607E+02 -0.424101602E+00  0.104066174E+01
   H  0.155369919E+02  0.107377590E+01 -0.108759257E+01
     4
 # iter = 40000  time[fs]=40.00000
   C -0.292776102E+01  0.830159085E-01 -0.974751439E-01
   C  0.289463218E+01 -0.385538464E-01  0.340053794E-01
   H -0.163490550E+02 -0.435465871E+00  0.106712838E+01
   H  0.159102034E+02  0.109914906E+01 -0.111425040E+01
     4
 # iter = 40500  time[fs]=40.50000
   C -0.300533631E+01  0.847629977E-01 -0.996942254E-01
   C  0.297035004E+01 -0.408394997E-01  0.359611295E-01
   H -0.167374967E+02 -0.446852125E+00  0.109364447E+01
   H  0.162840634E+02  0.112457024E+01 -0.114095725E+01
     4
 # iter = 41000  time[fs]=41.00000
   C -0.308325657E+01  0.865180752E-01 -0.101923552E+00
   C  0.304641278E+01 -0.431352157E-01  0.379270937E-01
   H -0.171265564E+02 -0.458259400E+00  0.112020781E+01
   H  0.166585428E+02  0.115003735E+01 -0.116771099E+01
     4
 # iter = 41500  time[fs]=41.50000
   C -0.316150457E+01  0.882807969E-01 -0.104162671E+00
   C  0.312280314E+01 -0.454405605E-01  0.399028238E-01
   H -0.175162067E+02 -0.469686795E+00  0.114681637E+01
   H  0.170336142E+02  0.117554838E+01 -0.119450963E+01
     4
 # iter = 42000  time[fs]=42.00000
   C -0.324006424E+01  0.900508389E-01 -0.106411158E+00
   C  0.319950505E+01 -0.477551258E-01  0.418878989E-01
   H -0.179064220E+02 -0.481133464E+00  0.117346824E+01
   H  0.174092519E+02  0.120110150E+01 -0.122135128E+01
     4
 # iter = 42500  time[fs]=42.50000
   C -0.331892063E+01  0.918278960E-01 -0.108668615E+00
   C  0.327650355E+01 -0.500785276E-01  0.438819234E-01
   H -0.182971781E+02 -0.492598614E+00  0.120016160E+01
   H  0.177854320E+02  0.122669495E+01 -0.124823420E+01
     4
 # iter = 43000  time[fs]=43.00000
   C -0.339805977E+01  0.936116805E-01 -0.110934666E+00
   C  0.335378467E+01 -0.524104037E-01  0.458845251E-01
   H -0.186884525E+02 -0.504081497E+00  0.122689478E+01
   H  0.181621319E+02  0.125232709E+01 -0.127515673E+01
     4
 # iter = 43500  time[fs]=43.50000
   C -0.347746860E+01  0.954019211E-01 -0.113208959E+00
   C  0.343133535E+01 -0.547504128E-01  0.478953534E-01
   H -0.190802240E+02 -0.515581412E+00  0.125366619E+01
   H  0.185393305E+02  0.127799640E+01 -0.130211730E+01
     4
 # iter = 44000  time[fs]=44.00000
   C -0.355713491E+01  0.971983612E-01 -0.115491160E+00
   C  0.350914337E+01 -0.570982328E-01  0.499140779E-01
   H -0.194724725E+02 -0.527097697E+00  0.128047432E+01
   H  0.189170078E+02  0.130370140E+01 -0.132911445E+01
     4
 # iter = 44500  time[fs]=44.50000
   C -0.363704726E+01  0.990007588E-01 -0.117780957E+00
   C  0.358719730E+01 -0.594535592E-01  0.519403869E-01
   H -0.198651793E+02 -0.538629728E+00  0.130731777E+01
   H  0.192951450E+02  0.132944075E+01 -0.135614680E+01
     4
 # iter = 45000  time[fs]=45.00000
   C -0.371719493E+01  0.100808885E+00 -0.120078052E+00
   C  0.366548640E+01 -0.618161046E-01  0.539739859E-01
   H -0.202583266E+02 -0.550176915E+00  0.133419521E+01
   H  0.196737245E+02  0.135521313E+01 -0.138321302E+01
     4
 # iter = 45500  time[fs]=45.50000
   C -0.379756784E+01  0.102622522E+00 -0.122382166E+00
   C  0.374400060E+01 -0.641855965E-01  0.560145967E-01
   H -0.206518978E+02 -0.561738701E+00  0.136110537E+01
   H  0.200527295E+02  0.138101734E+01 -0.141031188E+01
     4
 # iter = 46000  time[fs]=46.00000
   C -0.387815652E+01  0.104441466E+00 -0.124693035E+00
   C  0.382273043E+01 -0.665617774E-01  0.580619560E-01
   H -0.210458769E+02 -0.573314559E+00  0.138804707E+01
   H  0.204321441E+02  0.140685221E+01 -0.143744221E+01
     4
 # iter = 46500  time[fs]=46.50000
   C -0.395895208E+01  0.106265521E+00 -0.127010407E+00
   C  0.390166699E+01 -0.689444029E-01  0.601158147E-01
   H -0.214402491E+02 -0.584903988E+00  0.141501918E+01
   H  0.208119535E+02  0.143271664E+01 -0.146460290E+01
     4
 # iter = 47000  time[fs]=47.00000
   C -0.403994610E+01  0.108094503E+00 -0.129334046E+00
   C  0.398080189E+01 -0.713332414E-01  0.621759365E-01
   H -0.218350001E+02 -0.596506517E+00  0.144202063E+01
   H  0.211921435E+02  0.145860961E+01 -0.149179289E+01
     4
 # iter = 47500  time[fs]=47.50000
   C -0.412113069E+01  0.109928237E+00 -0.131663726E+00
   C  0.406012721E+01 -0.737280731E-01  0.642420976E-01
   H -0.222301166E+02 -0.608121694E+00  0.146905040E+01
   H  0.215727005E+02  0.148453013E+01 -0.151901117E+01
     4
 # iter = 48000  time[fs]=48.00000
   C -0.420249839E+01  0.111766556E+00 -0.133999234E+00
   C  0.413963549E+01 -0.761286891E-01  0.663140852E-01
   H -0.226255858E+02 -0.619749094E+00  0.149610754E+01
   H  0.219536120E+02  0.151047726E+01 -0.154625681E+01
     4
 # iter = 48500  time[fs]=48.50000
   C -0.428404213E+01  0.113609302E+00 -0.136340367E+00
   C  0.421931968E+01 -0.785348910E-01  0.683916976E-01
   H -0.230213957E+02 -0.631388310E+00  0.152319112E+01
   H  0.223348658E+02  0.153645011E+01 -0.157352889E+01
     4
 # iter = 49000  time[fs]=49.00000
   C -0.436575525E+01  0.115456324E+00 -0.138686932E+00
   C  0.429917312E+01 -0.809464899E-01  0.704747428E-01
   H -0.234175348E+02 -0.643038957E+00  0.155030029E+01
   H  0.227164504E+02  0.156244784E+01 -0.160082655E+01
     4
 # iter = 49500  time[fs]=49.50000
   C -0.444763145E+01  0.117307480E+00 -0.141038747E+00
   C  0.437918950E+01 -0.833633062E-01  0.725630384E-01
   H -0.238139921E+02 -0.654700668E+00  0.157743420E+01
   H  0.230983548E+02  0.158846965E+01 -0.162814898E+01
     4
 # iter = 50000  time[fs]=50.00000
   C -0.452966474E+01  0.119162632E+00 -0.143395637E+00
   C  0.445936283E+01 -0.857851687E-01  0.746564104E-01
   H -0.242107573E+02 -0.666373091E+00  0.160459208E+01
   H  0.234805688E+02  0.161451476E+01 -0.165549538E+01
     4
 # iter = 50500  time[fs]=50.50000
   C -0.461184946E+01  0.121021651E+00 -0.145757435E+00
   C  0.453968747E+01 -0.882119142E-01  0.767546935E-01
   H -0.246078204E+02 -0.678055893E+00  0.163177317E+01
   H  0.238630822E+02  0.164058244E+01 -0.168286503E+01
     4
 # iter = 51000  time[fs]=51.00000
   C -0.469418024E+01  0.122884412E+00 -0.148123985E+00
   C  0.462015804E+01 -0.906433872E-01  0.788577297E-01
   H -0.250051721E+02 -0.689748755E+00  0.165897675E+01
   H  0.242458858E+02  0.166667201E+01 -0.171025720E+01
     4
 # iter = 51500  time[fs]=51.50000
   C -0.477665197E+01  0.124750798E+00 -0.150495133E+00
   C  0.470076943E+01 -0.930794391E-01  0.809653687E-01
   H -0.254028033E+02 -0.701451373E+00  0.168620214E+01
   H  0.246289705E+02  0.169278279E+01 -0.173767121E+01
     4
 # iter = 52000  time[fs]=52.00000
   C -0.485925981E+01  0.126620695E+00 -0.152870737E+00
   C  0.478151680E+01 -0.955199281E-01  0.830774668E-01
   H -0.258007055E+02 -0.713163457E+00  0.171344868E+01
   H  0.250123276E+02  0.171891414E+01 -0.176510642E+01
     4
 # iter = 52500  time[fs]=52.50000
   C -0.494199914E+01  0.128493994E+00 -0.155250660E+00
   C  0.486239554E+01 -0.979647187E-01  0.851938866E-01
   H -0.261988705E+02 -0.724884727E+00  0.174071575E+01
   H  0.253959490E+02  0.174506547E+01 -0.179256220E+01
     4
 # iter = 53000  time[fs]=53.00000
   C -0.502486558E+01  0.130370594E+00 -0.157634768E+00
   C  0.494340127E+01 -0.100413681E+00  0.873144972E-01
   H -0.265972904E+02 -0.736614918E+00  0.176800275E+01
   H  0.257798268E+02  0.177123618E+01 -0.182003796E+01
     4
 # iter = 53500  time[fs]=53.50000
   C -0.510785494E+01  0.132250395E+00 -0.160022938E+00
   C  0.502452980E+01 -0.102866692E+00  0.894391731E-01
   H -0.269959577E+02 -0.748353776E+00  0.179530910E+01
   H  0.261639534E+02  0.179742572E+01 -0.184753314E+01
     4
 # iter = 54000  time[fs]=54.00000
   C -0.519096325E+01  0.134133302E+00 -0.162415048E+00
   C  0.510577715E+01 -0.105323632E+00  0.915677944E-01
   H -0.273948653E+02 -0.760101055E+00  0.182263427E+01
   H  0.265483217E+02  0.182363356E+01 -0.187504717E+01
     4
 # iter = 54500  time[fs]=54.50000
   C -0.527418671E+01  0.136019225E+00 -0.164810984E+00
   C  0.518713954E+01 -0.107784388E+00  0.937002461E-01
   H -0.277940062E+02 -0.771856523E+00  0.184997771E+01
   H  0.269329248E+02  0.184985919E+01 -0.190257955E+01
     4
 # iter = 55000  time[fs]=55.00000
   C -0.535752168E+01  0.137908078E+00 -0.167210635E+00
   C  0.526861334E+01 -0.110248851E+00  0.958364183E-01
   H -0.281933740E+02 -0.783619954E+00  0.187733894E+01
   H  0.273177561E+02  0.187610211E+01 -0.193012977E+01
     4
 # iter = 55500  time[fs]=55.50000
   C -0.544096472E+01  0.139799776E+00 -0.169613896E+00
   C  0.535019508E+01 -0.112716916E+00  0.979762054E-01
   H -0.285929623E+02 -0.795391134E+00  0.190471746E+01
   H  0.277028092E+02  0.190236185E+01 -0.195769735E+01
     4
 # iter = 56000  time[fs]=56.00000
   C -0.552451252E+01  0.141694241E+00 -0.172020665E+00
   C  0.543188147E+01 -0.115188483E+00  0.100119506E+00
   H -0.289927650E+02 -0.807169855E+00  0.193211281E+01
   H  0.280880780E+02  0.192863797E+01 -0.198528182E+01
     4
 # iter = 56500  time[fs]=56.50000
   C -0.560816190E+01  0.143591395E+00 -0.174430846E+00
   C  0.551366935E+01 -0.117663457E+00  0.102266224E+00
   H -0.293927763E+02 -0.818955919E+00  0.195952454E+01
   H  0.284735568E+02  0.195493003E+01 -0.201288274E+01
     4
 # iter = 57000  time[fs]=57.00000
   C -0.569190986E+01  0.145491166E+00 -0.176844344E+00
   C  0.559555569E+01 -0.120141744E+00  0.104416265E+00
   H -0.297929907E+02 -0.830749135E+00  0.198695223E+01
   H  0.288592399E+02  0.198123761E+01 -0.204049969E+01
     4
 # iter = 57500  time[fs]=57.50000
   C -0.577575349E+01  0.147393482E+00 -0.179261071E+00
   C  0.567753759E+01 -0.122623256E+00  0.106569541E+00
   H -0.301934028E+02 -0.842549319E+00  0.201439546E+01
   H  0.292451220E+02  0.200756031E+01 -0.206813225E+01
     4
 # iter = 58000  time[fs]=58.00000
   C -0.585969002E+01  0.149298276E+00 -0.181680940E+00
   C  0.575961230E+01 -0.125107908E+00  0.108725965E+00
   H -0.305940074E+02 -0.854356295E+00  0.204185384E+01
   H  0.296311979E+02  0.203389774E+01 -0.209578002E+01
     4
 # iter = 58500  time[fs]=58.50000
   C -0.594371680E+01  0.151205482E+00 -0.184103868E+00
   C  0.584177715E+01 -0.127595618E+00  0.110885454E+00
   H -0.309947996E+02 -0.866169892E+00  0.206932698E+01
   H  0.300174625E+02  0.206024954E+01 -0.212344264E+01
     4
 # iter = 59000  time[fs]=59.00000
   C -0.602783127E+01  0.153115038E+00 -0.186529776E+00
   C  0.592402960E+01 -0.130086306E+00  0.113047929E+00
   H -0.313957746E+02 -0.877989946E+00  0.209681452E+01
   H  0.304039111E+02  0.208661535E+01 -0.215111972E+01
     4
 # iter = 59500  time[fs]=59.50000
   C -0.611203099E+01  0.155026884E+00 -0.188958588E+00
   C  0.600636720E+01 -0.132579897E+00  0.115213313E+00
   H -0.317969279E+02 -0.889816300E+00  0.212431610E+01
   H  0.307905391E+02  0.211299482E+01 -0.217881091E+01
     4
 # iter = 60000  time[fs]=60.00000
   C -0.619631362E+01  0.156940960E+00 -0.191390230E+00
   C  0.608878762E+01 -0.135076318E+00  0.117381533E+00
   H -0.321982549E+02 -0.901648801E+00  0.215183139E+01
   H  0.311773421E+02  0.213938762E+01 -0.220651589E+01
     4
 # iter = 60500  time[fs]=60.50000
   C -0.628067691E+01  0.158857212E+00 -0.193824630E+00
   C  0.617128859E+01 -0.137575498E+00  0.119552519E+00
   H -0.325997515E+02 -0.913487303E+00  0.217936005E+01
   H  0.315643157E+02  0.216579343E+01 -0.223423430E+01
     4
 # iter = 61000  time[fs]=61.00000
   C -0.636511869E+01  0.160775585E+00 -0.196261721E+00
   C  0.625386797E+01 -0.140077370E+00  0.121726200E+00
   H -0.330014135E+02 -0.925331664E+00  0.220690176E+01
   H  0.319514559E+02  0.219221194E+01 -0.226196585E+01
     4
 # iter = 61500  time[fs]=61.50000
   C -0.644963687E+01  0.162696026E+00 -0.198701435E+00
   C  0.633652366E+01 -0.142581867E+00  0.123902512E+00
   H -0.334032370E+02 -0.937181747E+00  0.223445623E+01
   H  0.323387586E+02  0.221864286E+01 -0.228971022E+01
     4
 # iter = 62000  time[fs]=62.00000
   C -0.653422946E+01  0.164618487E+00 -0.201143711E+00
   C  0.641925367E+01 -0.145088927E+00  0.126081391E+00
   H -0.338052181E+02 -0.949037421E+00  0.226202314E+01
   H  0.327262200E+02  0.224508589E+01 -0.231746712E+01
     4
 # iter = 62500  time[fs]=62.50000
   C -0.661889454E+01  0.166542918E+00 -0.203588486E+00
   C  0.650205608E+01 -0.147598489E+00  0.128262776E+00
   H -0.342073532E+02 -0.960898558E+00  0.228960223E+01
   H  0.331138364E+02  0.227154076E+01 -0.234523627E+01
     4
 # iter = 63000  time[fs]=63.00000
   C -0.670363025E+01  0.168469273E+00 -0.206035702E+00
   C  0.658492903E+01 -0.150110494E+00  0.130446607E+00
   H -0.346096387E+02 -0.972765034E+00  0.231719321E+01
   H  0.335016043E+02  0.229800720E+01 -0.237301737E+01
     4
 # iter = 63500  time[fs]=63.50000
   C -0.678843480E+01  0.170397506E+00 -0.208485300E+00
   C  0.666787075E+01 -0.152624884E+00  0.132632827E+00
   H -0.350120712E+02 -0.984636731E+00  0.234479581E+01
   H  0.338895201E+02  0.232448495E+01 -0.240081018E+01
     4
 # iter = 64000  time[fs]=64.00000
   C -0.687330648E+01  0.172327574E+00 -0.210937227E+00
   C  0.675087951E+01 -0.155141606E+00  0.134821382E+00
   H -0.354146472E+02 -0.996513533E+00  0.237240978E+01
   H  0.342775805E+02  0.235097376E+01 -0.242861443E+01
     4
 # iter = 64500  time[fs]=64.50000
   C -0.695824363E+01  0.174259435E+00 -0.213391428E+00
   C  0.683395366E+01 -0.157660606E+00  0.137012217E+00
   H -0.358173637E+02 -0.100839533E+01  0.240003487E+01
   H  0.346657824E+02  0.237747338E+01 -0.245642987E+01
     4
 # iter = 65000  time[fs]=65.00000
   C -0.704324465E+01  0.176193048E+00 -0.215847853E+00
   C  0.691709160E+01 -0.160181832E+00  0.139205282E+00
   H -0.362202175E+02 -0.102028201E+01  0.242767084E+01
   H  0.350541224E+02  0.240398359E+01 -0.248425626E+01
     4
 # iter = 65500  time[fs]=65.50000
   C -0.712830800E+01  0.178128374E+00 -0.218306450E+00
   C  0.700029180E+01 -0.162705236E+00  0.141400525E+00
   H -0.366232057E+02 -0.103217348E+01  0.245531745E+01
   H  0.354425978E+02  0.243050415E+01 -0.251209336E+01
     4
 # iter = 66000  time[fs]=66.00000
   C -0.721343220E+01  0.180065375E+00 -0.220767173E+00
   C  0.708355276E+01 -0.165230769E+00  0.143597900E+00
   H -0.370263252E+02 -0.104406962E+01  0.248297448E+01
   H  0.358312054E+02  0.245703485E+01 -0.253994096E+01
     4
 # iter = 66500  time[fs]=66.50000
   C -0.729861580E+01  0.182004013E+00 -0.223229974E+00
   C  0.716687305E+01 -0.167758384E+00  0.145797360E+00
   H -0.374295732E+02 -0.105597035E+01  0.251064171E+01
   H  0.362199425E+02  0.248357547E+01 -0.256779883E+01
     4
 # iter = 67000  time[fs]=67.00000
   C -0.738385742E+01  0.183944254E+00 -0.225694809E+00
   C  0.725025129E+01 -0.170288037E+00  0.147998858E+00
   H -0.378329472E+02 -0.106787556E+01  0.253831892E+01
   H  0.366088064E+02  0.251012580E+01 -0.259566675E+01
     4
 # iter = 67500  time[fs]=67.50000
   C -0.746915573E+01  0.185886062E+00 -0.228161633E+00
   C  0.733368614E+01 -0.172819685E+00  0.150202353E+00
   H -0.382364443E+02 -0.107978518E+01  0.256600591E+01
   H  0.369977943E+02  0.253668564E+01 -0.262354452E+01
     4
 # iter = 68000  time[fs]=68.00000
   C -0.755450942E+01  0.187829404E+00 -0.230630404E+00
   C  0.741717630E+01 -0.175353284E+00  0.152407800E+00
   H -0.386400621E+02 -0.109169909E+01  0.259370248E+01
   H  0.373869037E+02  0.256325481E+01 -0.265143195E+01
     4
 # iter = 68500  time[fs]=68.50000
   C -0.763991725E+01  0.189774248E+00 -0.233101082E+00
   C  0.750072053E+01 -0.177888794E+00  0.154615160E+00
   H -0.390437980E+02 -0.110361723E+01  0.262140844E+01
   H  0.377761321E+02  0.258983311E+01 -0.267932883E+01
     4
 # iter = 69000  time[fs]=69.00000
   C -0.772537800E+01  0.191720562E+00 -0.235573626E+00
   C  0.758431762E+01 -0.180426176E+00  0.156824391E+00
   H -0.394476497E+02 -0.111553950E+01  0.264912360E+01
   H  0.381654771E+02  0.261642036E+01 -0.270723498E+01
     4
 # iter = 69500  time[fs]=69.50000
   C -0.781089050E+01  0.193668316E+00 -0.238047998E+00
   C  0.766796639E+01 -0.182965390E+00  0.159035457E+00
   H -0.398516147E+02 -0.112746583E+01  0.267684777E+01
   H  0.385549363E+02  0.264301637E+01 -0.273515022E+01
     4
 # iter = 70000  time[fs]=70.00000
   C -0.789645363E+01  0.195617481E+00 -0.240524161E+00
   C  0.775166571E+01 -0.185506401E+00  0.161248319E+00
   H -0.402556910E+02 -0.113939614E+01  0.270458079E+01
   H  0.389445075E+02  0.266962099E+01 -0.276307436E+01
     4
 # iter = 70500  time[fs]=70.50000
   C -0.798206627E+01  0.197568027E+00 -0.243002078E+00
   C  0.783541449E+01 -0.188049171E+00  0.163462941E+00
   H -0.406598762E+02 -0.115133034E+01  0.273232247E+01
   H  0.393341884E+02  0.269623404E+01 -0.279100725E+01
     4
 # iter = 71000  time[fs]=71.00000
   C -0.806772738E+01  0.199519927E+00 -0.245481715E+00
   C  0.791921166E+01 -0.190593665E+00  0.165679288E+00
   H -0.410641681E+02 -0.116326836E+01  0.276007265E+01
   H  0.397239769E+02  0.272285536E+01 -0.281894870E+01
     4
 # iter = 71500  time[fs]=71.50000
   C -0.815343591E+01  0.201473154E+00 -0.247963036E+00
   C  0.800305620E+01 -0.193139850E+00  0.167897325E+00
   H -0.414685649E+02 -0.117521014E+01  0.278783118E+01
   H  0.401138709E+02  0.274948480E+01 -0.284689856E+01
     4
 # iter = 72000  time[fs]=72.00000
   C -0.823919088E+01  0.203427682E+00 -0.250446009E+00
   C  0.808694711E+01 -0.195687692E+00  0.170117020E+00
   H -0.418730643E+02 -0.118715560E+01  0.281559788E+01
   H  0.405038683E+02  0.277612219E+01 -0.287485666E+01
     4
 # iter = 72500  time[fs]=72.50000
   C -0.832499131E+01  0.205383485E+00 -0.252930603E+00
   C  0.817088343E+01 -0.198237159E+00  0.172338340E+00
   H -0.422776646E+02 -0.119910467E+01  0.284337262E+01
   H  0.408939673E+02  0.280276739E+01 -0.290282287E+01
     4
 # iter = 73000  time[fs]=73.00000
   C -0.841083627E+01  0.207340539E+00 -0.255416784E+00
   C  0.825486421E+01 -0.200788219E+00  0.174561254E+00
   H -0.426823637E+02 -0.121105729E+01  0.287115524E+01
   H  0.412841658E+02  0.282942026E+01 -0.293079701E+01
     4
 # iter = 73500  time[fs]=73.50000
   C -0.849672485E+01  0.209298819E+00 -0.257904524E+00
   C  0.833888855E+01 -0.203340844E+00  0.176785732E+00
   H -0.430871598E+02 -0.122301338E+01  0.289894559E+01
   H  0.416744621E+02  0.285608065E+01 -0.295877896E+01
     4
 # iter = 74000  time[fs]=74.00000
   C -0.858265616E+01  0.211258303E+00 -0.260393792E+00
   C  0.842295557E+01 -0.205895002E+00  0.179011743E+00
   H -0.434920511E+02 -0.123497290E+01  0.292674353E+01
   H  0.420648543E+02  0.288274843E+01 -0.298676857E+01
     4
 # iter = 74500  time[fs]=74.50000
   C -0.866862935E+01  0.213218967E+00 -0.262884560E+00
   C  0.850706441E+01 -0.208450666E+00  0.181239260E+00
   H -0.438970359E+02 -0.124693577E+01  0.295454893E+01
   H  0.424553406E+02  0.290942347E+01 -0.301476569E+01
     4
 # iter = 75000  time[fs]=75.00000
   C -0.875464359E+01  0.215180789E+00 -0.265376800E+00
   C  0.859121424E+01 -0.211007808E+00  0.183468254E+00
   H -0.443021125E+02 -0.125890194E+01  0.298236166E+01
   H  0.428459194E+02  0.293610563E+01 -0.304277021E+01
     4
 # iter = 75500  time[fs]=75.50000
   C -0.884069807E+01  0.217143749E+00 -0.267870485E+00
   C  0.867540425E+01 -0.213566399E+00  0.185698698E+00
   H -0.447072792E+02 -0.127087134E+01  0.301018158E+01
   H  0.432365890E+02  0.296279478E+01 -0.307078198E+01
     4
 # iter = 76000  time[fs]=76.00000
   C -0.892679200E+01  0.219107824E+00 -0.270365588E+00
   C  0.875963367E+01 -0.216126415E+00  0.187930565E+00
   H -0.451125343E+02 -0.128284393E+01  0.303800857E+01
   H  0.436273477E+02  0.298949081E+01 -0.309880088E+01
     4
 # iter = 76500  time[fs]=76.50000
   C -0.901292463E+01  0.221072996E+00 -0.272862084E+00
   C  0.884390172E+01 -0.218687829E+00  0.190163831E+00
   H -0.455178765E+02 -0.129481964E+01  0.306584250E+01
   H  0.440181940E+02  0.301619360E+01 -0.312682678E+01
     4
 # iter = 77000  time[fs]=77.00000
   C -0.909909521E+01  0.223039244E+00 -0.275359948E+00
   C  0.892820768E+01 -0.221250616E+00  0.192398468E+00
   H -0.459233040E+02 -0.130679843E+01  0.309368326E+01
   H  0.444091263E+02  0.304290302E+01 -0.315485957E+01
     4
 # iter = 77500  time[fs]=77.50000
   C -0.918530303E+01  0.225006548E+00 -0.277859155E+00
   C  0.901255082E+01 -0.223814752E+00  0.194634455E+00
   H -0.463288154E+02 -0.131878024E+01  0.312153072E+01
   H  0.448001432E+02  0.306961897E+01 -0.318289913E+01
     4
 # iter = 78000  time[fs]=78.00000
   C -0.927154738E+01  0.226974891E+00 -0.280359681E+00
   C  0.909693045E+01 -0.226380213E+00  0.196871766E+00
   H -0.467344093E+02 -0.133076501E+01  0.314938478E+01
   H  0.451912432E+02  0.309634133E+01 -0.321094534E+01
     4
 # iter = 78500  time[fs]=78.50000
   C -0.935782759E+01  0.228944253E+00 -0.282861504E+00
   C  0.918134588E+01 -0.228946976E+00  0.199110378E+00
   H -0.471400843E+02 -0.134275271E+01  0.317724532E+01
   H  0.455824248E+02  0.312307000E+01 -0.323899809E+01
     4
 # iter = 79000  time[fs]=79.00000
   C -0.944414299E+01  0.230914618E+00 -0.285364601E+00
   C  0.926579645E+01 -0.231515018E+00  0.201350269E+00
   H -0.475458390E+02 -0.135474328E+01  0.320511223E+01
   H  0.459736867E+02  0.314980487E+01 -0.326705728E+01
     4
 # iter = 79500  time[fs]=79.50000
   C -0.953049294E+01  0.232885967E+00 -0.287868950E+00
   C  0.935028152E+01 -0.234084318E+00  0.203591417E+00
   H -0.479516719E+02 -0.136673667E+01  0.323298542E+01
   H  0.463650275E+02  0.317654583E+01 -0.329512279E+01
     4
 # iter = 80000  time[fs]=80.00000
   C -0.961687681E+01  0.234858284E+00 -0.290374530E+00
   C  0.943480046E+01 -0.236654854E+00  0.205833800E+00
   H -0.483575819E+02 -0.137873284E+01  0.326086477E+01
   H  0.467564459E+02  0.320329279E+01 -0.332319452E+01
