     4
 # iter = 25000  time[fs]=25.00000
   C -0.999016069E+00  0.505495765E-01  0.164496710E-01
   C  0.995444865E+00 -0.416457870E-01 -0.337241375E-01
   H -0.525140222E+01 -0.431879534E+00  0.482955219E-01
   H  0.541957987E+01 -0.209113785E+00 -0.291855232E+00
     4
 # iter = 25500  time[fs]=25.50000
   C -0.104557386E+01  0.538767584E-01  0.173817788E-01
   C  0.103933905E+01 -0.414883402E-01 -0.333315382E-01
   H -0.558745660E+01 -0.459905013E+00  0.516549671E-01
   H  0.573761771E+01 -0.218520356E+00 -0.309049943E+00
     4
 # iter = 26000  time[fs]=26.00000
   C -0.109469605E+01  0.573428025E-01  0.183801132E-01
   C  0.108580787E+01 -0.414426067E-01 -0.329963804E-01
   H -0.592622079E+01 -0.488172892E+00  0.550455921E-01
   H  0.605824249E+01 -0.228010314E+00 -0.326381254E+00
     4
 # iter = 26500  time[fs]=26.50000
   C -0.114616643E+01  0.609342062E-01  0.194371479E-01
   C  0.113463239E+01 -0.414981496E-01 -0.327120007E-01
   H -0.626738913E+01 -0.516655641E+00  0.584638088E-01
   H  0.638118138E+01 -0.237574402E+00 -0.343835222E+00
     4
 # iter = 27000  time[fs]=27.00000
   C -0.119978566E+01  0.646389503E-01  0.205462915E-01
   C  0.118561118E+01 -0.416455244E-01 -0.324725506E-01
   H -0.661070396E+01 -0.545330193E+00  0.619065900E-01
   H  0.670620164E+01 -0.247204787E+00 -0.361399908E+00
     4
 # iter = 27500  time[fs]=27.50000
   C -0.125537129E+01  0.684463488E-01  0.217017865E-01
   C  0.123856020E+01 -0.418762288E-01 -0.322729162E-01
   H -0.695594619E+01 -0.574177024E+00  0.653713628E-01
   H  0.703310332E+01 -0.256894791E+00 -0.379065013E+00
     4
 # iter = 28000  time[fs]=28.00000
   C -0.131275717E+01  0.723469062E-01  0.228986090E-01
   C  0.129331209E+01 -0.421826352E-01 -0.321086354E-01
   H -0.730292811E+01 -0.603179458E+00  0.688559248E-01
   H  0.736171341E+01 -0.266638675E+00 -0.396821594E+00
     4
 # iter = 28500  time[fs]=28.50000
   C -0.137179263E+01  0.763321840E-01  0.241323768E-01
   C  0.134971520E+01 -0.425579149E-01 -0.319758186E-01
   H -0.765148770E+01 -0.632323138E+00  0.723583785E-01
   H  0.769188132E+01 -0.276431477E+00 -0.414661843E+00
     4
 # iter = 29000  time[fs]=29.00000
   C -0.143234131E+01  0.803946786E-01  0.253992642E-01
   C  0.140763245E+01 -0.429959621E-01 -0.318710748E-01
   H -0.800148422E+01 -0.661595614E+00  0.758770789E-01
   H  0.802347519E+01 -0.286268876E+00 -0.432578897E+00
     4
 # iter = 29500  time[fs]=29.50000
   C -0.149428002E+01  0.845277115E-01  0.266959277E-01
   C  0.146694006E+01 -0.434913190E-01 -0.317914458E-01
   H -0.835279468E+01 -0.690986018E+00  0.794105918E-01
   H  0.835637895E+01 -0.296147091E+00 -0.450566700E+00
     4
 # iter = 30000  time[fs]=30.00000
   C -0.155749751E+01  0.887253298E-01  0.280194397E-01
   C  0.152752635E+01 -0.440391054E-01 -0.317343470E-01
   H -0.870531101E+01 -0.720484805E+00  0.829576602E-01
   H  0.869048994E+01 -0.306062793E+00 -0.468619877E+00
     4
 # iter = 30500  time[fs]=30.50000
   C -0.162189337E+01  0.929822193E-01  0.293672316E-01
   C  0.158929054E+01 -0.446349548E-01 -0.316975167E-01
   H -0.905893777E+01 -0.750083547E+00  0.865171766E-01
   H  0.902571693E+01 -0.316013038E+00 -0.486733641E+00
     4
 # iter = 31000  time[fs]=31.00000
   C -0.168737691E+01  0.972936273E-01  0.307370444E-01
   C  0.165214167E+01 -0.452749556E-01 -0.316789712E-01
   H -0.941359027E+01 -0.779774766E+00  0.900881611E-01
   H  0.936197851E+01 -0.325995212E+00 -0.504903705E+00
     4
 # iter = 31500  time[fs]=31.50000
   C -0.175386615E+01  0.101655295E+00  0.321268864E-01
   C  0.171599755E+01 -0.459555990E-01 -0.316769669E-01
   H -0.976919303E+01 -0.809551793E+00  0.936697425E-01
   H  0.969920175E+01 -0.336006981E+00 -0.523126221E+00
     4
 # iter = 32000  time[fs]=32.00000
   C -0.182128694E+01  0.106063398E+00  0.335349967E-01
   C  0.178078386E+01 -0.466737323E-01 -0.316899674E-01
   H -0.101256785E+02 -0.839408659E+00  0.972611433E-01
   H  0.100373211E+02 -0.346046254E+00 -0.541397719E+00
     4
 # iter = 32500  time[fs]=32.50000
   C -0.188957210E+01  0.110514494E+00  0.349598147E-01
   C  0.184643332E+01 -0.474265181E-01 -0.317166156E-01
   H -0.104829860E+02 -0.869339995E+00  0.100861667E+00
   H  0.103762772E+02 -0.356111153E+00 -0.559715059E+00
     4
 # iter = 33000  time[fs]=33.00000
   C -0.195866072E+01  0.115005481E+00  0.363999529E-01
   C  0.191288490E+01 -0.482113975E-01 -0.317557092E-01
   H -0.108410608E+02 -0.899340960E+00  0.104470687E+00
   H  0.107160167E+02 -0.366199982E+00 -0.578075395E+00
     4
 # iter = 33500  time[fs]=33.50000
   C -0.202849744E+01  0.119533553E+00  0.378541750E-01
   C  0.198008317E+01 -0.490260592E-01 -0.318061807E-01
   H -0.111998535E+02 -0.929407169E+00  0.108087638E+00
   H  0.110564909E+02 -0.376311206E+00 -0.596476134E+00
     4
 # iter = 34000  time[fs]=34.00000
   C -0.209903190E+01  0.124096170E+00  0.393213759E-01
   C  0.204797775E+01 -0.498684104E-01 -0.318670795E-01
   H -0.115593191E+02 -0.959534640E+00  0.111712009E+00
   H  0.113976553E+02 -0.386443431E+00 -0.614914909E+00
     4
 # iter = 34500  time[fs]=34.50000
   C -0.217021821E+01  0.128691026E+00  0.408005653E-01
   C  0.211652269E+01 -0.507365533E-01 -0.319375572E-01
   H -0.119194168E+02 -0.989719746E+00  0.115343335E+00
   H  0.117394697E+02 -0.396595388E+00 -0.633389555E+00
     4
 # iter = 35000  time[fs]=35.00000
   C -0.224201447E+01  0.133316023E+00  0.422908534E-01
   C  0.218567608E+01 -0.516287630E-01 -0.320168542E-01
   H -0.122801094E+02 -0.101995917E+01  0.118981194E+00
   H  0.120818969E+02 -0.406765919E+00 -0.651898087E+00
     4
 # iter = 35500  time[fs]=35.50000
   C -0.231438238E+01  0.137969250E+00  0.437914388E-01
   C  0.225539961E+01 -0.525434689E-01 -0.321042891E-01
   H -0.126413627E+02 -0.105024988E+01  0.122625200E+00
   H  0.124249029E+02 -0.416953963E+00 -0.670438678E+00
     4
 # iter = 36000  time[fs]=36.00000
   C -0.238728685E+01  0.142648959E+00  0.453015976E-01
   C  0.232565819E+01 -0.534792381E-01 -0.321992490E-01
   H -0.130031454E+02 -0.108058908E+01  0.126274999E+00
   H  0.127684564E+02 -0.427158546E+00 -0.689009644E+00
     4
 # iter = 36500  time[fs]=36.50000
   C -0.246069568E+01  0.147353553E+00  0.468206747E-01
   C  0.239641964E+01 -0.544347606E-01 -0.323011812E-01
   H -0.133654288E+02 -0.111097422E+01  0.129930268E+00
   H  0.131125287E+02 -0.437378773E+00 -0.707609431E+00
     4
 # iter = 37000  time[fs]=37.00000
   C -0.253457931E+01  0.152081565E+00  0.483480755E-01
   C  0.246765438E+01 -0.554088368E-01 -0.324095863E-01
   H -0.137281864E+02 -0.114140291E+01  0.133590708E+00
   H  0.134570930E+02 -0.447613819E+00 -0.726236599E+00
     4
 # iter = 37500  time[fs]=37.50000
   C -0.260891048E+01  0.156831649E+00  0.498832592E-01
   C  0.253933520E+01 -0.564003662E-01 -0.325240118E-01
   H -0.140913937E+02 -0.117187297E+01  0.137256045E+00
   H  0.138021248E+02 -0.457862921E+00 -0.744889814E+00
     4
 # iter = 38000  time[fs]=38.00000
   C -0.268366411E+01  0.161602566E+00  0.514257330E-01
   C  0.261143700E+01 -0.574083371E-01 -0.326440469E-01
   H -0.144550280E+02 -0.120238238E+01  0.140926025E+00
   H  0.141476011E+02 -0.468125374E+00 -0.763567838E+00
     4
 # iter = 38500  time[fs]=38.50000
   C -0.275881700E+01  0.166393173E+00  0.529750465E-01
   C  0.268393664E+01 -0.584318180E-01 -0.327693181E-01
   H -0.148190684E+02 -0.123292925E+01  0.144600414E+00
   H  0.144935007E+02 -0.478400524E+00 -0.782269516E+00
     4
 # iter = 39000  time[fs]=39.00000
   C -0.283434771E+01  0.171202414E+00  0.545307877E-01
   C  0.275681268E+01 -0.594699498E-01 -0.328994845E-01
   H -0.151834954E+02 -0.126351182E+01  0.148278994E+00
   H  0.148398039E+02 -0.488687763E+00 -0.800993773E+00
     4
 # iter = 39500  time[fs]=39.50000
   C -0.291023638E+01  0.176029313E+00  0.560925785E-01
   C  0.283004530E+01 -0.605219389E-01 -0.330342351E-01
   H -0.155482909E+02 -0.129412848E+01  0.151961564E+00
   H  0.151864922E+02 -0.498986525E+00 -0.819739605E+00
     4
 # iter = 40000  time[fs]=40.00000
   C -0.298646460E+01  0.180872963E+00  0.576600716E-01
   C  0.290361610E+01 -0.615870510E-01 -0.331732849E-01
   H -0.159134379E+02 -0.132477769E+01  0.155647935E+00
   H  0.155335484E+02 -0.509296283E+00 -0.838506075E+00
     4
 # iter = 40500  time[fs]=40.50000
   C -0.306301524E+01  0.185732527E+00  0.592329470E-01
   C  0.297750798E+01 -0.626646053E-01 -0.333163728E-01
   H -0.162789207E+02 -0.135545804E+01  0.159337932E+00
   H  0.158809564E+02 -0.519616545E+00 -0.857292303E+00
     4
 # iter = 41000  time[fs]=41.00000
   C -0.313987238E+01  0.190607221E+00  0.608109099E-01
   C  0.305170507E+01 -0.637539703E-01 -0.334632588E-01
   H -0.166447245E+02 -0.138616820E+01  0.163031393E+00
   H  0.162287012E+02 -0.529946850E+00 -0.876097465E+00
     4
 # iter = 41500  time[fs]=41.50000
   C -0.321702121E+01  0.195496320E+00  0.623936875E-01
   C  0.312619254E+01 -0.648545588E-01 -0.336137220E-01
   H -0.170108356E+02 -0.141690691E+01  0.166728164E+00
   H  0.165767686E+02 -0.540286769E+00 -0.894920787E+00
     4
 # iter = 42000  time[fs]=42.00000
   C -0.329444787E+01  0.200399146E+00  0.639810276E-01
   C  0.320095661E+01 -0.659658243E-01 -0.337675591E-01
   H -0.173772411E+02 -0.144767301E+01  0.170428103E+00
   H  0.169251454E+02 -0.550635897E+00 -0.913761543E+00
     4
 # iter = 42500  time[fs]=42.50000
   C -0.337213947E+01  0.205315066E+00  0.655726963E-01
   C  0.327598438E+01 -0.670872572E-01 -0.339245818E-01
   H -0.177439287E+02 -0.147846540E+01  0.174131075E+00
   H  0.172738192E+02 -0.560993854E+00 -0.932619046E+00
     4
 # iter = 43000  time[fs]=43.00000
   C -0.345008391E+01  0.210243488E+00  0.671684766E-01
   C  0.335126380E+01 -0.682183820E-01 -0.340846166E-01
   H -0.181108871E+02 -0.150928305E+01  0.177836955E+00
   H  0.176227780E+02 -0.571360285E+00 -0.951492653E+00
     4
 # iter = 43500  time[fs]=43.50000
   C -0.352826988E+01  0.215183860E+00  0.687681665E-01
   C  0.342678358E+01 -0.693587545E-01 -0.342475022E-01
   H -0.184781056E+02 -0.154012497E+01  0.181545624E+00
   H  0.179720111E+02 -0.581734855E+00 -0.970381753E+00
     4
 # iter = 44000  time[fs]=44.00000
   C -0.360668680E+01  0.220135661E+00  0.703715780E-01
   C  0.350253314E+01 -0.705079587E-01 -0.344130894E-01
   H -0.188455740E+02 -0.157099026E+01  0.185256973E+00
   H  0.183215078E+02 -0.592117246E+00 -0.989285773E+00
     4
 # iter = 44500  time[fs]=44.50000
   C -0.368532470E+01  0.225098406E+00  0.719785357E-01
   C  0.357850258E+01 -0.716656050E-01 -0.345812394E-01
   H -0.192132828E+02 -0.160187803E+01  0.188970895E+00
   H  0.186712583E+02 -0.602507161E+00 -0.100820417E+01
     4
 # iter = 45000  time[fs]=45.00000
   C -0.376417424E+01  0.230071637E+00  0.735888760E-01
   C  0.365468256E+01 -0.728313281E-01 -0.347518231E-01
   H -0.195812229E+02 -0.163278748E+01  0.192687292E+00
   H  0.190212534E+02 -0.612904318E+00 -0.102713642E+01
     4
 # iter = 45500  time[fs]=45.50000
   C -0.384322663E+01  0.235054925E+00  0.752024457E-01
   C  0.373106432E+01 -0.740047847E-01 -0.349247204E-01
   H -0.199493860E+02 -0.166371782E+01  0.196406072E+00
   H  0.193714842E+02 -0.623308452E+00 -0.104608205E+01
     4
 # iter = 46000  time[fs]=46.00000
   C -0.392247360E+01  0.240047863E+00  0.768191015E-01
   C  0.380763962E+01 -0.751856523E-01 -0.350998190E-01
   H -0.203177639E+02 -0.169466831E+01  0.200127146E+00
   H  0.197219423E+02 -0.633719309E+00 -0.106504059E+01
     4
 # iter = 46500  time[fs]=46.50000
   C -0.400190735E+01  0.245050071E+00  0.784387090E-01
   C  0.388440067E+01 -0.763736272E-01 -0.352770144E-01
   H -0.206863490E+02 -0.172563827E+01  0.203850430E+00
   H  0.200726200E+02 -0.644136653E+00 -0.108401160E+01
     4
 # iter = 47000  time[fs]=47.00000
   C -0.408152052E+01  0.250061188E+00  0.800611423E-01
   C  0.396134015E+01 -0.775684235E-01 -0.354562085E-01
   H -0.210551340E+02 -0.175662703E+01  0.207575846E+00
   H  0.204235095E+02 -0.654560255E+00 -0.110299467E+01
     4
 # iter = 47500  time[fs]=47.50000
   C -0.416130616E+01  0.255080875E+00  0.816862827E-01
   C  0.403845112E+01 -0.787697714E-01 -0.356373097E-01
   H -0.214241122E+02 -0.178763396E+01  0.211303319E+00
   H  0.207746039E+02 -0.664989903E+00 -0.112198939E+01
     4
 # iter = 48000  time[fs]=48.00000
   C -0.424125771E+01  0.260108810E+00  0.833140190E-01
   C  0.411572705E+01 -0.799774163E-01 -0.358202320E-01
   H -0.217932769E+02 -0.181865846E+01  0.215032777E+00
   H  0.211258962E+02 -0.675425391E+00 -0.114099540E+01
     4
 # iter = 48500  time[fs]=48.50000
   C -0.432136897E+01  0.265144689E+00  0.849442461E-01
   C  0.419316175E+01 -0.811911176E-01 -0.360048950E-01
   H -0.221626220E+02 -0.184969996E+01  0.218764155E+00
   H  0.214773802E+02 -0.685866527E+00 -0.116001232E+01
     4
 # iter = 49000  time[fs]=49.00000
   C -0.440163403E+01  0.270188224E+00  0.865768651E-01
   C  0.427074935E+01 -0.824106478E-01 -0.361912229E-01
   H -0.225321417E+02 -0.188075793E+01  0.222497387E+00
   H  0.218290496E+02 -0.696313126E+00 -0.117903983E+01
     4
 # iter = 49500  time[fs]=49.50000
   C -0.448204734E+01  0.275239142E+00  0.882117828E-01
   C  0.434848431E+01 -0.836357915E-01 -0.363791445E-01
   H -0.229018302E+02 -0.191183184E+01  0.226232413E+00
   H  0.221808985E+02 -0.706765011E+00 -0.119807759E+01
     4
 # iter = 50000  time[fs]=50.00000
   C -0.456260361E+01  0.280297184E+00  0.898489110E-01
   C  0.442636136E+01 -0.848663447E-01 -0.365685929E-01
   H -0.232716823E+02 -0.194292120E+01  0.229969175E+00
   H  0.225329214E+02 -0.717222017E+00 -0.121712528E+01
     4
 # iter = 50500  time[fs]=50.50000
   C -0.464329783E+01  0.285362105E+00  0.914881663E-01
   C  0.450437549E+01 -0.861021139E-01 -0.367595049E-01
   H -0.236416928E+02 -0.197402556E+01  0.233707617E+00
   H  0.228851130E+02 -0.727683983E+00 -0.123618263E+01
     4
 # iter = 51000  time[fs]=51.00000
   C -0.472412521E+01  0.290433669E+00  0.931294700E-01
   C  0.458252198E+01 -0.873429155E-01 -0.369518210E-01
   H -0.240118569E+02 -0.200514444E+01  0.237447687E+00
   H  0.232374682E+02 -0.738150758E+00 -0.125524933E+01
     4
 # iter = 51500  time[fs]=51.50000
   C -0.480508124E+01  0.295511656E+00  0.947727473E-01
   C  0.466079629E+01 -0.885885751E-01 -0.371454850E-01
   H -0.243821699E+02 -0.203627744E+01  0.241189335E+00
   H  0.235899820E+02 -0.748622195E+00 -0.127432511E+01
     4
 # iter = 52000  time[fs]=52.00000
   C -0.488616161E+01  0.300595853E+00  0.964179274E-01
   C  0.473919414E+01 -0.898389269E-01 -0.373404440E-01
   H -0.247526275E+02 -0.206742413E+01  0.244932513E+00
   H  0.239426499E+02 -0.759098156E+00 -0.129340973E+01
     4
 # iter = 52500  time[fs]=52.50000
   C -0.496736220E+01  0.305686060E+00  0.980649433E-01
   C  0.481771144E+01 -0.910938133E-01 -0.375366476E-01
   H -0.251232253E+02 -0.209858412E+01  0.248677174E+00
   H  0.242954674E+02 -0.769578508E+00 -0.131250291E+01
     4
 # iter = 53000  time[fs]=53.00000
   C -0.504867911E+01  0.310782083E+00  0.997137311E-01
   C  0.489634431E+01 -0.923530843E-01 -0.377340485E-01
   H -0.254939593E+02 -0.212975705E+01  0.252423276E+00
   H  0.246484302E+02 -0.780063125E+00 -0.133160444E+01
     4
 # iter = 53500  time[fs]=53.50000
   C -0.513010862E+01  0.315883741E+00  0.101364230E+00
   C  0.497508901E+01 -0.936165967E-01 -0.379326016E-01
   H -0.258648257E+02 -0.216094254E+01  0.256170776E+00
   H  0.250015343E+02 -0.790551883E+00 -0.135071407E+01
     4
 # iter = 54000  time[fs]=54.00000
   C -0.521164715E+01  0.320990858E+00  0.103016383E+00
   C  0.505394202E+01 -0.948842145E-01 -0.381322643E-01
   H -0.262358206E+02 -0.219214025E+01  0.259919633E+00
   H  0.253547757E+02 -0.801044667E+00 -0.136983159E+01
     4
 # iter = 54500  time[fs]=54.50000
   C -0.529329133E+01  0.326103268E+00  0.104670135E+00
   C  0.513289996E+01 -0.961558074E-01 -0.383329962E-01
   H -0.266069405E+02 -0.222334986E+01  0.263669811E+00
   H  0.257081506E+02 -0.811541365E+00 -0.138895678E+01
     4
 # iter = 55000  time[fs]=55.00000
   C -0.537503790E+01  0.331220810E+00  0.106325433E+00
   C  0.521195959E+01 -0.974312515E-01 -0.385347588E-01
   H -0.269781821E+02 -0.225457104E+01  0.267421271E+00
   H  0.260616556E+02 -0.822041870E+00 -0.140808945E+01
     4
 # iter = 55500  time[fs]=55.50000
   C -0.545688376E+01  0.336343333E+00  0.107982228E+00
   C  0.529111784E+01 -0.987104282E-01 -0.387375158E-01
   H -0.273495419E+02 -0.228580349E+01  0.271173979E+00
   H  0.264152871E+02 -0.832546079E+00 -0.142722940E+01
     4
 # iter = 56000  time[fs]=56.00000
   C -0.553882595E+01  0.341470690E+00  0.109640473E+00
   C  0.537037174E+01 -0.999932242E-01 -0.389412323E-01
   H -0.277210169E+02 -0.231704691E+01  0.274927901E+00
   H  0.267690417E+02 -0.843053892E+00 -0.144637644E+01
     4
 # iter = 56500  time[fs]=56.50000
   C -0.562086163E+01  0.346602741E+00  0.111300121E+00
   C  0.544971847E+01 -0.101279531E+00 -0.391458755E-01
   H -0.280926041E+02 -0.234830103E+01  0.278683004E+00
   H  0.271229164E+02 -0.853565216E+00 -0.146553038E+01
     4
 # iter = 57000  time[fs]=57.00000
   C -0.570298808E+01  0.351739354E+00  0.112961131E+00
   C  0.552915533E+01 -0.102569245E+00 -0.393514138E-01
   H -0.284643004E+02 -0.237956557E+01  0.282439256E+00
   H  0.274769080E+02 -0.864079958E+00 -0.148469107E+01
     4
 # iter = 57500  time[fs]=57.50000
   C -0.578520269E+01  0.356880398E+00  0.114623460E+00
   C  0.560867973E+01 -0.103862268E+00 -0.395578175E-01
   H -0.288361032E+02 -0.241084027E+01  0.286196629E+00
   H  0.278310135E+02 -0.874598032E+00 -0.150385832E+01
     4
 # iter = 58000  time[fs]=58.00000
   C -0.586750298E+01  0.362025751E+00  0.116287068E+00
   C  0.568828919E+01 -0.105158503E+00 -0.397650578E-01
   H -0.292080097E+02 -0.244212487E+01  0.289955092E+00
   H  0.281852301E+02 -0.885119352E+00 -0.152303199E+01
     4
 # iter = 58500  time[fs]=58.50000
   C -0.594988654E+01  0.367175296E+00  0.117951919E+00
   C  0.576798131E+01 -0.106457860E+00 -0.399731077E-01
   H -0.295800173E+02 -0.247341914E+01  0.293714618E+00
   H  0.285395551E+02 -0.895643838E+00 -0.154221191E+01
     4
 # iter = 59000  time[fs]=59.00000
   C -0.603235108E+01  0.372328918E+00  0.119617976E+00
   C  0.584775382E+01 -0.107760251E+00 -0.401819411E-01
   H -0.299521235E+02 -0.250472285E+01  0.297475181E+00
   H  0.288939859E+02 -0.906171410E+00 -0.156139793E+01
     4
 # iter = 59500  time[fs]=59.50000
   C -0.611489439E+01  0.377486509E+00  0.121285204E+00
   C  0.592760453E+01 -0.109065593E+00 -0.403915332E-01
   H -0.303243259E+02 -0.253603576E+01  0.301236755E+00
   H  0.292485198E+02 -0.916701995E+00 -0.158058991E+01
     4
 # iter = 60000  time[fs]=60.00000
   C -0.619751435E+01  0.382647964E+00  0.122953569E+00
   C  0.600753131E+01 -0.110373805E+00 -0.406018604E-01
   H -0.306966222E+02 -0.256735766E+01  0.304999314E+00
   H  0.296031544E+02 -0.927235518E+00 -0.159978771E+01
     4
 # iter = 60500  time[fs]=60.50000
   C -0.628020893E+01  0.387813182E+00  0.124623041E+00
   C  0.608753215E+01 -0.111684809E+00 -0.408128998E-01
   H -0.310690102E+02 -0.259868834E+01  0.308762836E+00
   H  0.299578874E+02 -0.937771910E+00 -0.161899120E+01
     4
 # iter = 61000  time[fs]=61.00000
   C -0.636297616E+01  0.392982067E+00  0.126293588E+00
   C  0.616760510E+01 -0.112998531E+00 -0.410246299E-01
   H -0.314414876E+02 -0.263002760E+01  0.312527296E+00
   H  0.303127165E+02 -0.948311104E+00 -0.163820024E+01
     4
 # iter = 61500  time[fs]=61.50000
   C -0.644581416E+01  0.398154525E+00  0.127965181E+00
   C  0.624774828E+01 -0.114314900E+00 -0.412370298E-01
   H -0.318140525E+02 -0.266137525E+01  0.316292673E+00
   H  0.306676394E+02 -0.958853033E+00 -0.165741472E+01
     4
 # iter = 62000  time[fs]=62.00000
   C -0.652872112E+01  0.403330466E+00  0.129637792E+00
   C  0.632795989E+01 -0.115633847E+00 -0.414500797E-01
   H -0.321867028E+02 -0.269273108E+01  0.320058946E+00
   H  0.310226540E+02 -0.969397635E+00 -0.167663450E+01
     4
 # iter = 62500  time[fs]=62.50000
   C -0.661169529E+01  0.408509805E+00  0.131311394E+00
   C  0.640823819E+01 -0.116955306E+00 -0.416637605E-01
   H -0.325594365E+02 -0.272409493E+01  0.323826092E+00
   H  0.313777582E+02 -0.979944849E+00 -0.169585948E+01
     4
 # iter = 63000  time[fs]=63.00000
   C -0.669473499E+01  0.413692457E+00  0.132985960E+00
   C  0.648858152E+01 -0.118279213E+00 -0.418780539E-01
   H -0.329322517E+02 -0.275546661E+01  0.327594094E+00
   H  0.317329501E+02 -0.990494616E+00 -0.171508954E+01
     4
 # iter = 63500  time[fs]=63.50000
   C -0.677783859E+01  0.418878342E+00  0.134661466E+00
   C  0.656898825E+01 -0.119605506E+00 -0.420929424E-01
   H -0.333051468E+02 -0.278684596E+01  0.331362930E+00
   H  0.320882278E+02 -0.100104688E+01 -0.173432456E+01
     4
 # iter = 64000  time[fs]=64.00000
   C -0.686100454E+01  0.424067384E+00  0.136337888E+00
   C  0.664945684E+01 -0.120934127E+00 -0.423084092E-01
   H -0.336781198E+02 -0.281823281E+01  0.335132583E+00
   H  0.324435893E+02 -0.101160158E+01 -0.175356445E+01
     4
 # iter = 64500  time[fs]=64.50000
   C -0.694423132E+01  0.429259506E+00  0.138015201E+00
   C  0.672998578E+01 -0.122265019E+00 -0.425244381E-01
   H -0.340511691E+02 -0.284962699E+01  0.338903034E+00
   H  0.327990328E+02 -0.102215868E+01 -0.177280910E+01
     4
 # iter = 65000  time[fs]=65.00000
   C -0.702751748E+01  0.434454637E+00  0.139693385E+00
   C  0.681057363E+01 -0.123598126E+00 -0.427410135E-01
   H -0.344242931E+02 -0.288102836E+01  0.342674266E+00
   H  0.331545567E+02 -0.103271810E+01 -0.179205840E+01
     4
 # iter = 65500  time[fs]=65.50000
   C -0.711086162E+01  0.439652707E+00  0.141372417E+00
   C  0.689121900E+01 -0.124933395E+00 -0.429581206E-01
   H -0.347974901E+02 -0.291243676E+01  0.346446262E+00
   H  0.335101592E+02 -0.104327982E+01 -0.181131228E+01
     4
 # iter = 66000  time[fs]=66.00000
   C -0.719426238E+01  0.444853649E+00  0.143052276E+00
   C  0.697192053E+01 -0.126270776E+00 -0.431757450E-01
   H -0.351707586E+02 -0.294385205E+01  0.350219006E+00
   H  0.338658386E+02 -0.105384377E+01 -0.183057062E+01
     4
 # iter = 66500  time[fs]=66.50000
   C -0.727771845E+01  0.450057398E+00  0.144732943E+00
   C  0.705267693E+01 -0.127610218E+00 -0.433938730E-01
   H -0.355440972E+02 -0.297527408E+01  0.353992481E+00
   H  0.342215934E+02 -0.106440992E+01 -0.184983334E+01
     4
 # iter = 67000  time[fs]=67.00000
   C -0.736122857E+01  0.455263890E+00  0.146414398E+00
   C  0.713348694E+01 -0.128951675E+00 -0.436124911E-01
   H -0.359175043E+02 -0.300670273E+01  0.357766673E+00
   H  0.345774221E+02 -0.107497821E+01 -0.186910035E+01
     4
 # iter = 67500  time[fs]=67.50000
   C -0.744479150E+01  0.460473066E+00  0.148096622E+00
   C  0.721434933E+01 -0.130295099E+00 -0.438315867E-01
   H -0.362909786E+02 -0.303813786E+01  0.361541566E+00
   H  0.349333230E+02 -0.108554860E+01 -0.188837157E+01
     4
 # iter = 68000  time[fs]=68.00000
   C -0.752840607E+01  0.465684865E+00  0.149779598E+00
   C  0.729526293E+01 -0.131640446E+00 -0.440511475E-01
   H -0.366645188E+02 -0.306957933E+01  0.365317146E+00
   H  0.352892949E+02 -0.109612105E+01 -0.190764691E+01
     4
 # iter = 68500  time[fs]=68.50000
   C -0.761207114E+01  0.470899231E+00  0.151463308E+00
   C  0.737622662E+01 -0.132987674E+00 -0.442711615E-01
   H -0.370381234E+02 -0.310102703E+01  0.369093399E+00
   H  0.356453363E+02 -0.110669552E+01 -0.192692630E+01
     4
 # iter = 69000  time[fs]=69.00000
   C -0.769578559E+01  0.476116109E+00  0.153147735E+00
   C  0.745723928E+01 -0.134336740E+00 -0.444916174E-01
   H -0.374117912E+02 -0.313248083E+01  0.372870312E+00
   H  0.360014458E+02 -0.111727197E+01 -0.194620965E+01
     4
 # iter = 69500  time[fs]=69.50000
   C -0.777954835E+01  0.481335445E+00  0.154832863E+00
   C  0.753829984E+01 -0.135687604E+00 -0.447125040E-01
   H -0.377855209E+02 -0.316394062E+01  0.376647871E+00
   H  0.363576221E+02 -0.112785035E+01 -0.196549688E+01
     4
 # iter = 70000  time[fs]=70.00000
   C -0.786335838E+01  0.486557188E+00  0.156518677E+00
   C  0.761940729E+01 -0.137040227E+00 -0.449338109E-01
   H -0.381593115E+02 -0.319540628E+01  0.380426064E+00
   H  0.367138638E+02 -0.113843064E+01 -0.198478793E+01
     4
 # iter = 70500  time[fs]=70.50000
   C -0.794721468E+01  0.491781287E+00  0.158205160E+00
   C  0.770056061E+01 -0.138394570E+00 -0.451555276E-01
   H -0.385331616E+02 -0.322687770E+01  0.384204878E+00
   H  0.370701699E+02 -0.114901279E+01 -0.200408273E+01
     4
 # iter = 71000  time[fs]=71.00000
   C -0.803111628E+01  0.497007694E+00  0.159892299E+00
   C  0.778175884E+01 -0.139750599E+00 -0.453776443E-01
   H -0.389070701E+02 -0.325835478E+01  0.387984300E+00
   H  0.374265389E+02 -0.115959677E+01 -0.202338120E+01
     4
 # iter = 71500  time[fs]=71.50000
   C -0.811506222E+01  0.502236362E+00  0.161580079E+00
   C  0.786300105E+01 -0.141108275E+00 -0.456001514E-01
   H -0.392810360E+02 -0.328983740E+01  0.391764321E+00
   H  0.377829698E+02 -0.117018255E+01 -0.204268327E+01
     4
 # iter = 72000  time[fs]=72.00000
   C -0.819905159E+01  0.507467244E+00  0.163268486E+00
   C  0.794428631E+01 -0.142467567E+00 -0.458230397E-01
   H -0.396550582E+02 -0.332132546E+01  0.395544927E+00
   H  0.381394614E+02 -0.118077008E+01 -0.206198888E+01
     4
 # iter = 72500  time[fs]=72.50000
   C -0.828308350E+01  0.512700297E+00  0.164957507E+00
   C  0.802561375E+01 -0.143828439E+00 -0.460463002E-01
   H -0.400291355E+02 -0.335281887E+01  0.399326108E+00
   H  0.384960126E+02 -0.119135934E+01 -0.208129797E+01
     4
 # iter = 73000  time[fs]=73.00000
   C -0.836715710E+01  0.517935478E+00  0.166647130E+00
   C  0.810698252E+01 -0.145190860E+00 -0.462699243E-01
   H -0.404032671E+02 -0.338431754E+01  0.403107854E+00
   H  0.388526223E+02 -0.120195030E+01 -0.210061048E+01
     4
 # iter = 73500  time[fs]=73.50000
   C -0.845127154E+01  0.523172743E+00  0.168337340E+00
   C  0.818839177E+01 -0.146554797E+00 -0.464939036E-01
   H -0.407774519E+02 -0.341582136E+01  0.406890153E+00
   H  0.392092895E+02 -0.121254292E+01 -0.211992633E+01
     4
 # iter = 74000  time[fs]=74.00000
   C -0.853542601E+01  0.528412054E+00  0.170028127E+00
   C  0.826984071E+01 -0.147920222E+00 -0.467182301E-01
   H -0.411516889E+02 -0.344733024E+01  0.410672996E+00
   H  0.395660130E+02 -0.122313718E+01 -0.213924548E+01
     4
 # iter = 74500  time[fs]=74.50000
   C -0.861961972E+01  0.533653370E+00  0.171719479E+00
   C  0.835132855E+01 -0.149287104E+00 -0.469428959E-01
   H -0.415259772E+02 -0.347884409E+01  0.414456373E+00
   H  0.399227920E+02 -0.123373304E+01 -0.215856786E+01
     4
 # iter = 75000  time[fs]=75.00000
   C -0.870385191E+01  0.538896654E+00  0.173411383E+00
   C  0.843285454E+01 -0.150655414E+00 -0.471678935E-01
   H -0.419003159E+02 -0.351036284E+01  0.418240274E+00
   H  0.402796254E+02 -0.124433048E+01 -0.217789343E+01
     4
 # iter = 75500  time[fs]=75.50000
   C -0.878812183E+01  0.544141867E+00  0.175103829E+00
   C  0.851441792E+01 -0.152025124E+00 -0.473932155E-01
   H -0.422747042E+02 -0.354188639E+01  0.422024690E+00
   H  0.406365123E+02 -0.125492947E+01 -0.219722212E+01
     4
 # iter = 76000  time[fs]=76.00000
   C -0.887242877E+01  0.549388974E+00  0.176796807E+00
   C  0.859601799E+01 -0.153396208E+00 -0.476188548E-01
   H -0.426491411E+02 -0.357341466E+01  0.425809611E+00
   H  0.409934517E+02 -0.126552998E+01 -0.221655388E+01
     4
 # iter = 76500  time[fs]=76.50000
   C -0.895677201E+01  0.554637939E+00  0.178490305E+00
   C  0.867765405E+01 -0.154768639E+00 -0.478448046E-01
   H -0.430236257E+02 -0.360494757E+01  0.429595029E+00
   H  0.413504428E+02 -0.127613198E+01 -0.223588866E+01
     4
 # iter = 77000  time[fs]=77.00000
   C -0.904115088E+01  0.559888728E+00  0.180184314E+00
   C  0.875932542E+01 -0.156142391E+00 -0.480710582E-01
   H -0.433981574E+02 -0.363648505E+01  0.433380936E+00
   H  0.417074847E+02 -0.128673546E+01 -0.225522641E+01
     4
 # iter = 77500  time[fs]=77.50000
   C -0.912556471E+01  0.565141308E+00  0.181878824E+00
   C  0.884103143E+01 -0.157517440E+00 -0.482976090E-01
   H -0.437727353E+02 -0.366802701E+01  0.437167322E+00
   H  0.420645765E+02 -0.129734038E+01 -0.227456708E+01
     4
 # iter = 78000  time[fs]=78.00000
   C -0.921001285E+01  0.570395647E+00  0.183573824E+00
   C  0.892277145E+01 -0.158893762E+00 -0.485244510E-01
   H -0.441473585E+02 -0.369957339E+01  0.440954180E+00
   H  0.424217173E+02 -0.130794672E+01 -0.229391062E+01
     4
 # iter = 78500  time[fs]=78.50000
   C -0.929449468E+01  0.575651712E+00  0.185269307E+00
   C  0.900454486E+01 -0.160271331E+00 -0.487515779E-01
   H -0.445220264E+02 -0.373112410E+01  0.444741501E+00
   H  0.427789065E+02 -0.131855445E+01 -0.231325698E+01
     4
 # iter = 79000  time[fs]=79.00000
   C -0.937900958E+01  0.580909474E+00  0.186965262E+00
   C  0.908635104E+01 -0.161650127E+00 -0.489789839E-01
   H -0.448967382E+02 -0.376267909E+01  0.448529278E+00
   H  0.431361431E+02 -0.132916356E+01 -0.233260613E+01
     4
 # iter = 79500  time[fs]=79.50000
   C -0.946355696E+01  0.586168901E+00  0.188661681E+00
   C  0.916818941E+01 -0.163030127E+00 -0.492066632E-01
   H -0.452714932E+02 -0.379423827E+01  0.452317503E+00
   H  0.434934264E+02 -0.133977402E+01 -0.235195801E+01
     4
 # iter = 80000  time[fs]=80.00000
   C -0.954813624E+01  0.591429966E+00  0.190358555E+00
   C  0.925005938E+01 -0.164411308E+00 -0.494346103E-01
   H -0.456462906E+02 -0.382580159E+01  0.456106169E+00
   H  0.438507557E+02 -0.135038581E+01 -0.237131258E+01
