     4
 # iter = 25000  time[fs]=25.00000
   C -0.987431107E+00  0.187501641E-01 -0.478911860E-01
   C  0.100538181E+01 -0.322975199E-01  0.436100105E-03
   H -0.528810720E+01 -0.572230224E+00  0.197544324E+00
   H  0.540689714E+01  0.616616830E+00  0.372674605E+00
     4
 # iter = 25500  time[fs]=25.50000
   C -0.103240265E+01  0.210467149E-01 -0.493902174E-01
   C  0.104873330E+01 -0.345593840E-01 -0.323732986E-03
   H -0.561969238E+01 -0.608985306E+00  0.211260797E+00
   H  0.572088366E+01  0.656078909E+00  0.394872883E+00
     4
 # iter = 26000  time[fs]=26.00000
   C -0.107859542E+01  0.233901938E-01 -0.509313994E-01
   C  0.109331392E+01 -0.368690132E-01 -0.106588616E-02
   H -0.595391270E+01 -0.646055959E+00  0.225088267E+00
   H  0.603741037E+01  0.695866602E+00  0.417253812E+00
     4
 # iter = 26500  time[fs]=26.50000
   C -0.112591267E+01  0.257774482E-01 -0.525102007E-01
   C  0.113902477E+01 -0.392233907E-01 -0.179224492E-02
   H -0.629047570E+01 -0.683407131E+00  0.239014195E+00
   H  0.635621089E+01  0.735946488E+00  0.439798181E+00
     4
 # iter = 27000  time[fs]=27.00000
   C -0.117426639E+01  0.282055943E-01 -0.541227091E-01
   C  0.118577618E+01 -0.416197144E-01 -0.250447470E-02
   H -0.662913380E+01 -0.721009199E+00  0.253028026E+00
   H  0.667705745E+01  0.776289924E+00  0.462489586E+00
     4
 # iter = 27500  time[fs]=27.50000
   C -0.122357661E+01  0.306719859E-01 -0.557655335E-01
   C  0.123348691E+01 -0.440553822E-01 -0.320404395E-02
   H -0.696967568E+01 -0.758836918E+00  0.267120794E+00
   H  0.699975393E+01  0.816872194E+00  0.485313918E+00
     4
 # iter = 28000  time[fs]=28.00000
   C -0.127377073E+01  0.331741897E-01 -0.574357223E-01
   C  0.128208339E+01 -0.465279787E-01 -0.389224659E-02
   H -0.731191974E+01 -0.796868608E+00  0.281284824E+00
   H  0.732413034E+01  0.857671834E+00  0.508258962E+00
     4
 # iter = 28500  time[fs]=28.50000
   C -0.132478287E+01  0.357099648E-01 -0.591306968E-01
   C  0.133149899E+01 -0.490352628E-01 -0.457022290E-02
   H -0.765570883E+01 -0.835085523E+00  0.295513493E+00
   H  0.765003854E+01  0.898670093E+00  0.531314079E+00
     4
 # iter = 29000  time[fs]=29.00000
   C -0.137655322E+01  0.382772451E-01 -0.608481954E-01
   C  0.138167333E+01 -0.515751553E-01 -0.523897855E-02
   H -0.800090614E+01 -0.873471351E+00  0.309801052E+00
   H  0.797734866E+01  0.939850504E+00  0.554469948E+00
     4
 # iter = 29500  time[fs]=29.50000
   C -0.142902747E+01  0.408741241E-01 -0.625862277E-01
   C  0.143255165E+01 -0.541457284E-01 -0.589940153E-02
   H -0.834739188E+01 -0.912011811E+00  0.324142477E+00
   H  0.830594632E+01  0.981198531E+00  0.577718363E+00
     4
 # iter = 30000  time[fs]=30.00000
   C -0.148215625E+01  0.434988406E-01 -0.643430355E-01
   C  0.148408422E+01 -0.567451938E-01 -0.655227715E-02
   H -0.869506064E+01 -0.950694339E+00  0.338533355E+00
   H  0.863573028E+01  0.102270128E+01  0.601052063E+00
     4
 # iter = 30500  time[fs]=30.50000
   C -0.153589462E+01  0.461497671E-01 -0.661170605E-01
   C  0.153622583E+01 -0.593718931E-01 -0.719830111E-02
   H -0.904381917E+01 -0.989507821E+00  0.352969787E+00
   H  0.896661052E+01  0.106434727E+01  0.624464596E+00
     4
 # iter = 31000  time[fs]=31.00000
   C -0.159020163E+01  0.488253976E-01 -0.679069171E-01
   C  0.158893534E+01 -0.620242876E-01 -0.783809091E-02
   H -0.939358466E+01 -0.102844238E+01  0.367448314E+00
   H  0.929850670E+01  0.110612624E+01  0.647950202E+00
     4
 # iter = 31500  time[fs]=31.50000
   C -0.164503993E+01  0.515243380E-01 -0.697113690E-01
   C  0.164217523E+01 -0.647009491E-01 -0.847219579E-02
   H -0.974428320E+01 -0.106748921E+01  0.381965853E+00
   H  0.963134683E+01  0.114802896E+01  0.671503721E+00
     4
 # iter = 32000  time[fs]=32.00000
   C -0.170037538E+01  0.542452962E-01 -0.715293100E-01
   C  0.169591125E+01 -0.674005513E-01 -0.910110525E-02
   H -0.100958486E+02 -0.110664041E+01  0.396519644E+00
   H  0.996506615E+01  0.119004713E+01  0.695120512E+00
     4
 # iter = 32500  time[fs]=32.50000
   C -0.175617675E+01  0.569870740E-01 -0.733597472E-01
   C  0.175011206E+01 -0.701218619E-01 -0.972525656E-02
   H -0.104482214E+02 -0.114588889E+01  0.411107207E+00
   H  0.102996062E+02  0.123217324E+01  0.718796388E+00
     4
 # iter = 33000  time[fs]=33.00000
   C -0.181241539E+01  0.597485587E-01 -0.752017871E-01
   C  0.180474898E+01 -0.728637349E-01 -0.103450411E-01
   H -0.108013479E+02 -0.118522824E+01  0.425726307E+00
   H  0.106349142E+02  0.127440048E+01  0.742527559E+00
     4
 # iter = 33500  time[fs]=33.50000
   C -0.186906505E+01  0.625287165E-01 -0.770546231E-01
   C  0.185979567E+01 -0.756251039E-01 -0.109608100E-01
   H -0.111551795E+02 -0.122465265E+01  0.440374921E+00
   H  0.109709420E+02  0.131672267E+01  0.766310580E+00
     4
 # iter = 34000  time[fs]=34.00000
   C -0.192610156E+01  0.653265858E-01 -0.789175252E-01
   C  0.191522796E+01 -0.784049756E-01 -0.115728790E-01
   H -0.115096721E+02 -0.126415687E+01  0.455051212E+00
   H  0.113076460E+02  0.135913415E+01  0.790142319E+00
     4
 # iter = 34500  time[fs]=34.50000
   C -0.198350267E+01  0.681412712E-01 -0.807898313E-01
   C  0.197102358E+01 -0.812024241E-01 -0.121815324E-01
   H -0.118647856E+02 -0.130373609E+01  0.469753511E+00
   H  0.116449861E+02  0.140162976E+01  0.814019912E+00
     4
 # iter = 35000  time[fs]=35.00000
   C -0.204124788E+01  0.709719382E-01 -0.826709391E-01
   C  0.202716201E+01 -0.840165857E-01 -0.127870271E-01
   H -0.122204834E+02 -0.134338594E+01  0.484480291E+00
   H  0.119829259E+02  0.144420478E+01  0.837940739E+00
     4
 # iter = 35500  time[fs]=35.50000
   C -0.209931823E+01  0.738178080E-01 -0.845602996E-01
   C  0.208362430E+01 -0.868466536E-01 -0.133895953E-01
   H -0.125767319E+02 -0.138310239E+01  0.499230156E+00
   H  0.123214319E+02  0.148685485E+01  0.861902395E+00
     4
 # iter = 36000  time[fs]=36.00000
   C -0.215769622E+01  0.766781535E-01 -0.864574112E-01
   C  0.214039294E+01 -0.896918738E-01 -0.139894475E-01
   H -0.129335004E+02 -0.142288178E+01  0.514001825E+00
   H  0.126604731E+02  0.152957597E+01  0.885902668E+00
     4
 # iter = 36500  time[fs]=36.50000
   C -0.221636560E+01  0.795522948E-01 -0.883618144E-01
   C  0.219745172E+01 -0.925515408E-01 -0.145867751E-01
   H -0.132907605E+02 -0.146272070E+01  0.528794121E+00
   H  0.130000211E+02  0.157236444E+01  0.909939519E+00
     4
 # iter = 37000  time[fs]=37.00000
   C -0.227531133E+01  0.824395957E-01 -0.902730879E-01
   C  0.225478559E+01 -0.954249938E-01 -0.151817521E-01
   H -0.136484861E+02 -0.150261604E+01  0.543605957E+00
   H  0.133400498E+02  0.161521684E+01  0.934011066E+00
     4
 # iter = 37500  time[fs]=37.50000
   C -0.233451942E+01  0.853394602E-01 -0.921908442E-01
   C  0.231238058E+01 -0.983116134E-01 -0.157745372E-01
   H -0.140066533E+02 -0.154256491E+01  0.558436332E+00
   H  0.136805348E+02  0.165813001E+01  0.958115564E+00
     4
 # iter = 38000  time[fs]=38.00000
   C -0.239397685E+01  0.882513293E-01 -0.941147262E-01
   C  0.237022371E+01 -0.101210819E+00 -0.163652753E-01
   H -0.143652398E+02 -0.158256465E+01  0.573284316E+00
   H  0.140214536E+02  0.170110101E+01  0.982251398E+00
     4
 # iter = 38500  time[fs]=38.50000
   C -0.245367153E+01  0.911746784E-01 -0.960444045E-01
   C  0.242830288E+01 -0.104122063E+00 -0.169540990E-01
   H -0.147242248E+02 -0.162261276E+01  0.588149049E+00
   H  0.143627854E+02  0.174412711E+01  0.100641707E+01
     4
 # iter = 39000  time[fs]=39.00000
   C -0.251359214E+01  0.941090146E-01 -0.979795746E-01
   C  0.248660681E+01 -0.107044835E+00 -0.175411299E-01
   H -0.150835892E+02 -0.166270695E+01  0.603029733E+00
   H  0.147045106E+02  0.178720575E+01  0.103061117E+01
     4
 # iter = 39500  time[fs]=39.50000
   C -0.257372813E+01  0.970538743E-01 -0.999199544E-01
   C  0.254512499E+01 -0.109978650E+00 -0.181264795E-01
   H -0.154433152E+02 -0.170284507E+01  0.617925622E+00
   H  0.150466111E+02  0.183033458E+01  0.105483241E+01
     4
 # iter = 40000  time[fs]=40.00000
   C -0.263406964E+01  0.100008821E+00 -0.101865282E+00
   C  0.260384755E+01 -0.112923054E+00 -0.187102505E-01
   H -0.158033861E+02 -0.174302513E+01  0.632836024E+00
   H  0.153890700E+02  0.187351136E+01  0.107907957E+01
     4
 # iter = 40500  time[fs]=40.50000
   C -0.269460744E+01  0.102973444E+00 -0.103815315E+00
   C  0.266276531E+01 -0.115877618E+00 -0.192925373E-01
   H -0.161637864E+02 -0.178324526E+01  0.647760292E+00
   H  0.157318716E+02  0.191673403E+01  0.110335151E+01
     4
 # iter = 41000  time[fs]=41.00000
   C -0.275533287E+01  0.105947355E+00 -0.105769826E+00
   C  0.272186961E+01 -0.118841939E+00 -0.198734271E-01
   H -0.165245016E+02 -0.182350372E+01  0.662697819E+00
   H  0.160750009E+02  0.196000063E+01  0.112764717E+01
     4
 # iter = 41500  time[fs]=41.50000
   C -0.281623780E+01  0.108930189E+00 -0.107728605E+00
   C  0.278115238E+01 -0.121815634E+00 -0.204530005E-01
   H -0.168855182E+02 -0.186379886E+01  0.677648041E+00
   H  0.164184442E+02  0.200330935E+01  0.115196556E+01
     4
 # iter = 42000  time[fs]=42.00000
   C -0.287731462E+01  0.111921599E+00 -0.109691455E+00
   C  0.284060600E+01 -0.124798341E+00 -0.210313318E-01
   H -0.172468234E+02 -0.190412917E+01  0.692610424E+00
   H  0.167621884E+02  0.204665847E+01  0.117630573E+01
     4
 # iter = 42500  time[fs]=42.50000
   C -0.293855614E+01  0.114921258E+00 -0.111658192E+00
   C  0.290022333E+01 -0.127789721E+00 -0.216084901E-01
   H -0.176084053E+02 -0.194449320E+01  0.707584471E+00
   H  0.171062213E+02  0.209004637E+01  0.120066680E+01
     4
 # iter = 43000  time[fs]=43.00000
   C -0.299995563E+01  0.117928857E+00 -0.113628644E+00
   C  0.295999765E+01 -0.130789449E+00 -0.221845394E-01
   H -0.179702526E+02 -0.198488959E+01  0.722569712E+00
   H  0.174505313E+02  0.213347155E+01  0.122504795E+01
     4
 # iter = 43500  time[fs]=43.50000
   C -0.306150671E+01  0.120944104E+00 -0.115602649E+00
   C  0.301992260E+01 -0.133797219E+00 -0.227595390E-01
   H -0.183323547E+02 -0.202531708E+01  0.737565707E+00
   H  0.177951077E+02  0.217693255E+01  0.124944840E+01
     4
 # iter = 44000  time[fs]=44.00000
   C -0.312320339E+01  0.123966720E+00 -0.117580057E+00
   C  0.307999223E+01 -0.136812741E+00 -0.233335444E-01
   H -0.186947019E+02 -0.206577445E+01  0.752572038E+00
   H  0.181399402E+02  0.222042805E+01  0.127386740E+01
     4
 # iter = 44500  time[fs]=44.50000
   C -0.318504000E+01  0.126996441E+00 -0.119560726E+00
   C  0.314020088E+01 -0.139835740E+00 -0.239066069E-01
   H -0.190572845E+02 -0.210626059E+01  0.767588315E+00
   H  0.184850191E+02  0.226395675E+01  0.129830427E+01
     4
 # iter = 45000  time[fs]=45.00000
   C -0.324701119E+01  0.130033018E+00 -0.121544521E+00
   C  0.320054322E+01 -0.142865954E+00 -0.244787746E-01
   H -0.194200939E+02 -0.214677442E+01  0.782614166E+00
   H  0.188303353E+02  0.230751745E+01  0.132275835E+01
     4
 # iter = 45500  time[fs]=45.50000
   C -0.330911191E+01  0.133076213E+00 -0.123531317E+00
   C  0.326101422E+01 -0.145903133E+00 -0.250500921E-01
   H -0.197831216E+02 -0.218731493E+01  0.797649240E+00
   H  0.191758802E+02  0.235110901E+01  0.134722902E+01
     4
 # iter = 46000  time[fs]=46.00000
   C -0.337133735E+01  0.136125800E+00 -0.125520995E+00
   C  0.332160911E+01 -0.148947042E+00 -0.256206014E-01
   H -0.201463597E+02 -0.222788116E+01  0.812693207E+00
   H  0.195216457E+02  0.239473035E+01  0.137171568E+01
     4
 # iter = 46500  time[fs]=46.50000
   C -0.343368298E+01  0.139181564E+00 -0.127513444E+00
   C  0.338232336E+01 -0.151997456E+00 -0.261903415E-01
   H -0.205098007E+02 -0.226847221E+01  0.827745753E+00
   H  0.198676239E+02  0.243838043E+01  0.139621778E+01
     4
 # iter = 47000  time[fs]=47.00000
   C -0.349614449E+01  0.142243301E+00 -0.129508558E+00
   C  0.344315269E+01 -0.155054160E+00 -0.267593491E-01
   H -0.208734375E+02 -0.230908721E+01  0.842806578E+00
   H  0.202138076E+02  0.248205828E+01  0.142073479E+01
     4
 # iter = 47500  time[fs]=47.50000
   C -0.355871780E+01  0.145310814E+00 -0.131506237E+00
   C  0.350409304E+01 -0.158116950E+00 -0.273276586E-01
   H -0.212372634E+02 -0.234972534E+01  0.857875402E+00
   H  0.205601897E+02  0.252576297E+01  0.144526620E+01
     4
 # iter = 48000  time[fs]=48.00000
   C -0.362139902E+01  0.148383919E+00 -0.133506387E+00
   C  0.356514053E+01 -0.161185631E+00 -0.278953022E-01
   H -0.216012719E+02 -0.239038584E+01  0.872951955E+00
   H  0.209067637E+02  0.256949362E+01  0.146981155E+01
     4
 # iter = 48500  time[fs]=48.50000
   C -0.368418448E+01  0.151462437E+00 -0.135508918E+00
   C  0.362629151E+01 -0.164260018E+00 -0.284623100E-01
   H -0.219654570E+02 -0.243106797E+01  0.888035982E+00
   H  0.212535231E+02  0.261324940E+01  0.149437036E+01
     4
 # iter = 49000  time[fs]=49.00000
   C -0.374707065E+01  0.154546201E+00 -0.137513745E+00
   C  0.368754247E+01 -0.167339932E+00 -0.290287107E-01
   H -0.223298128E+02 -0.247177101E+01  0.903127240E+00
   H  0.216004621E+02  0.265702949E+01  0.151894222E+01
     4
 # iter = 49500  time[fs]=49.50000
   C -0.381005420E+01  0.157635047E+00 -0.139520789E+00
   C  0.374889011E+01 -0.170425204E+00 -0.295945309E-01
   H -0.226943339E+02 -0.251249432E+01  0.918225498E+00
   H  0.219475748E+02  0.270083315E+01  0.154352670E+01
     4
 # iter = 50000  time[fs]=50.00000
   C -0.387313195E+01  0.160728821E+00 -0.141529972E+00
   C  0.381033124E+01 -0.173515673E+00 -0.301597959E-01
   H -0.230590149E+02 -0.255323724E+01  0.933330536E+00
   H  0.222948559E+02  0.274465964E+01  0.156812341E+01
     4
 # iter = 50500  time[fs]=50.50000
   C -0.393630086E+01  0.163827375E+00 -0.143541222E+00
   C  0.387186287E+01 -0.176611182E+00 -0.307245293E-01
   H -0.234238510E+02 -0.259399917E+01  0.948442142E+00
   H  0.226423002E+02  0.278850826E+01  0.159273198E+01
     4
 # iter = 51000  time[fs]=51.00000
   C -0.399955804E+01  0.166930569E+00 -0.145554469E+00
   C  0.393348210E+01 -0.179711584E+00 -0.312887538E-01
   H -0.237888373E+02 -0.263477953E+01  0.963560118E+00
   H  0.229899026E+02  0.283237836E+01  0.161735205E+01
     4
 # iter = 51500  time[fs]=51.50000
   C -0.406290074E+01  0.170038265E+00 -0.147569650E+00
   C  0.399518620E+01 -0.182816736E+00 -0.318524903E-01
   H -0.241539692E+02 -0.267557777E+01  0.978684271E+00
   H  0.233376584E+02  0.287626930E+01  0.164198328E+01
     4
 # iter = 52000  time[fs]=52.00000
   C -0.412632631E+01  0.173150336E+00 -0.149586700E+00
   C  0.405697253E+01 -0.185926502E+00 -0.324157589E-01
   H -0.245192425E+02 -0.271639335E+01  0.993814417E+00
   H  0.236855631E+02  0.292018048E+01  0.166662533E+01
     4
 # iter = 52500  time[fs]=52.50000
   C -0.418983223E+01  0.176266655E+00 -0.151605560E+00
   C  0.411883860E+01 -0.189040752E+00 -0.329785785E-01
   H -0.248846529E+02 -0.275722578E+01  0.100895038E+01
   H  0.240336124E+02  0.296411131E+01  0.169127790E+01
     4
 # iter = 53000  time[fs]=53.00000
   C -0.425341609E+01  0.179387104E+00 -0.153626173E+00
   C  0.418078201E+01 -0.192159360E+00 -0.335409670E-01
   H -0.252501964E+02 -0.279807456E+01  0.102409200E+01
   H  0.243818020E+02  0.300806123E+01  0.171594068E+01
     4
 # iter = 53500  time[fs]=53.50000
   C -0.431707559E+01  0.182511569E+00 -0.155648485E+00
   C  0.424280047E+01 -0.195282206E+00 -0.341029414E-01
   H -0.256158692E+02 -0.283893924E+01  0.103923911E+01
   H  0.247301281E+02  0.305202972E+01  0.174061339E+01
     4
 # iter = 54000  time[fs]=54.00000
   C -0.438080852E+01  0.185639939E+00 -0.157672444E+00
   C  0.430489177E+01 -0.198409175E+00 -0.346645177E-01
   H -0.259816678E+02 -0.287981937E+01  0.105439155E+01
   H  0.250785868E+02  0.309601627E+01  0.176529575E+01
     4
 # iter = 54500  time[fs]=54.50000
   C -0.444461276E+01  0.188772109E+00 -0.159698001E+00
   C  0.436705382E+01 -0.201540156E+00 -0.352257112E-01
   H -0.263475885E+02 -0.292071451E+01  0.106954918E+01
   H  0.254271745E+02  0.314002038E+01  0.178998749E+01
     4
 # iter = 55000  time[fs]=55.00000
   C -0.450848628E+01  0.191907978E+00 -0.161725108E+00
   C  0.442928460E+01 -0.204675041E+00 -0.357865363E-01
   H -0.267136280E+02 -0.296162427E+01  0.108471187E+01
   H  0.257758876E+02  0.318404158E+01  0.181468837E+01
     4
 # iter = 55500  time[fs]=55.50000
   C -0.457242715E+01  0.195047447E+00 -0.163753719E+00
   C  0.449158218E+01 -0.207813730E+00 -0.363470067E-01
   H -0.270797831E+02 -0.300254825E+01  0.109987946E+01
   H  0.261247227E+02  0.322807942E+01  0.183939814E+01
     4
 # iter = 56000  time[fs]=56.00000
   C -0.463643348E+01  0.198190424E+00 -0.165783792E+00
   C  0.455394471E+01 -0.210956122E+00 -0.369071356E-01
   H -0.274460506E+02 -0.304348608E+01  0.111505183E+01
   H  0.264736767E+02  0.327213347E+01  0.186411656E+01
     4
 # iter = 56500  time[fs]=56.50000
   C -0.470050350E+01  0.201336817E+00 -0.167815284E+00
   C  0.461637040E+01 -0.214102123E+00 -0.374669353E-01
   H -0.278124278E+02 -0.308443738E+01  0.113022887E+01
   H  0.268227464E+02  0.331620331E+01  0.188884341E+01
     4
 # iter = 57000  time[fs]=57.00000
   C -0.476463548E+01  0.204486541E+00 -0.169848157E+00
   C  0.467885754E+01 -0.217251643E+00 -0.380264176E-01
   H -0.281789115E+02 -0.312540182E+01  0.114541044E+01
   H  0.271719289E+02  0.336028853E+01  0.191357847E+01
     4
 # iter = 57500  time[fs]=57.50000
   C -0.482882776E+01  0.207639510E+00 -0.171882370E+00
   C  0.474140450E+01 -0.220404592E+00 -0.385855939E-01
   H -0.285454992E+02 -0.316637905E+01  0.116059642E+01
   H  0.275212212E+02  0.340438876E+01  0.193832154E+01
     4
 # iter = 58000  time[fs]=58.00000
   C -0.489307877E+01  0.210795645E+00 -0.173917889E+00
   C  0.480400969E+01 -0.223560886E+00 -0.391444747E-01
   H -0.289121881E+02 -0.320736876E+01  0.117578672E+01
   H  0.278706206E+02  0.344850361E+01  0.196307241E+01
     4
 # iter = 58500  time[fs]=58.50000
   C -0.495738696E+01  0.213954868E+00 -0.175954677E+00
   C  0.486667159E+01 -0.226720443E+00 -0.397030704E-01
   H -0.292789758E+02 -0.324837064E+01  0.119098122E+01
   H  0.282201245E+02  0.349263273E+01  0.198783090E+01
     4
 # iter = 59000  time[fs]=59.00000
   C -0.502175087E+01  0.217117104E+00 -0.177992701E+00
   C  0.492938874E+01 -0.229883184E+00 -0.402613907E-01
   H -0.296458598E+02 -0.328938438E+01  0.120617982E+01
   H  0.285697302E+02  0.353677577E+01  0.201259681E+01
     4
 # iter = 59500  time[fs]=59.50000
   C -0.508616909E+01  0.220282281E+00 -0.180031928E+00
   C  0.499215974E+01 -0.233049034E+00 -0.408194448E-01
   H -0.300128376E+02 -0.333040969E+01  0.122138242E+01
   H  0.289194353E+02  0.358093240E+01  0.203736996E+01
     4
 # iter = 60000  time[fs]=60.00000
   C -0.515064024E+01  0.223450328E+00 -0.182072327E+00
   C  0.505498323E+01 -0.236217918E+00 -0.413772417E-01
   H -0.303799071E+02 -0.337144631E+01  0.123658891E+01
   H  0.292692374E+02  0.362510230E+01  0.206215019E+01
     4
 # iter = 60500  time[fs]=60.50000
   C -0.521516301E+01  0.226621178E+00 -0.184113868E+00
   C  0.511785791E+01 -0.239389766E+00 -0.419347898E-01
   H -0.307470660E+02 -0.341249396E+01  0.125179922E+01
   H  0.296191342E+02  0.366928516E+01  0.208693732E+01
     4
 # iter = 61000  time[fs]=61.00000
   C -0.527973613E+01  0.229794767E+00 -0.186156522E+00
   C  0.518078250E+01 -0.242564509E+00 -0.424920973E-01
   H -0.311143123E+02 -0.345355238E+01  0.126701325E+01
   H  0.299691235E+02  0.371348067E+01  0.211173120E+01
     4
 # iter = 61500  time[fs]=61.50000
   C -0.534435839E+01  0.232971031E+00 -0.188200260E+00
   C  0.524375581E+01 -0.245742081E+00 -0.430491718E-01
   H -0.314816438E+02 -0.349462133E+01  0.128223092E+01
   H  0.303192031E+02  0.375768856E+01  0.213653167E+01
     4
 # iter = 62000  time[fs]=62.00000
   C -0.540902860E+01  0.236149909E+00 -0.190245057E+00
   C  0.530677666E+01 -0.248922418E+00 -0.436060209E-01
   H -0.318490587E+02 -0.353570056E+01  0.129745213E+01
   H  0.306693710E+02  0.380190852E+01  0.216133858E+01
     4
 # iter = 62500  time[fs]=62.50000
   C -0.547374562E+01  0.239331343E+00 -0.192290885E+00
   C  0.536984391E+01 -0.252105458E+00 -0.441626517E-01
   H -0.322165549E+02 -0.357678984E+01  0.131267681E+01
   H  0.310196251E+02  0.384614031E+01  0.218615179E+01
     4
 # iter = 63000  time[fs]=63.00000
   C -0.553850836E+01  0.242515276E+00 -0.194337721E+00
   C  0.543295649E+01 -0.255291141E+00 -0.447190708E-01
   H -0.325841308E+02 -0.361788894E+01  0.132790489E+01
   H  0.313699636E+02  0.389038366E+01  0.221097114E+01
     4
 # iter = 63500  time[fs]=63.50000
   C -0.560331575E+01  0.245701653E+00 -0.196385539E+00
   C  0.549611333E+01 -0.258479410E+00 -0.452752849E-01
   H -0.329517844E+02 -0.365899765E+01  0.134313629E+01
   H  0.317203845E+02  0.393463830E+01  0.223579652E+01
     4
 # iter = 64000  time[fs]=64.00000
   C -0.566816677E+01  0.248890420E+00 -0.198434318E+00
   C  0.555931341E+01 -0.261670207E+00 -0.458313003E-01
   H -0.333195140E+02 -0.370011576E+01  0.135837093E+01
   H  0.320708861E+02  0.397890401E+01  0.226062778E+01
     4
 # iter = 64500  time[fs]=64.50000
   C -0.573306043E+01  0.252081526E+00 -0.200484034E+00
   C  0.562255576E+01 -0.264863479E+00 -0.463871228E-01
   H -0.336873181E+02 -0.374124306E+01  0.137360874E+01
   H  0.324214666E+02  0.402318054E+01  0.228546481E+01
     4
 # iter = 65000  time[fs]=65.00000
   C -0.579799576E+01  0.255274921E+00 -0.202534665E+00
   C  0.568583942E+01 -0.268059174E+00 -0.469427584E-01
   H -0.340551950E+02 -0.378237935E+01  0.138884966E+01
   H  0.327721242E+02  0.406746766E+01  0.231030747E+01
     4
 # iter = 65500  time[fs]=65.50000
   C -0.586297185E+01  0.258470557E+00 -0.204586191E+00
   C  0.574916346E+01 -0.271257239E+00 -0.474982124E-01
   H -0.344231430E+02 -0.382352445E+01  0.140409362E+01
   H  0.331228575E+02  0.411176515E+01  0.233515564E+01
     4
 # iter = 66000  time[fs]=66.00000
   C -0.592798779E+01  0.261668387E+00 -0.206638591E+00
   C  0.581252700E+01 -0.274457626E+00 -0.480534902E-01
   H -0.347911608E+02 -0.386467816E+01  0.141934055E+01
   H  0.334736647E+02  0.415607280E+01  0.236000922E+01
     4
 # iter = 66500  time[fs]=66.50000
   C -0.599304271E+01  0.264868365E+00 -0.208691847E+00
   C  0.587592918E+01 -0.277660287E+00 -0.486085969E-01
   H -0.351592469E+02 -0.390584032E+01  0.143459040E+01
   H  0.338245443E+02  0.420039039E+01  0.238486809E+01
     4
 # iter = 67000  time[fs]=67.00000
   C -0.605813577E+01  0.268070447E+00 -0.210745938E+00
   C  0.593936917E+01 -0.280865176E+00 -0.491635373E-01
   H -0.355273998E+02 -0.394701075E+01  0.144984311E+01
   H  0.341754949E+02  0.424471772E+01  0.240973215E+01
     4
 # iter = 67500  time[fs]=67.50000
   C -0.612326617E+01  0.271274590E+00 -0.212800847E+00
   C  0.600284614E+01 -0.284072246E+00 -0.497183163E-01
   H -0.358956182E+02 -0.398818927E+01  0.146509861E+01
   H  0.345265150E+02  0.428905461E+01  0.243460128E+01
     4
 # iter = 68000  time[fs]=68.00000
   C -0.618843310E+01  0.274480754E+00 -0.214856555E+00
   C  0.606635933E+01 -0.287281456E+00 -0.502729383E-01
   H -0.362639007E+02 -0.402937573E+01  0.148035685E+01
   H  0.348776032E+02  0.433340085E+01  0.245947538E+01
     4
 # iter = 68500  time[fs]=68.50000
   C -0.625363581E+01  0.277688897E+00 -0.216913047E+00
   C  0.612990796E+01 -0.290492761E+00 -0.508274077E-01
   H -0.366322460E+02 -0.407056996E+01  0.149561777E+01
   H  0.352287581E+02  0.437775626E+01  0.248435436E+01
     4
 # iter = 69000  time[fs]=69.00000
   C -0.631887355E+01  0.280898981E+00 -0.218970304E+00
   C  0.619349131E+01 -0.293706121E+00 -0.513817287E-01
   H -0.370006529E+02 -0.411177182E+01  0.151088133E+01
   H  0.355799784E+02  0.442212067E+01  0.250923813E+01
     4
 # iter = 69500  time[fs]=69.50000
   C -0.638414561E+01  0.284110967E+00 -0.221028312E+00
   C  0.625710866E+01 -0.296921495E+00 -0.519359053E-01
   H -0.373691202E+02 -0.415298115E+01  0.152614746E+01
   H  0.359312628E+02  0.446649389E+01  0.253412657E+01
     4
 # iter = 70000  time[fs]=70.00000
   C -0.644945128E+01  0.287324819E+00 -0.223087053E+00
   C  0.632075932E+01 -0.300138846E+00 -0.524899414E-01
   H -0.377376467E+02 -0.419419780E+01  0.154141613E+01
   H  0.362826101E+02  0.451087577E+01  0.255901962E+01
     4
 # iter = 70500  time[fs]=70.50000
   C -0.651478989E+01  0.290540501E+00 -0.225146514E+00
   C  0.638444262E+01 -0.303358134E+00 -0.530438409E-01
   H -0.381062312E+02 -0.423542165E+01  0.155668728E+01
   H  0.366340190E+02  0.455526613E+01  0.258391717E+01
     4
 # iter = 71000  time[fs]=71.00000
   C -0.658016078E+01  0.293757978E+00 -0.227206680E+00
   C  0.644815791E+01 -0.306579324E+00 -0.535976072E-01
   H -0.384748727E+02 -0.427665255E+01  0.157196086E+01
   H  0.369854885E+02  0.459966482E+01  0.260881915E+01
     4
 # iter = 71500  time[fs]=71.50000
   C -0.664556332E+01  0.296977217E+00 -0.229267536E+00
   C  0.651190454E+01 -0.309802379E+00 -0.541512439E-01
   H -0.388435700E+02 -0.431789036E+01  0.158723683E+01
   H  0.373370173E+02  0.464407167E+01  0.263372547E+01
     4
 # iter = 72000  time[fs]=72.00000
   C -0.671099689E+01  0.300198183E+00 -0.231329068E+00
   C  0.657568192E+01 -0.313027266E+00 -0.547047543E-01
   H -0.392123221E+02 -0.435913497E+01  0.160251514E+01
   H  0.376886044E+02  0.468848655E+01  0.265863604E+01
     4
 # iter = 72500  time[fs]=72.50000
   C -0.677646087E+01  0.303420846E+00 -0.233391263E+00
   C  0.663948943E+01 -0.316253949E+00 -0.552581418E-01
   H -0.395811279E+02 -0.440038623E+01  0.161779576E+01
   H  0.380402486E+02  0.473290930E+01  0.268355080E+01
     4
 # iter = 73000  time[fs]=73.00000
   C -0.684195470E+01  0.306645174E+00 -0.235454109E+00
   C  0.670332651E+01 -0.319482396E+00 -0.558114093E-01
   H -0.399499866E+02 -0.444164404E+01  0.163307863E+01
   H  0.383919489E+02  0.477733978E+01  0.270846966E+01
     4
 # iter = 73500  time[fs]=73.50000
   C -0.690747779E+01  0.309871137E+00 -0.237517592E+00
   C  0.676719258E+01 -0.322712576E+00 -0.563645601E-01
   H -0.403188970E+02 -0.448290827E+01  0.164836372E+01
   H  0.387437043E+02  0.482177784E+01  0.273339255E+01
     4
 # iter = 74000  time[fs]=74.00000
   C -0.697302961E+01  0.313098705E+00 -0.239581700E+00
   C  0.683108710E+01 -0.325944456E+00 -0.569175969E-01
   H -0.406878584E+02 -0.452417881E+01  0.166365099E+01
   H  0.390955138E+02  0.486622337E+01  0.275831939E+01
     4
 # iter = 74500  time[fs]=74.50000
   C -0.703860960E+01  0.316327849E+00 -0.241646421E+00
   C  0.689500954E+01 -0.329178007E+00 -0.574705226E-01
   H -0.410568696E+02 -0.456545554E+01  0.167894039E+01
   H  0.394473765E+02  0.491067621E+01  0.278325013E+01
     4
 # iter = 75000  time[fs]=75.00000
   C -0.710421725E+01  0.319558543E+00 -0.243711744E+00
   C  0.695895938E+01 -0.332413200E+00 -0.580233400E-01
   H -0.414259300E+02 -0.460673836E+01  0.169423190E+01
   H  0.397992913E+02  0.495513626E+01  0.280818468E+01
     4
 # iter = 75500  time[fs]=75.50000
   C -0.716985206E+01  0.322790757E+00 -0.245777657E+00
   C  0.702293611E+01 -0.335650004E+00 -0.585760516E-01
   H -0.417950385E+02 -0.464802715E+01  0.170952547E+01
   H  0.401512574E+02  0.499960337E+01  0.283312299E+01
     4
 # iter = 76000  time[fs]=76.00000
   C -0.723551351E+01  0.326024467E+00 -0.247844149E+00
   C  0.708693924E+01 -0.338888394E+00 -0.591286601E-01
   H -0.421641944E+02 -0.468932182E+01  0.172482106E+01
   H  0.405032738E+02  0.504407743E+01  0.285806498E+01
     4
 # iter = 76500  time[fs]=76.50000
   C -0.730120115E+01  0.329259645E+00 -0.249911210E+00
   C  0.715096830E+01 -0.342128340E+00 -0.596811679E-01
   H -0.425333968E+02 -0.473062226E+01  0.174011865E+01
   H  0.408553398E+02  0.508855832E+01  0.288301060E+01
     4
 # iter = 77000  time[fs]=77.00000
   C -0.736691448E+01  0.332496267E+00 -0.251978830E+00
   C  0.721502282E+01 -0.345369816E+00 -0.602335774E-01
   H -0.429026450E+02 -0.477192837E+01  0.175541820E+01
   H  0.412074544E+02  0.513304592E+01  0.290795977E+01
     4
 # iter = 77500  time[fs]=77.50000
   C -0.743265307E+01  0.335734309E+00 -0.254046998E+00
   C  0.727910235E+01 -0.348612798E+00 -0.607858909E-01
   H -0.432719380E+02 -0.481324006E+01  0.177071967E+01
   H  0.415596169E+02  0.517754013E+01  0.293291245E+01
     4
 # iter = 78000  time[fs]=78.00000
   C -0.749841646E+01  0.338973746E+00 -0.256115704E+00
   C  0.734320644E+01 -0.351857258E+00 -0.613381106E-01
   H -0.436412753E+02 -0.485455724E+01  0.178602304E+01
   H  0.419118264E+02  0.522204082E+01  0.295786857E+01
     4
 # iter = 78500  time[fs]=78.50000
   C -0.756420422E+01  0.342214554E+00 -0.258184939E+00
   C  0.740733467E+01 -0.355103173E+00 -0.618902388E-01
   H -0.440106560E+02 -0.489587981E+01  0.180132827E+01
   H  0.422640821E+02  0.526654790E+01  0.298282808E+01
     4
 # iter = 79000  time[fs]=79.00000
   C -0.763001592E+01  0.345456712E+00 -0.260254693E+00
   C  0.747148663E+01 -0.358350518E+00 -0.624422775E-01
   H -0.443800794E+02 -0.493720768E+01  0.181663533E+01
   H  0.426163833E+02  0.531106126E+01  0.300779092E+01
     4
 # iter = 79500  time[fs]=79.50000
   C -0.769585117E+01  0.348700197E+00 -0.262324958E+00
   C  0.753566189E+01 -0.361599270E+00 -0.629942288E-01
   H -0.447495449E+02 -0.497854077E+01  0.183194418E+01
   H  0.429687292E+02  0.535558080E+01  0.303275703E+01
     4
 # iter = 80000  time[fs]=80.00000
   C -0.776170955E+01  0.351944987E+00 -0.264395725E+00
   C  0.759986007E+01 -0.364849407E+00 -0.635460945E-01
   H -0.451190516E+02 -0.501987899E+01  0.184725481E+01
   H  0.433211191E+02  0.540010641E+01  0.305772637E+01
