     4
 # iter = 25000  time[fs]=25.00000
   C -0.972840829E+00  0.118075407E-01 -0.917352203E-02
   C  0.100565247E+01 -0.142883895E-01 -0.503515700E-03
   H -0.522663237E+01  0.563179792E+00 -0.590360844E+00
   H  0.534644619E+01 -0.556536621E+00  0.697928655E+00
     4
 # iter = 25500  time[fs]=25.50000
   C -0.101786165E+01  0.106040423E-01 -0.634169417E-02
   C  0.104987314E+01 -0.122324778E-01 -0.251982929E-02
   H -0.555781607E+01  0.599457487E+00 -0.625728971E+00
   H  0.566219410E+01 -0.589074679E+00  0.740745851E+00
     4
 # iter = 26000  time[fs]=26.00000
   C -0.106577618E+01  0.941452018E-02 -0.349699589E-02
   C  0.109693530E+01 -0.101831448E-01 -0.456927028E-02
   H -0.589400356E+01  0.636301032E+00 -0.661688755E+00
   H  0.598357232E+01 -0.622267358E+00  0.784397789E+00
     4
 # iter = 26500  time[fs]=26.50000
   C -0.111634127E+01  0.823298835E-02 -0.634811555E-03
   C  0.114659977E+01 -0.813496781E-02 -0.665463575E-02
   H -0.623463595E+01  0.673646948E+00 -0.698172788E+00
   H  0.630997447E+01 -0.656044419E+00  0.828795236E+00
     4
 # iter = 27000  time[fs]=27.00000
   C -0.116933106E+01  0.705460895E-02  0.224829007E-02
   C  0.119864435E+01 -0.608362261E-02 -0.877775259E-02
   H -0.657923808E+01  0.711441421E+00 -0.735124101E+00
   H  0.664088147E+01 -0.690345886E+00  0.873861973E+00
     4
 # iter = 27500  time[fs]=27.50000
   C -0.122453778E+01  0.587553840E-02  0.515474589E-02
   C  0.125286463E+01 -0.402573246E-02 -0.109396392E-01
   H -0.692740338E+01  0.749638509E+00 -0.772494189E+00
   H  0.697584641E+01 -0.725120213E+00  0.919532470E+00
     4
 # iter = 28000  time[fs]=28.00000
   C -0.128177162E+01  0.469277260E-02  0.808618083E-02
   C  0.130907387E+01 -0.195871664E-02 -0.131406628E-01
   H -0.727878180E+01  0.788198726E+00 -0.810241463E+00
   H  0.731448245E+01 -0.760322834E+00  0.965750049E+00
     4
 # iter = 28500  time[fs]=28.50000
   C -0.134086008E+01  0.350400295E-02  0.110435715E-01
   C  0.136710235E+01  0.119349525E-03 -0.153806819E-01
   H -0.763307019E+01  0.827087921E+00 -0.848330032E+00
   H  0.765645293E+01 -0.795914991E+00  0.101246540E+01
     4
 # iter = 29000  time[fs]=29.00000
   C -0.140164690E+01  0.230748883E-02  0.140273872E-01
   C  0.142679635E+01  0.220985836E-02 -0.176591682E-01
   H -0.799000459E+01  0.866276389E+00 -0.886728737E+00
   H  0.800146341E+01 -0.831862799E+00  0.105963539E+01
     4
 # iter = 29500  time[fs]=29.50000
   C -0.146399087E+01  0.110194817E-02  0.170377069E-01
   C  0.148801699E+01  0.431377560E-02 -0.199753084E-01
   H -0.834935400E+01  0.905738149E+00 -0.925410375E+00
   H  0.834925517E+01 -0.868136482E+00  0.110722212E+01
     4
 # iter = 30000  time[fs]=30.00000
   C -0.152776457E+01 -0.113534431E-03  0.200743156E-01
   C  0.155063893E+01  0.643172890E-02 -0.223280864E-01
   H -0.871091525E+01  0.945450366E+00 -0.964351071E+00
   H  0.869959985E+01 -0.904709750E+00  0.115519209E+01
     4
 # iter = 30500  time[fs]=30.50000
   C -0.159285304E+01 -0.133958351E-02  0.231367809E-01
   C  0.161454914E+01  0.856408064E-02 -0.247163487E-01
   H -0.907450889E+01  0.985392870E+00 -0.100352977E+01
   H  0.905229504E+01 -0.941559290E+00  0.120351559E+01
     4
 # iter = 31000  time[fs]=31.00000
   C -0.165915261E+01 -0.257659464E-02  0.262245141E-01
   C  0.167964567E+01  0.107109871E-01 -0.271388557E-01
   H -0.943997568E+01  0.102554777E+01 -0.104292782E+01
   H  0.940716060E+01 -0.978664339E+00  0.125216617E+01
     4
 # iter = 31500  time[fs]=31.50000
   C -0.172656971E+01 -0.382478451E-02  0.293368178E-01
   C  0.174583656E+01  0.128724462E-01 -0.295943202E-01
   H -0.980717382E+01  0.106589913E+01 -0.108252863E+01
   H  0.976403563E+01 -0.101600634E+01  0.130112015E+01
     4
 # iter = 32000  time[fs]=32.00000
   C -0.179501984E+01 -0.508423112E-02  0.324729227E-01
   C  0.181303875E+01  0.150483355E-01 -0.320814379E-01
   H -0.101759765E+02  0.110643271E+01 -0.112231737E+01
   H  0.101227759E+02 -0.105356863E+01  0.135035628E+01
     4
 # iter = 32500  time[fs]=32.50000
   C -0.186442658E+01 -0.635490595E-02  0.356320161E-01
   C  0.188117717E+01  0.172384424E-01 -0.345989087E-01
   H -0.105462699E+02  0.114713570E+01 -0.116228075E+01
   H  0.104832516E+02 -0.109133621E+01  0.139985543E+01
     4
 # iter = 33000  time[fs]=33.00000
   C -0.193472078E+01 -0.763669949E-02  0.388132631E-01
   C  0.195018387E+01  0.194424883E-01 -0.371454532E-01
   H -0.109179516E+02  0.118799660E+01 -0.120240682E+01
   H  0.108453456E+02 -0.112929554E+01  0.144960031E+01
     4
 # iter = 33500  time[fs]=33.50000
   C -0.200583972E+01 -0.892944159E-02  0.420158230E-01
   C  0.201999726E+01  0.216601472E-01 -0.397198238E-01
   H -0.112909292E+02  0.122900499E+01 -0.124268477E+01
   H  0.112089521E+02 -0.116743434E+01  0.149957523E+01
     4
 # iter = 34000  time[fs]=34.00000
   C -0.207772645E+01 -0.102329174E-01  0.452388612E-01
   C  0.209056142E+01  0.238910604E-01 -0.423208131E-01
   H -0.116651186E+02  0.127015145E+01 -0.128310484E+01
   H  0.115739748E+02 -0.120574145E+01  0.154976595E+01
     4
 # iter = 34500  time[fs]=34.50000
   C -0.215032919E+01 -0.115468801E-01  0.484815575E-01
   C  0.216182552E+01  0.261348481E-01 -0.449472582E-01
   H -0.120404439E+02  0.131142740E+01 -0.132365814E+01
   H  0.119403260E+02 -0.124420669E+01  0.160015948E+01
     4
 # iter = 35000  time[fs]=35.00000
   C -0.222360074E+01 -0.128710607E-01  0.517431129E-01
   C  0.223374325E+01  0.283911182E-01 -0.475980446E-01
   H -0.124168357E+02  0.135282502E+01 -0.136433658E+01
   H  0.123079261E+02 -0.128282079E+01  0.165074394E+01
     4
 # iter = 35500  time[fs]=35.50000
   C -0.229749806E+01 -0.142051758E-01  0.550227533E-01
   C  0.230627236E+01  0.306594731E-01 -0.502721070E-01
   H -0.127942305E+02  0.139433718E+01 -0.140513279E+01
   H  0.126767017E+02 -0.132157524E+01  0.170150845E+01
     4
 # iter = 36000  time[fs]=36.00000
   C -0.237198178E+01 -0.155489336E-01  0.583197324E-01
   C  0.237937425E+01  0.329395149E-01 -0.529684302E-01
   H -0.131725704E+02  0.143595733E+01 -0.144603999E+01
   H  0.130465860E+02 -0.136046220E+01  0.175244302E+01
     4
 # iter = 36500  time[fs]=36.50000
   C -0.244701586E+01 -0.169020386E-01  0.616333336E-01
   C  0.245301356E+01  0.352308495E-01 -0.556860482E-01
   H -0.135518022E+02  0.147767948E+01 -0.148705199E+01
   H  0.134175173E+02 -0.139947451E+01  0.180353846E+01
     4
 # iter = 37000  time[fs]=37.00000
   C -0.252256723E+01 -0.182641952E-01  0.649628705E-01
   C  0.252715789E+01  0.375330893E-01 -0.584240433E-01
   H -0.139318769E+02  0.151949809E+01 -0.152816307E+01
   H  0.137894389E+02 -0.143860552E+01  0.185478628E+01
     4
 # iter = 37500  time[fs]=37.50000
   C -0.259860553E+01 -0.196351104E-01  0.683076870E-01
   C  0.260177745E+01  0.398458554E-01 -0.611815448E-01
   H -0.143127494E+02  0.156140807E+01 -0.156936798E+01
   H  0.141622985E+02 -0.147784911E+01  0.190617866E+01
     4
 # iter = 38000  time[fs]=38.00000
   C -0.267510280E+01 -0.210144957E-01  0.716671574E-01
   C  0.267684487E+01  0.421687793E-01 -0.639577270E-01
   H -0.146943780E+02  0.160340471E+01 -0.161066186E+01
   H  0.145360477E+02 -0.151719962E+01  0.195770832E+01
     4
 # iter = 38500  time[fs]=38.50000
   C -0.275203326E+01 -0.224020690E-01  0.750406857E-01
   C  0.275233488E+01  0.445015037E-01 -0.667518072E-01
   H -0.150767242E+02  0.164548365E+01 -0.165204022E+01
   H  0.149106417E+02 -0.155665178E+01  0.200936854E+01
     4
 # iter = 39000  time[fs]=39.00000
   C -0.282937312E+01 -0.237975550E-01  0.784277042E-01
   C  0.282822418E+01  0.468436833E-01 -0.695630440E-01
   H -0.154597523E+02  0.168764084E+01 -0.169349888E+01
   H  0.152860389E+02 -0.159620070E+01  0.206115305E+01
     4
 # iter = 39500  time[fs]=39.50000
   C -0.290710039E+01 -0.252006869E-01  0.818276734E-01
   C  0.290449123E+01  0.491949851E-01 -0.723907350E-01
   H -0.158434290E+02  0.172987254E+01 -0.173503397E+01
   H  0.156622005E+02 -0.163584184E+01  0.211305605E+01
     4
 # iter = 40000  time[fs]=40.00000
   C -0.298519468E+01 -0.266112060E-01  0.852400802E-01
   C  0.298111608E+01  0.515550886E-01 -0.752342147E-01
   H -0.162277236E+02  0.177217524E+01 -0.177664189E+01
   H  0.160390907E+02 -0.167557095E+01  0.216507209E+01
     4
 # iter = 40500  time[fs]=40.50000
   C -0.306363708E+01 -0.280288624E-01  0.886644369E-01
   C  0.305808022E+01  0.539236859E-01 -0.780928526E-01
   H -0.166126072E+02  0.181454569E+01 -0.181831930E+01
   H  0.164166759E+02 -0.171538409E+01  0.221719611E+01
     4
 # iter = 41000  time[fs]=41.00000
   C -0.314241006E+01 -0.294534153E-01  0.921002801E-01
   C  0.313536648E+01  0.563004812E-01 -0.809660515E-01
   H -0.169980531E+02  0.185698083E+01 -0.186006304E+01
   H  0.167949247E+02 -0.175527755E+01  0.226942336E+01
     4
 # iter = 41500  time[fs]=41.50000
   C -0.322149727E+01 -0.308846326E-01  0.955471697E-01
   C  0.321295888E+01  0.586851911E-01 -0.838532449E-01
   H -0.173840362E+02  0.189947784E+01 -0.190187020E+01
   H  0.171738078E+02 -0.179524787E+01  0.232174941E+01
     4
 # iter = 42000  time[fs]=42.00000
   C -0.330088351E+01 -0.323222914E-01  0.990046873E-01
   C  0.329084255E+01  0.610775437E-01 -0.867538961E-01
   H -0.177705330E+02  0.194203403E+01 -0.194373804E+01
   H  0.175532979E+02 -0.183529180E+01  0.237417009E+01
     4
 # iter = 42500  time[fs]=42.50000
   C -0.338055459E+01 -0.337661771E-01  0.102472435E+00
   C  0.336900361E+01  0.634772786E-01 -0.896674957E-01
   H -0.181575216E+02  0.198464693E+01 -0.198566398E+01
   H  0.179333691E+02 -0.187540628E+01  0.242668149E+01
     4
 # iter = 43000  time[fs]=43.00000
   C -0.346049727E+01 -0.352160838E-01  0.105950035E+00
   C  0.344742911E+01  0.658841465E-01 -0.925935604E-01
   H -0.185449813E+02  0.202731417E+01 -0.202764562E+01
   H  0.183139973E+02 -0.191558847E+01  0.247927995E+01
     4
 # iter = 43500  time[fs]=43.50000
   C -0.354069915E+01 -0.366718141E-01  0.109437129E+00
   C  0.352610694E+01  0.682979088E-01 -0.955316315E-01
   H -0.189328929E+02  0.207003356E+01 -0.206968069E+01
   H  0.186951597E+02 -0.195583565E+01  0.253196200E+01
     4
 # iter = 44000  time[fs]=44.00000
   C -0.362114864E+01 -0.381331781E-01  0.112933373E+00
   C  0.360502577E+01  0.707183369E-01 -0.984812731E-01
   H -0.193212380E+02  0.211280303E+01 -0.211176706E+01
   H  0.190768352E+02 -0.199614529E+01  0.258472437E+01
     4
 # iter = 44500  time[fs]=44.50000
   C -0.370183487E+01 -0.395999942E-01  0.116438443E+00
   C  0.368417498E+01  0.731452122E-01 -0.101442071E+00
   H -0.197099996E+02  0.215562062E+01 -0.215390273E+01
   H  0.194590034E+02 -0.203651499E+01  0.263756401E+01
     4
 # iter = 45000  time[fs]=45.00000
   C -0.378274764E+01 -0.410720879E-01  0.119952029E+00
   C  0.376354459E+01  0.755783252E-01 -0.104413632E+00
   H -0.200991614E+02  0.219848448E+01 -0.219608579E+01
   H  0.198416453E+02 -0.207694248E+01  0.269047800E+01
     4
 # iter = 45500  time[fs]=45.50000
   C -0.386387737E+01 -0.425492920E-01  0.123473837E+00
   C  0.384312526E+01  0.780174755E-01 -0.107395580E+00
   H -0.204887082E+02  0.224139288E+01 -0.223831446E+01
   H  0.202247432E+02 -0.211742564E+01  0.274346361E+01
     4
 # iter = 46000  time[fs]=46.00000
   C -0.394521504E+01 -0.440314462E-01  0.127003585E+00
   C  0.392290819E+01  0.804624713E-01 -0.110387560E+00
   H -0.208786256E+02  0.228434417E+01 -0.228058705E+01
   H  0.206082799E+02 -0.215796244E+01  0.279651822E+01
     4
 # iter = 46500  time[fs]=46.50000
   C -0.402675218E+01 -0.455183966E-01  0.130541006E+00
   C  0.400288508E+01  0.829131288E-01 -0.113389233E+00
   H -0.212688999E+02  0.232733680E+01 -0.232290196E+01
   H  0.209922396E+02 -0.219855095E+01  0.284963940E+01
     4
 # iter = 47000  time[fs]=47.00000
   C -0.410848079E+01 -0.470099959E-01  0.134085844E+00
   C  0.408304814E+01  0.853692719E-01 -0.116400273E+00
   H -0.216595183E+02  0.237036929E+01 -0.236525769E+01
   H  0.213766069E+02 -0.223918937E+01  0.290282479E+01
     4
 # iter = 47500  time[fs]=47.50000
   C -0.419039332E+01 -0.485061027E-01  0.137637856E+00
   C  0.416339001E+01  0.878307322E-01 -0.119420374E+00
   H -0.220504685E+02  0.241344024E+01 -0.240765279E+01
   H  0.217613675E+02 -0.227987597E+01  0.295607220E+01
     4
 # iter = 48000  time[fs]=48.00000
   C -0.427248266E+01 -0.500065811E-01  0.141196809E+00
   C  0.424390373E+01  0.902973479E-01 -0.122449240E+00
   H -0.224417390E+02  0.245654833E+01 -0.245008591E+01
   H  0.221465077E+02 -0.232060911E+01  0.300937951E+01
     4
 # iter = 48500  time[fs]=48.50000
   C -0.435474208E+01 -0.515113012E-01  0.144762482E+00
   C  0.432458275E+01  0.927689643E-01 -0.125486591E+00
   H -0.228333187E+02  0.249969230E+01 -0.249255575E+01
   H  0.225320145E+02 -0.236138724E+01  0.306274473E+01
     4
 # iter = 49000  time[fs]=49.00000
   C -0.443716521E+01 -0.530201378E-01  0.148334662E+00
   C  0.440542084E+01  0.952454327E-01 -0.128532159E+00
   H -0.232251971E+02  0.254287095E+01 -0.253506108E+01
   H  0.229178758E+02 -0.240220888E+01  0.311616597E+01
     4
 # iter = 49500  time[fs]=49.50000
   C -0.451974602E+01 -0.545329712E-01  0.151913146E+00
   C  0.448641214E+01  0.977266108E-01 -0.131585688E+00
   H -0.236173645E+02  0.258608315E+01 -0.257760074E+01
   H  0.233040796E+02 -0.244307261E+01  0.316964140E+01
     4
 # iter = 50000  time[fs]=50.00000
   C -0.460247879E+01 -0.560496861E-01  0.155497741E+00
   C  0.456755106E+01  0.100212362E+00 -0.134646932E+00
   H -0.240098112E+02  0.262932780E+01 -0.262017362E+01
   H  0.236906148E+02 -0.248397711E+01  0.322316931E+01
     4
 # iter = 50500  time[fs]=50.50000
   C -0.468535812E+01 -0.575701719E-01  0.159088260E+00
   C  0.464883234E+01  0.102702555E+00 -0.137715658E+00
   H -0.244025282E+02  0.267260388E+01 -0.266277865E+01
   H  0.240774709E+02 -0.252492108E+01  0.327674806E+01
     4
 # iter = 51000  time[fs]=51.00000
   C -0.476837886E+01 -0.590943224E-01  0.162684528E+00
   C  0.473025095E+01  0.105197063E+00 -0.140791641E+00
   H -0.247955071E+02  0.271591041E+01 -0.270541483E+01
   H  0.244646377E+02 -0.256590330E+01  0.333037607E+01
     4
 # iter = 51500  time[fs]=51.50000
   C -0.485153612E+01 -0.606220353E-01  0.166286372E+00
   C  0.481180213E+01  0.107695767E+00 -0.143874666E+00
   H -0.251887396E+02  0.275924644E+01 -0.274808120E+01
   H  0.248521055E+02 -0.260692262E+01  0.338405184E+01
     4
 # iter = 52000  time[fs]=52.00000
   C -0.493482527E+01 -0.621532125E-01  0.169893631E+00
   C  0.489348136E+01  0.110198549E+00 -0.146964528E+00
   H -0.255822178E+02  0.280261107E+01 -0.279077683E+01
   H  0.252398651E+02 -0.264797792E+01  0.343777396E+01
     4
 # iter = 52500  time[fs]=52.50000
   C -0.501824187E+01 -0.636877596E-01  0.173506148E+00
   C  0.497528433E+01  0.112705298E+00 -0.150061031E+00
   H -0.259759345E+02  0.284600346E+01 -0.283350084E+01
   H  0.256279076E+02 -0.268906812E+01  0.349154104E+01
     4
 # iter = 53000  time[fs]=53.00000
   C -0.510178173E+01 -0.652255857E-01  0.177123773E+00
   C  0.505720695E+01  0.115215906E+00 -0.153163984E+00
   H -0.263698823E+02  0.288942277E+01 -0.287625240E+01
   H  0.260162247E+02 -0.273019223E+01  0.354535177E+01
     4
 # iter = 53500  time[fs]=53.50000
   C -0.518544084E+01 -0.667666034E-01  0.180746363E+00
   C  0.513924530E+01  0.117730270E+00 -0.156273207E+00
   H -0.267640545E+02  0.293286823E+01 -0.291903071E+01
   H  0.264048083E+02 -0.277134925E+01  0.359920492E+01
     4
 # iter = 54000  time[fs]=54.00000
   C -0.526921538E+01 -0.683107285E-01  0.184373779E+00
   C  0.522139568E+01  0.120248290E+00 -0.159388525E+00
   H -0.271584446E+02  0.297633909E+01 -0.296183499E+01
   H  0.267936507E+02 -0.281253826E+01  0.365309927E+01
     4
 # iter = 54500  time[fs]=54.50000
   C -0.535310169E+01 -0.698578800E-01  0.188005889E+00
   C  0.530365452E+01  0.122769872E+00 -0.162509772E+00
   H -0.275530463E+02  0.301983462E+01 -0.300466451E+01
   H  0.271827444E+02 -0.285375835E+01  0.370703367E+01
     4
 # iter = 55000  time[fs]=55.00000
   C -0.543709631E+01 -0.714079797E-01  0.191642566E+00
   C  0.538601844E+01  0.125294922E+00 -0.165636787E+00
   H -0.279478537E+02  0.306335414E+01 -0.304751855E+01
   H  0.275720824E+02 -0.289500868E+01  0.376100702E+01
     4
 # iter = 55500  time[fs]=55.50000
   C -0.552119590E+01 -0.729609526E-01  0.195283686E+00
   C  0.546848421E+01  0.127823352E+00 -0.168769416E+00
   H -0.283428609E+02  0.310689699E+01 -0.309039646E+01
   H  0.279616579E+02 -0.293628842E+01  0.381501827E+01
     4
 # iter = 56000  time[fs]=56.00000
   C -0.560539729E+01 -0.745167259E-01  0.198929133E+00
   C  0.555104872E+01  0.130355076E+00 -0.171907511E+00
   H -0.287380626E+02  0.315046253E+01 -0.313329756E+01
   H  0.283514645E+02 -0.297759677E+01  0.386906638E+01
     4
 # iter = 56500  time[fs]=56.50000
   C -0.568969743E+01 -0.760752299E-01  0.202578793E+00
   C  0.563370902E+01  0.132890012E+00 -0.175050928E+00
   H -0.291334534E+02  0.319405016E+01 -0.317622125E+01
   H  0.287414957E+02 -0.301893298E+01  0.392315040E+01
     4
 # iter = 57000  time[fs]=57.00000
   C -0.577409343E+01 -0.776363970E-01  0.206232557E+00
   C  0.571646228E+01  0.135428080E+00 -0.178199530E+00
   H -0.295290282E+02  0.323765928E+01 -0.321916693E+01
   H  0.291317457E+02 -0.306029632E+01  0.397726938E+01
     4
 # iter = 57500  time[fs]=57.50000
   C -0.585858249E+01 -0.792001622E-01  0.209890320E+00
   C  0.579930579E+01  0.137969203E+00 -0.181353185E+00
   H -0.299247822E+02  0.328128935E+01 -0.326213401E+01
   H  0.295222087E+02 -0.310168609E+01  0.403142241E+01
     4
 # iter = 58000  time[fs]=58.00000
   C -0.594316194E+01 -0.807664626E-01  0.213551980E+00
   C  0.588223695E+01  0.140513308E+00 -0.184511767E+00
   H -0.303207107E+02  0.332493981E+01 -0.330512194E+01
   H  0.299128791E+02 -0.314310161E+01  0.408560863E+01
     4
 # iter = 58500  time[fs]=58.50000
   C -0.602782923E+01 -0.823352375E-01  0.217217441E+00
   C  0.596525327E+01  0.143060323E+00 -0.187675151E+00
   H -0.307168092E+02  0.336861015E+01 -0.334813019E+01
   H  0.303037515E+02 -0.318454223E+01  0.413982720E+01
     4
 # iter = 59000  time[fs]=59.00000
   C -0.611258190E+01 -0.839064284E-01  0.220886609E+00
   C  0.604835237E+01  0.145610178E+00 -0.190843219E+00
   H -0.311130734E+02  0.341229986E+01 -0.339115826E+01
   H  0.306948209E+02 -0.322600732E+01  0.419407731E+01
     4
 # iter = 59500  time[fs]=59.50000
   C -0.619741759E+01 -0.854799787E-01  0.224559393E+00
   C  0.613153194E+01  0.148162808E+00 -0.194015858E+00
   H -0.315094990E+02  0.345600847E+01 -0.343420564E+01
   H  0.310860823E+02 -0.326749628E+01  0.424835820E+01
     4
 # iter = 60000  time[fs]=60.00000
   C -0.628233405E+01 -0.870558335E-01  0.228235705E+00
   C  0.621478981E+01  0.150718147E+00 -0.197192958E+00
   H -0.319060821E+02  0.349973551E+01 -0.347727186E+01
   H  0.314775309E+02 -0.330900854E+01  0.430266911E+01
     4
 # iter = 60500  time[fs]=60.50000
   C -0.636732910E+01 -0.886339401E-01  0.231915461E+00
   C  0.629812384E+01  0.153276134E+00 -0.200374411E+00
   H -0.323028189E+02  0.354348054E+01 -0.352035646E+01
   H  0.318691622E+02 -0.335054353E+01  0.435700933E+01
     4
 # iter = 61000  time[fs]=61.00000
   C -0.645240065E+01 -0.902142473E-01  0.235598579E+00
   C  0.638153201E+01  0.155836708E+00 -0.203560117E+00
   H -0.326997055E+02  0.358724311E+01 -0.356345900E+01
   H  0.322609718E+02 -0.339210071E+01  0.441137815E+01
     4
 # iter = 61500  time[fs]=61.50000
   C -0.653754670E+01 -0.917967055E-01  0.239284982E+00
   C  0.646501238E+01  0.158399810E+00 -0.206749974E+00
   H -0.330967384E+02  0.363102282E+01 -0.360657906E+01
   H  0.326529552E+02 -0.343367956E+01  0.446577491E+01
     4
 # iter = 62000  time[fs]=62.00000
   C -0.662276532E+01 -0.933812669E-01  0.242974592E+00
   C  0.654856305E+01  0.160965385E+00 -0.209943888E+00
   H -0.334939141E+02  0.367481927E+01 -0.364971622E+01
   H  0.330451085E+02 -0.347527957E+01  0.452019895E+01
     4
 # iter = 62500  time[fs]=62.50000
   C -0.670805464E+01 -0.949678851E-01  0.246667337E+00
   C  0.663218223E+01  0.163533378E+00 -0.213141766E+00
   H -0.338912293E+02  0.371863206E+01 -0.369287009E+01
   H  0.334374277E+02 -0.351690026E+01  0.457464966E+01
     4
 # iter = 63000  time[fs]=63.00000
   C -0.679341287E+01 -0.965565152E-01  0.250363146E+00
   C  0.671586818E+01  0.166103736E+00 -0.216343519E+00
   H -0.342886807E+02  0.376246082E+01 -0.373604029E+01
   H  0.338299090E+02 -0.355854117E+01  0.462912643E+01
     4
 # iter = 63500  time[fs]=63.50000
   C -0.687883829E+01 -0.981471137E-01  0.254061949E+00
   C  0.679961921E+01  0.168676408E+00 -0.219549060E+00
   H -0.346862652E+02  0.380630520E+01 -0.377922643E+01
   H  0.342225485E+02 -0.360020183E+01  0.468362867E+01
     4
 # iter = 64000  time[fs]=64.00000
   C -0.696432925E+01 -0.997396386E-01  0.257763681E+00
   C  0.688343372E+01  0.171251345E+00 -0.222758306E+00
   H -0.350839798E+02  0.385016483E+01 -0.382242817E+01
   H  0.346153428E+02 -0.364188180E+01  0.473815581E+01
     4
 # iter = 64500  time[fs]=64.50000
   C -0.704988413E+01 -0.101334049E+00  0.261468276E+00
   C  0.696731015E+01  0.173828498E+00 -0.225971174E+00
   H -0.354818215E+02  0.389403938E+01 -0.386564516E+01
   H  0.350082883E+02 -0.368358067E+01  0.479270732E+01
     4
 # iter = 65000  time[fs]=65.00000
   C -0.713550139E+01 -0.102930305E+00  0.265175673E+00
   C  0.705124699E+01  0.176407820E+00 -0.229187588E+00
   H -0.358797876E+02  0.393792853E+01 -0.390887706E+01
   H  0.354013818E+02 -0.372529801E+01  0.484728266E+01
     4
 # iter = 65500  time[fs]=65.50000
   C -0.722117955E+01 -0.104528369E+00  0.268885812E+00
   C  0.713524280E+01  0.178989267E+00 -0.232407470E+00
   H -0.362778753E+02  0.398183196E+01 -0.395212356E+01
   H  0.357946200E+02 -0.376703345E+01  0.490188132E+01
     4
 # iter = 66000  time[fs]=66.00000
   C -0.730691715E+01 -0.106128203E+00  0.272598633E+00
   C  0.721929618E+01  0.181572795E+00 -0.235630748E+00
   H -0.366760820E+02  0.402574936E+01 -0.399538433E+01
   H  0.361879997E+02 -0.380878657E+01  0.495650281E+01
     4
 # iter = 66500  time[fs]=66.50000
   C -0.739271282E+01 -0.107729771E+00  0.276314081E+00
   C  0.730340578E+01  0.184158362E+00 -0.238857349E+00
   H -0.370744052E+02  0.406968043E+01 -0.403865907E+01
   H  0.365815180E+02 -0.385055703E+01  0.501114664E+01
     4
 # iter = 67000  time[fs]=67.00000
   C -0.747856520E+01 -0.109333038E+00  0.280032100E+00
   C  0.738757030E+01  0.186745925E+00 -0.242087205E+00
   H -0.374728422E+02  0.411362489E+01 -0.408194749E+01
   H  0.369751718E+02 -0.389234444E+01  0.506581234E+01
     4
 # iter = 67500  time[fs]=67.50000
   C -0.756447300E+01 -0.110937971E+00  0.283752637E+00
   C  0.747178847E+01  0.189335446E+00 -0.245320249E+00
   H -0.378713908E+02  0.415758245E+01 -0.412524930E+01
   H  0.373689584E+02 -0.393414847E+01  0.512049948E+01
     4
 # iter = 68000  time[fs]=68.00000
   C -0.765043497E+01 -0.112544535E+00  0.287475641E+00
   C  0.755605908E+01  0.191926885E+00 -0.248556416E+00
   H -0.382700487E+02  0.420155286E+01 -0.416856424E+01
   H  0.377628749E+02 -0.397596878E+01  0.517520760E+01
     4
 # iter = 68500  time[fs]=68.50000
   C -0.773644990E+01 -0.114152700E+00  0.291201062E+00
   C  0.764038095E+01  0.194520205E+00 -0.251795642E+00
   H -0.386688135E+02  0.424553584E+01 -0.421189202E+01
   H  0.381569187E+02 -0.401780502E+01  0.522993629E+01
     4
 # iter = 69000  time[fs]=69.00000
   C -0.782251660E+01 -0.115762433E+00  0.294928850E+00
   C  0.772475294E+01  0.197115368E+00 -0.255037866E+00
   H -0.390676831E+02  0.428953114E+01 -0.425523239E+01
   H  0.385510872E+02 -0.405965690E+01  0.528468513E+01
     4
 # iter = 69500  time[fs]=69.50000
   C -0.790863395E+01 -0.117373705E+00  0.298658960E+00
   C  0.780917395E+01  0.199712340E+00 -0.258283029E+00
   H -0.394666554E+02  0.433353852E+01 -0.429858510E+01
   H  0.389453778E+02 -0.410152408E+01  0.533945373E+01
     4
 # iter = 70000  time[fs]=70.00000
   C -0.799480084E+01 -0.118986486E+00  0.302391344E+00
   C  0.789364291E+01  0.202311086E+00 -0.261531074E+00
   H -0.398657282E+02  0.437755774E+01 -0.434194991E+01
   H  0.393397883E+02 -0.414340628E+01  0.539424170E+01
     4
 # iter = 70500  time[fs]=70.50000
   C -0.808101621E+01 -0.120600748E+00  0.306125959E+00
   C  0.797815878E+01  0.204911572E+00 -0.264781943E+00
   H -0.402648997E+02  0.442158856E+01 -0.438532657E+01
   H  0.397343160E+02 -0.418530320E+01  0.544904865E+01
     4
 # iter = 71000  time[fs]=71.00000
   C -0.816727903E+01 -0.122216462E+00  0.309862761E+00
   C  0.806272058E+01  0.207513766E+00 -0.268035583E+00
   H -0.406641679E+02  0.446563076E+01 -0.442871485E+01
   H  0.401289589E+02 -0.422721455E+01  0.550387423E+01
     4
 # iter = 71500  time[fs]=71.50000
   C -0.825358830E+01 -0.123833601E+00  0.313601708E+00
   C  0.814732732E+01  0.210117635E+00 -0.271291941E+00
   H -0.410635309E+02  0.450968412E+01 -0.447211454E+01
   H  0.405237145E+02 -0.426914007E+01  0.555871808E+01
     4
 # iter = 72000  time[fs]=72.00000
   C -0.833994305E+01 -0.125452140E+00  0.317342761E+00
   C  0.823197807E+01  0.212723148E+00 -0.274550964E+00
   H -0.414629869E+02  0.455374843E+01 -0.451552541E+01
   H  0.409185808E+02 -0.431107948E+01  0.561357985E+01
     4
 # iter = 72500  time[fs]=72.50000
   C -0.842634234E+01 -0.127072053E+00  0.321085878E+00
   C  0.831667192E+01  0.215330276E+00 -0.277812604E+00
   H -0.418625340E+02  0.459782348E+01 -0.455894726E+01
   H  0.413135557E+02 -0.435303252E+01  0.566845921E+01
     4
 # iter = 73000  time[fs]=73.00000
   C -0.851278527E+01 -0.128693314E+00  0.324831021E+00
   C  0.840140798E+01  0.217938990E+00 -0.281076811E+00
   H -0.422621707E+02  0.464190907E+01 -0.460237987E+01
   H  0.417086371E+02 -0.439499894E+01  0.572335583E+01
     4
 # iter = 73500  time[fs]=73.50000
   C -0.859927094E+01 -0.130315900E+00  0.328578153E+00
   C  0.848618539E+01  0.220549260E+00 -0.284343539E+00
   H -0.426618951E+02  0.468600501E+01 -0.464582305E+01
   H  0.421038229E+02 -0.443697849E+01  0.577826939E+01
     4
 # iter = 74000  time[fs]=74.00000
   C -0.868579850E+01 -0.131939786E+00  0.332327237E+00
   C  0.857100333E+01  0.223161059E+00 -0.287612740E+00
   H -0.430617057E+02  0.473011110E+01 -0.468927660E+01
   H  0.424991114E+02 -0.447897094E+01  0.583319959E+01
     4
 # iter = 74500  time[fs]=74.50000
   C -0.877236711E+01 -0.133564951E+00  0.336078238E+00
   C  0.865586098E+01  0.225774360E+00 -0.290884371E+00
   H -0.434616009E+02  0.477422716E+01 -0.473274034E+01
   H  0.428945005E+02 -0.452097604E+01  0.588814613E+01
     4
 # iter = 75000  time[fs]=75.00000
   C -0.885897598E+01 -0.135191370E+00  0.339831121E+00
   C  0.874075756E+01  0.228389137E+00 -0.294158387E+00
   H -0.438615792E+02  0.481835301E+01 -0.477621408E+01
   H  0.432899885E+02 -0.456299358E+01  0.594310871E+01
     4
 # iter = 75500  time[fs]=75.50000
   C -0.894562430E+01 -0.136819023E+00  0.343585853E+00
   C  0.882569232E+01  0.231005363E+00 -0.297434747E+00
   H -0.442616390E+02  0.486248847E+01 -0.481969764E+01
   H  0.436855735E+02 -0.460502333E+01  0.599808704E+01
     4
 # iter = 76000  time[fs]=76.00000
   C -0.903231133E+01 -0.138447888E+00  0.347342400E+00
   C  0.891066450E+01  0.233623014E+00 -0.300713408E+00
   H -0.446617789E+02  0.490663338E+01 -0.486319084E+01
   H  0.440812538E+02 -0.464706508E+01  0.605308086E+01
     4
 # iter = 76500  time[fs]=76.50000
   C -0.911903632E+01 -0.140077945E+00  0.351100731E+00
   C  0.899567340E+01  0.236242066E+00 -0.303994331E+00
   H -0.450619974E+02  0.495078757E+01 -0.490669353E+01
   H  0.444770278E+02 -0.468911861E+01  0.610808988E+01
     4
 # iter = 77000  time[fs]=77.00000
   C -0.920579855E+01 -0.141709173E+00  0.354860815E+00
   C  0.908071831E+01  0.238862494E+00 -0.307277476E+00
   H -0.454622932E+02  0.499495088E+01 -0.495020552E+01
   H  0.448728938E+02 -0.473118372E+01  0.616311386E+01
     4
 # iter = 77500  time[fs]=77.50000
   C -0.929259732E+01 -0.143341552E+00  0.358622621E+00
   C  0.916579856E+01  0.241484276E+00 -0.310562804E+00
   H -0.458626649E+02  0.503912314E+01 -0.499372667E+01
   H  0.452688502E+02 -0.477326022E+01  0.621815252E+01
     4
 # iter = 78000  time[fs]=78.00000
   C -0.937943195E+01 -0.144975063E+00  0.362386119E+00
   C  0.925091348E+01  0.244107388E+00 -0.313850280E+00
   H -0.462631113E+02  0.508330421E+01 -0.503725682E+01
   H  0.456648953E+02 -0.481534791E+01  0.627320562E+01
     4
 # iter = 78500  time[fs]=78.50000
   C -0.946630177E+01 -0.146609688E+00  0.366151282E+00
   C  0.933606243E+01  0.246731809E+00 -0.317139866E+00
   H -0.466636310E+02  0.512749394E+01 -0.508079580E+01
   H  0.460610278E+02 -0.485744660E+01  0.632827293E+01
     4
 # iter = 79000  time[fs]=79.00000
   C -0.955320615E+01 -0.148245408E+00  0.369918081E+00
   C  0.942124480E+01  0.249357518E+00 -0.320431526E+00
   H -0.470642228E+02  0.517169218E+01 -0.512434348E+01
   H  0.464572461E+02 -0.489955610E+01  0.638335419E+01
     4
 # iter = 79500  time[fs]=79.50000
   C -0.964014445E+01 -0.149882205E+00  0.373686488E+00
   C  0.950645996E+01  0.251984492E+00 -0.323725227E+00
   H -0.474648854E+02  0.521589879E+01 -0.516789970E+01
   H  0.468535487E+02 -0.494167625E+01  0.643844918E+01
     4
 # iter = 80000  time[fs]=80.00000
   C -0.972711606E+01 -0.151520061E+00  0.377456477E+00
   C  0.959170732E+01  0.254612713E+00 -0.327020935E+00
   H -0.478656178E+02  0.526011362E+01 -0.521146433E+01
   H  0.472499343E+02 -0.498380685E+01  0.649355767E+01
