     4
 # iter = 25000  time[fs]=25.00000
   C -0.928318355E+00 -0.303078998E-01  0.489106210E-01
   C  0.104195841E+01 -0.228773585E-01  0.600183424E-02
   H -0.518925744E+01  0.307160888E+00 -0.195690706E+00
   H  0.536495491E+01  0.414194210E+00 -0.415397018E+00
     4
 # iter = 25500  time[fs]=25.50000
   C -0.969879178E+00 -0.328332978E-01  0.515844590E-01
   C  0.108765160E+01 -0.247839909E-01  0.762091314E-02
   H -0.552078483E+01  0.325554967E+00 -0.209170603E+00
   H  0.568528490E+01  0.439581826E+00 -0.441294615E+00
     4
 # iter = 26000  time[fs]=26.00000
   C -0.101442838E+01 -0.353984650E-01  0.543476241E-01
   C  0.113629258E+01 -0.267217221E-01  0.921204810E-02
   H -0.585756560E+01  0.344286219E+00 -0.222880447E+00
   H  0.601135537E+01  0.465482684E+00 -0.467698862E+00
     4
 # iter = 26500  time[fs]=26.50000
   C -0.106171884E+01 -0.379995593E-01  0.571908628E-01
   C  0.118763682E+01 -0.286864635E-01  0.107778165E-01
   H -0.619900661E+01  0.363315296E+00 -0.236794465E+00
   H  0.634254199E+01  0.491840966E+00 -0.494555420E+00
     4
 # iter = 27000  time[fs]=27.00000
   C -0.111151974E+01 -0.406332094E-01  0.601059812E-01
   C  0.124145603E+01 -0.306748713E-01  0.123207284E-01
   H -0.654460459E+01  0.382609135E+00 -0.250890866E+00
   H  0.667831123E+01  0.518609153E+00 -0.521817873E+00
     4
 # iter = 27500  time[fs]=27.50000
   C -0.116361789E+01 -0.432964431E-01  0.630857383E-01
   C  0.129753941E+01 -0.326841887E-01  0.138431517E-01
   H -0.689392965E+01  0.402139717E+00 -0.265151077E+00
   H  0.701820449E+01  0.545746514E+00 -0.549446317E+00
     4
 # iter = 28000  time[fs]=28.00000
   C -0.121781783E+01 -0.459866304E-01  0.661237422E-01
   C  0.135569376E+01 -0.347121233E-01  0.153472737E-01
   H -0.724661228E+01  0.421883118E+00 -0.279559151E+00
   H  0.736182534E+01  0.573217907E+00 -0.577406246E+00
     4
 # iter = 28500  time[fs]=28.50000
   C -0.127394148E+01 -0.487014375E-01  0.692143523E-01
   C  0.141574305E+01 -0.367567528E-01  0.168350848E-01
   H -0.760233295E+01  0.441818765E+00 -0.294101301E+00
   H  0.770882924E+01  0.600992828E+00 -0.605667641E+00
     4
 # iter = 29000  time[fs]=29.00000
   C -0.133182716E+01 -0.514387872E-01  0.723525894E-01
   C  0.147752756E+01 -0.388164514E-01  0.183083780E-01
   H -0.796081382E+01  0.461928854E+00 -0.308765540E+00
   H  0.805891522E+01  0.629044650E+00 -0.634204256E+00
     4
 # iter = 29500  time[fs]=29.50000
   C -0.139132855E+01 -0.541968269E-01  0.755340538E-01
   C  0.154090273E+01 -0.408898329E-01  0.197687565E-01
   H -0.832181203E+01  0.482197879E+00 -0.323541379E+00
   H  0.841181913E+01  0.657350008E+00 -0.662993023E+00
     4
 # iter = 30000  time[fs]=30.00000
   C -0.145231342E+01 -0.569739000E-01  0.787548530E-01
   C  0.160573795E+01 -0.429757053E-01  0.212176471E-01
   H -0.868511425E+01  0.502612267E+00 -0.338419598E+00
   H  0.876730803E+01  0.685888297E+00 -0.692013572E+00
     4
 # iter = 30500  time[fs]=30.50000
   C -0.151466236E+01 -0.597685224E-01  0.820115371E-01
   C  0.167191534E+01 -0.450730364E-01  0.226563153E-01
   H -0.905053223E+01  0.523160071E+00 -0.353392048E+00
   H  0.912517567E+01  0.714641266E+00 -0.721247841E+00
     4
 # iter = 31000  time[fs]=31.00000
   C -0.157826761E+01 -0.625793610E-01  0.853010429E-01
   C  0.173932850E+01 -0.471809256E-01  0.240858809E-01
   H -0.941789910E+01  0.543830726E+00 -0.368451495E+00
   H  0.948523862E+01  0.743592675E+00 -0.750679741E+00
     4
 # iter = 31500  time[fs]=31.50000
   C -0.164303187E+01 -0.654052162E-01  0.886206442E-01
   C  0.180788140E+01 -0.492985818E-01  0.255073343E-01
   H -0.978706637E+01  0.564614849E+00 -0.383591494E+00
   H  0.984733320E+01  0.772728018E+00 -0.780294888E+00
     4
 # iter = 32000  time[fs]=32.00000
   C -0.170886721E+01 -0.682450058E-01  0.919679096E-01
   C  0.187748728E+01 -0.514253057E-01  0.269215504E-01
   H -0.101579014E+02  0.585504070E+00 -0.398806274E+00
   H  0.102113127E+02  0.802034290E+00 -0.810080379E+00
     4
 # iter = 32500  time[fs]=32.50000
   C -0.177569413E+01 -0.710977518E-01  0.953406654E-01
   C  0.194806770E+01 -0.535604757E-01  0.283293028E-01
   H -0.105302852E+02  0.606490894E+00 -0.414090651E+00
   H  0.105770455E+02  0.831499788E+00 -0.840024590E+00
     4
 # iter = 33000  time[fs]=33.00000
   C -0.184344064E+01 -0.739625680E-01  0.987369636E-01
   C  0.201955168E+01 -0.557035361E-01  0.297312754E-01
   H -0.109041107E+02  0.627568586E+00 -0.429439955E+00
   H  0.109444124E+02  0.861113945E+00 -0.870117025E+00
     4
 # iter = 33500  time[fs]=33.50000
   C -0.191204147E+01 -0.768386501E-01  0.102155054E+00
   C  0.209187484E+01 -0.578539877E-01  0.311280733E-01
   H -0.112792814E+02  0.648731070E+00 -0.444849960E+00
   H  0.113133062E+02  0.890867195E+00 -0.900348172E+00
     4
 # iter = 34000  time[fs]=34.00000
   C -0.198143736E+01 -0.797252663E-01  0.105593361E+00
   C  0.216497878E+01 -0.600113799E-01  0.325202330E-01
   H -0.116557099E+02  0.669972853E+00 -0.460316835E+00
   H  0.116836291E+02  0.920750844E+00 -0.930709386E+00
     4
 # iter = 34500  time[fs]=34.50000
   C -0.205157442E+01 -0.826217497E-01  0.109050462E+00
   C  0.223881037E+01 -0.621753047E-01  0.339082300E-01
   H -0.120333167E+02  0.691288946E+00 -0.475837092E+00
   H  0.120552925E+02  0.950756978E+00 -0.961192791E+00
     4
 # iter = 35000  time[fs]=35.00000
   C -0.212240355E+01 -0.855274908E-01  0.112525069E+00
   C  0.231332124E+01 -0.643453905E-01  0.352924868E-01
   H -0.124120294E+02  0.712674812E+00 -0.491407553E+00
   H  0.124282153E+02  0.980878366E+00 -0.991791190E+00
     4
 # iter = 35500  time[fs]=35.50000
   C -0.219387997E+01 -0.884419322E-01  0.116016015E+00
   C  0.238846728E+01 -0.665212981E-01  0.366733794E-01
   H -0.127917822E+02  0.734126308E+00 -0.507025307E+00
   H  0.128023237E+02  0.101110839E+01 -0.102249799E+01
     4
 # iter = 36000  time[fs]=36.00000
   C -0.226596274E+01 -0.913645623E-01  0.119522239E+00
   C  0.246420817E+01 -0.687027171E-01  0.380512423E-01
   H -0.131725146E+02  0.755639646E+00 -0.522687689E+00
   H  0.131775497E+02  0.104144097E+01 -0.105330715E+01
     4
 # iter = 36500  time[fs]=36.50000
   C -0.233861439E+01 -0.942949116E-01  0.123042774E+00
   C  0.254050701E+01 -0.708893618E-01  0.394263744E-01
   H -0.135541712E+02  0.777211350E+00 -0.538392248E+00
   H  0.135538310E+02  0.107187052E+01 -0.108421308E+01
     4
 # iter = 37000  time[fs]=37.00000
   C -0.241180055E+01 -0.972325474E-01  0.126576738E+00
   C  0.261732997E+01 -0.730809693E-01  0.407990425E-01
   H -0.139367011E+02  0.798838227E+00 -0.554136727E+00
   H  0.139311103E+02  0.110239190E+01 -0.111521068E+01
     4
 # iter = 37500  time[fs]=37.50000
   C -0.248548966E+01 -0.100177071E+00  0.130123322E+00
   C  0.269464599E+01 -0.752772966E-01  0.421694855E-01
   H -0.143200573E+02  0.820517333E+00 -0.569919043E+00
   H  0.143093346E+02  0.113300034E+01 -0.114629518E+01
     4
 # iter = 38000  time[fs]=38.00000
   C -0.255965268E+01 -0.103128115E+00  0.133681786E+00
   C  0.277242649E+01 -0.774781186E-01  0.435379174E-01
   H -0.147041966E+02  0.842245951E+00 -0.585737270E+00
   H  0.146884551E+02  0.116369143E+01 -0.117746220E+01
     4
 # iter = 38500  time[fs]=38.50000
   C -0.263426284E+01 -0.106085338E+00  0.137251451E+00
   C  0.285064515E+01 -0.796832264E-01  0.449045303E-01
   H -0.150890789E+02  0.864021570E+00 -0.601589623E+00
   H  0.150684264E+02  0.119446111E+01 -0.120870767E+01
     4
 # iter = 39000  time[fs]=39.00000
   C -0.270929544E+01 -0.109048423E+00  0.140831690E+00
   C  0.292927768E+01 -0.818924257E-01  0.462694971E-01
   H -0.154746671E+02  0.885841860E+00 -0.617474446E+00
   H  0.154492065E+02  0.122530557E+01 -0.124002781E+01
     4
 # iter = 39500  time[fs]=39.50000
   C -0.278472766E+01 -0.112017080E+00  0.144421927E+00
   C  0.300830161E+01 -0.841055354E-01  0.476329732E-01
   H -0.158609266E+02  0.907704658E+00 -0.633390198E+00
   H  0.158307565E+02  0.125622130E+01 -0.127141910E+01
     4
 # iter = 40000  time[fs]=40.00000
   C -0.286053834E+01 -0.114991034E+00  0.148021628E+00
   C  0.308769617E+01 -0.863223863E-01  0.489950989E-01
   H -0.162478256E+02  0.929607955E+00 -0.649335446E+00
   H  0.162130398E+02  0.128720499E+01 -0.130287826E+01
     4
 # iter = 40500  time[fs]=40.50000
   C -0.293670788E+01 -0.117970033E+00  0.151630299E+00
   C  0.316744209E+01 -0.885428202E-01  0.503560006E-01
   H -0.166353340E+02  0.951549877E+00 -0.665308851E+00
   H  0.165960228E+02  0.131825359E+01 -0.133440222E+01
     4
 # iter = 41000  time[fs]=41.00000
   C -0.301321808E+01 -0.120953839E+00  0.155247485E+00
   C  0.324752148E+01 -0.907666890E-01  0.517157929E-01
   H -0.170234242E+02  0.973528677E+00 -0.681309162E+00
   H  0.169796737E+02  0.134936422E+01 -0.136598814E+01
     4
 # iter = 41500  time[fs]=41.50000
   C -0.309005202E+01 -0.123942233E+00  0.158872760E+00
   C  0.332791772E+01 -0.929938536E-01  0.530745793E-01
   H -0.174120701E+02  0.995542722E+00 -0.697335211E+00
   H  0.173639630E+02  0.138053421E+01 -0.139763332E+01
     4
 # iter = 42000  time[fs]=42.00000
   C -0.316719394E+01 -0.126935007E+00  0.162505731E+00
   C  0.340861532E+01 -0.952241831E-01  0.544324536E-01
   H -0.178012473E+02  0.101759048E+01 -0.713385902E+00
   H  0.177488630E+02  0.141176103E+01 -0.142933526E+01
     4
 # iter = 42500  time[fs]=42.50000
   C -0.324462914E+01 -0.129931970E+00  0.166146030E+00
   C  0.348959985E+01 -0.974575547E-01  0.557895011E-01
   H -0.181909330E+02  0.103967053E+01 -0.729460205E+00
   H  0.181343477E+02  0.144304232E+01 -0.146109160E+01
     4
 # iter = 43000  time[fs]=43.00000
   C -0.332234390E+01 -0.132932939E+00  0.169793314E+00
   C  0.357085785E+01 -0.996938524E-01  0.571457992E-01
   H -0.185811060E+02  0.106178152E+01 -0.745557157E+00
   H  0.185203929E+02  0.147437587E+01 -0.149290012E+01
     4
 # iter = 43500  time[fs]=43.50000
   C -0.340032540E+01 -0.135937745E+00  0.173447263E+00
   C  0.365237673E+01 -0.101932967E+00  0.585014181E-01
   H -0.189717461E+02  0.108392218E+01 -0.761675848E+00
   H  0.189069755E+02  0.150575958E+01 -0.152475875E+01
     4
 # iter = 44000  time[fs]=44.00000
   C -0.347856164E+01 -0.138946229E+00  0.177107580E+00
   C  0.373414470E+01 -0.104174795E+00  0.598564220E-01
   H -0.193628345E+02  0.110609134E+01 -0.777815424E+00
   H  0.192940741E+02  0.153719149E+01 -0.155666551E+01
     4
 # iter = 44500  time[fs]=44.50000
   C -0.355704138E+01 -0.141958240E+00  0.180773983E+00
   C  0.381615073E+01 -0.106419238E+00  0.612108694E-01
   H -0.197543533E+02  0.112828787E+01 -0.793975078E+00
   H  0.196816684E+02  0.156866974E+01 -0.158861855E+01
     4
 # iter = 45000  time[fs]=45.00000
   C -0.363575405E+01 -0.144973637E+00  0.184446210E+00
   C  0.389838447E+01 -0.108666205E+00  0.625648134E-01
   H -0.201462858E+02  0.115051072E+01 -0.810154049E+00
   H  0.200697391E+02  0.160019259E+01 -0.162061613E+01
     4
 # iter = 45500  time[fs]=45.50000
   C -0.371468977E+01 -0.147992287E+00  0.188124016E+00
   C  0.398083620E+01 -0.110915607E+00  0.639183027E-01
   H -0.205386163E+02  0.117275889E+01 -0.826351618E+00
   H  0.204582684E+02  0.163175838E+01 -0.165265659E+01
     4
 # iter = 46000  time[fs]=46.00000
   C -0.379383920E+01 -0.151014064E+00  0.191807169E+00
   C  0.406349679E+01 -0.113167362E+00  0.652713818E-01
   H -0.209313297E+02  0.119503145E+01 -0.842567106E+00
   H  0.208472390E+02  0.166336553E+01 -0.168473837E+01
     4
 # iter = 46500  time[fs]=46.50000
   C -0.387319359E+01 -0.154038850E+00  0.195495450E+00
   C  0.414635764E+01 -0.115421390E+00  0.666240914E-01
   H -0.213244119E+02  0.121732750E+01 -0.858799870E+00
   H  0.212366348E+02  0.169501258E+01 -0.171685999E+01
     4
 # iter = 47000  time[fs]=47.00000
   C -0.395274468E+01 -0.157066533E+00  0.199188656E+00
   C  0.422941064E+01 -0.117677617E+00  0.679764688E-01
   H -0.217178497E+02  0.123964620E+01 -0.875049298E+00
   H  0.216264405E+02  0.172669812E+01 -0.174902005E+01
     4
 # iter = 47500  time[fs]=47.50000
   C -0.403248467E+01 -0.160097005E+00  0.202886592E+00
   C  0.431264818E+01 -0.119935970E+00  0.693285480E-01
   H -0.221116303E+02  0.126198676E+01 -0.891314814E+00
   H  0.220166416E+02  0.175842080E+01 -0.178121721E+01
     4
 # iter = 48000  time[fs]=48.00000
   C -0.411240622E+01 -0.163130167E+00  0.206589077E+00
   C  0.439606303E+01 -0.122196383E+00  0.706803605E-01
   H -0.225057418E+02  0.128434842E+01 -0.907595867E+00
   H  0.224072244E+02  0.179017937E+01 -0.181345022E+01
     4
 # iter = 48500  time[fs]=48.50000
   C -0.419250237E+01 -0.166165924E+00  0.210295938E+00
   C  0.447964839E+01 -0.124458790E+00  0.720319348E-01
   H -0.229001727E+02  0.130673045E+01 -0.923891936E+00
   H  0.227981759E+02  0.182197263E+01 -0.184571787E+01
     4
 # iter = 49000  time[fs]=49.00000
   C -0.427276656E+01 -0.169204184E+00  0.214007013E+00
   C  0.456339782E+01 -0.126723129E+00  0.733832973E-01
   H -0.232949122E+02  0.132913218E+01 -0.940202526E+00
   H  0.231894835E+02  0.185379943E+01 -0.187801901E+01
     4
 # iter = 49500  time[fs]=49.50000
   C -0.435319257E+01 -0.172244862E+00  0.217722146E+00
   C  0.464730523E+01 -0.128989342E+00  0.747344724E-01
   H -0.236899501E+02  0.135155295E+01 -0.956527164E+00
   H  0.235811355E+02  0.188565867E+01 -0.191035256E+01
     4
 # iter = 50000  time[fs]=50.00000
   C -0.443377450E+01 -0.175287877E+00  0.221441192E+00
   C  0.473136484E+01 -0.131257372E+00  0.760854822E-01
   H -0.240852765E+02  0.137399216E+01 -0.972865401E+00
   H  0.239731207E+02  0.191754934E+01 -0.194271749E+01
     4
 # iter = 50500  time[fs]=50.50000
   C -0.451450676E+01 -0.178333150E+00  0.225164013E+00
   C  0.481557119E+01 -0.133527166E+00  0.774363473E-01
   H -0.244808822E+02  0.139644920E+01 -0.989216807E+00
   H  0.243654283E+02  0.194947042E+01 -0.197511281E+01
     4
 # iter = 51000  time[fs]=51.00000
   C -0.459538406E+01 -0.181380608E+00  0.228890477E+00
   C  0.489991908E+01 -0.135798671E+00  0.787870865E-01
   H -0.248767582E+02  0.141892352E+01 -0.100558097E+01
   H  0.247580482E+02  0.198142100E+01 -0.200753757E+01
     4
 # iter = 51500  time[fs]=51.50000
   C -0.467640135E+01 -0.184430180E+00  0.232620460E+00
   C  0.498440359E+01 -0.138071840E+00  0.801377171E-01
   H -0.252728961E+02  0.144141459E+01 -0.102195751E+01
   H  0.251509707E+02  0.201340015E+01 -0.203999088E+01
     4
 # iter = 52000  time[fs]=52.00000
   C -0.475755386E+01 -0.187481800E+00  0.236353842E+00
   C  0.506902002E+01 -0.140346624E+00  0.814882552E-01
   H -0.256692878E+02  0.146392189E+01 -0.103834605E+01
   H  0.255441864E+02  0.204540702E+01 -0.207247187E+01
     4
 # iter = 52500  time[fs]=52.50000
   C -0.483883703E+01 -0.190535402E+00  0.240090511E+00
   C  0.515376391E+01 -0.142622978E+00  0.828387154E-01
   H -0.260659257E+02  0.148644493E+01 -0.105474623E+01
   H  0.259376864E+02  0.207744080E+01 -0.210497973E+01
     4
 # iter = 53000  time[fs]=53.00000
   C -0.492024653E+01 -0.193590927E+00  0.243830359E+00
   C  0.523863104E+01 -0.144900860E+00  0.841891114E-01
   H -0.264628022E+02  0.150898325E+01 -0.107115771E+01
   H  0.263314624E+02  0.210950069E+01 -0.213751367E+01
     4
 # iter = 53500  time[fs]=53.50000
   C -0.500177822E+01 -0.196648316E+00  0.247573284E+00
   C  0.532361736E+01 -0.147180227E+00  0.855394557E-01
   H -0.268599105E+02  0.153153640E+01 -0.108758017E+01
   H  0.267255062E+02  0.214158593E+01 -0.217007294E+01
     4
 # iter = 54000  time[fs]=54.00000
   C -0.508342818E+01 -0.199707512E+00  0.251319188E+00
   C  0.540871901E+01 -0.149461040E+00  0.868897597E-01
   H -0.272572436E+02  0.155410395E+01 -0.110401329E+01
   H  0.271198100E+02  0.217369582E+01 -0.220265681E+01
     4
 # iter = 54500  time[fs]=54.50000
   C -0.516519265E+01 -0.202768463E+00  0.255067979E+00
   C  0.549393233E+01 -0.151743260E+00  0.882400342E-01
   H -0.276547952E+02  0.157668550E+01 -0.112045678E+01
   H  0.275143664E+02  0.220582965E+01 -0.223526460E+01
     4
 # iter = 55000  time[fs]=55.00000
   C -0.524706805E+01 -0.205831118E+00  0.258819567E+00
   C  0.557925382E+01 -0.154026851E+00  0.895902890E-01
   H -0.280525592E+02  0.159928066E+01 -0.113691034E+01
   H  0.279091683E+02  0.223798677E+01 -0.226789564E+01
     4
 # iter = 55500  time[fs]=55.50000
   C -0.532905095E+01 -0.208895427E+00  0.262573868E+00
   C  0.566468012E+01 -0.156311776E+00  0.909405330E-01
   H -0.284505294E+02  0.162188904E+01 -0.115337370E+01
   H  0.283042088E+02  0.227016654E+01 -0.230054931E+01
     4
 # iter = 56000  time[fs]=56.00000
   C -0.541113810E+01 -0.211961344E+00  0.266330800E+00
   C  0.575020804E+01 -0.158598003E+00  0.922907748E-01
   H -0.288487004E+02  0.164451028E+01 -0.116984660E+01
   H  0.286994814E+02  0.230236835E+01 -0.233322498E+01
     4
 # iter = 56500  time[fs]=56.50000
   C -0.549332635E+01 -0.215028823E+00  0.270090286E+00
   C  0.583583452E+01 -0.160885499E+00  0.936410219E-01
   H -0.292470665E+02  0.166714405E+01 -0.118632879E+01
   H  0.290949798E+02  0.233459161E+01 -0.236592208E+01
     4
 # iter = 57000  time[fs]=57.00000
   C -0.557561272E+01 -0.218097822E+00  0.273852251E+00
   C  0.592155664E+01 -0.163174231E+00  0.949912815E-01
   H -0.296456226E+02  0.168979000E+01 -0.120282001E+01
   H  0.294906980E+02  0.236683576E+01 -0.239864004E+01
     4
 # iter = 57500  time[fs]=57.50000
   C -0.565799434E+01 -0.221168299E+00  0.277616624E+00
   C  0.600737159E+01 -0.165464169E+00  0.963415601E-01
   H -0.300443637E+02  0.171244782E+01 -0.121932005E+01
   H  0.298866301E+02  0.239910026E+01 -0.243137832E+01
     4
 # iter = 58000  time[fs]=58.00000
   C -0.574046847E+01 -0.224240215E+00  0.281383337E+00
   C  0.609327669E+01 -0.167755285E+00  0.976918638E-01
   H -0.304432848E+02  0.173511720E+01 -0.123582866E+01
   H  0.302827707E+02  0.243138459E+01 -0.246413640E+01
     4
 # iter = 58500  time[fs]=58.50000
   C -0.582303249E+01 -0.227313532E+00  0.285152325E+00
   C  0.617926937E+01 -0.170047549E+00  0.990421982E-01
   H -0.308423814E+02  0.175779785E+01 -0.125234564E+01
   H  0.306791142E+02  0.246368824E+01 -0.249691378E+01
     4
 # iter = 59000  time[fs]=59.00000
   C -0.590568385E+01 -0.230388212E+00  0.288923524E+00
   C  0.626534716E+01 -0.172340935E+00  0.100392568E+00
   H -0.312416489E+02  0.178048948E+01 -0.126887077E+01
   H  0.310756556E+02  0.249601073E+01 -0.252970998E+01
     4
 # iter = 59500  time[fs]=59.50000
   C -0.598842015E+01 -0.233464220E+00  0.292696875E+00
   C  0.635150771E+01 -0.174635416E+00  0.101742979E+00
   H -0.316410831E+02  0.180319181E+01 -0.128540385E+01
   H  0.314723899E+02  0.252835161E+01 -0.256252452E+01
     4
 # iter = 60000  time[fs]=60.00000
   C -0.607123907E+01 -0.236541523E+00  0.296472320E+00
   C  0.643774873E+01 -0.176930967E+00  0.103093435E+00
   H -0.320406798E+02  0.182590459E+01 -0.130194470E+01
   H  0.318693123E+02  0.256071041E+01 -0.259535698E+01
     4
 # iter = 60500  time[fs]=60.50000
   C -0.615413836E+01 -0.239620088E+00  0.300249804E+00
   C  0.652406806E+01 -0.179227564E+00  0.104443939E+00
   H -0.324404351E+02  0.184862755E+01 -0.131849311E+01
   H  0.322664181E+02  0.259308671E+01 -0.262820691E+01
     4
 # iter = 61000  time[fs]=61.00000
   C -0.623711589E+01 -0.242699883E+00  0.304029272E+00
   C  0.661046358E+01 -0.181525183E+00  0.105794496E+00
   H -0.328403449E+02  0.187136046E+01 -0.133504892E+01
   H  0.326637030E+02  0.262548009E+01 -0.266107389E+01
     4
 # iter = 61500  time[fs]=61.50000
   C -0.632016959E+01 -0.245780878E+00  0.307810673E+00
   C  0.669693330E+01 -0.183823800E+00  0.107145109E+00
   H -0.332404057E+02  0.189410308E+01 -0.135161195E+01
   H  0.330611627E+02  0.265789015E+01 -0.269395753E+01
     4
 # iter = 62000  time[fs]=62.00000
   C -0.640329748E+01 -0.248863043E+00  0.311593959E+00
   C  0.678347527E+01 -0.186123394E+00  0.108495781E+00
   H -0.336406139E+02  0.191685518E+01 -0.136818203E+01
   H  0.334587930E+02  0.269031650E+01 -0.272685743E+01
     4
 # iter = 62500  time[fs]=62.50000
   C -0.648649766E+01 -0.251946352E+00  0.315379081E+00
   C  0.687008762E+01 -0.188423943E+00  0.109846516E+00
   H -0.340409660E+02  0.193961653E+01 -0.138475900E+01
   H  0.338565898E+02  0.272275876E+01 -0.275977323E+01
     4
 # iter = 63000  time[fs]=63.00000
   C -0.656976827E+01 -0.255030775E+00  0.319165994E+00
   C  0.695676857E+01 -0.190725427E+00  0.111197314E+00
   H -0.344414586E+02  0.196238694E+01 -0.140134270E+01
   H  0.342545495E+02  0.275521658E+01 -0.279270456E+01
     4
 # iter = 63500  time[fs]=63.50000
   C -0.665310756E+01 -0.258116288E+00  0.322954654E+00
   C  0.704351638E+01 -0.193027825E+00  0.112548180E+00
   H -0.348420885E+02  0.198516618E+01 -0.141793298E+01
   H  0.346526682E+02  0.278768960E+01 -0.282565107E+01
     4
 # iter = 64000  time[fs]=64.00000
   C -0.673651382E+01 -0.261202865E+00  0.326745017E+00
   C  0.713032939E+01 -0.195331118E+00  0.113899114E+00
   H -0.352428527E+02  0.200795406E+01 -0.143452969E+01
   H  0.350509423E+02  0.282017749E+01 -0.285861243E+01
     4
 # iter = 64500  time[fs]=64.50000
   C -0.681998540E+01 -0.264290481E+00  0.330537043E+00
   C  0.721720600E+01 -0.197635288E+00  0.115250120E+00
   H -0.356437480E+02  0.203075040E+01 -0.145113269E+01
   H  0.354493683E+02  0.285267991E+01 -0.289158830E+01
     4
 # iter = 65000  time[fs]=65.00000
   C -0.690352072E+01 -0.267379112E+00  0.334330692E+00
   C  0.730414465E+01 -0.199940316E+00  0.116601199E+00
   H -0.360447717E+02  0.205355499E+01 -0.146774186E+01
   H  0.358479430E+02  0.288519656E+01 -0.292457837E+01
     4
 # iter = 65500  time[fs]=65.50000
   C -0.698711825E+01 -0.270468737E+00  0.338125927E+00
   C  0.739114386E+01 -0.202246184E+00  0.117952352E+00
   H -0.364459208E+02  0.207636768E+01 -0.148435704E+01
   H  0.362466629E+02  0.291772712E+01 -0.295758233E+01
     4
 # iter = 66000  time[fs]=66.00000
   C -0.707077651E+01 -0.273559332E+00  0.341922710E+00
   C  0.747820218E+01 -0.204552875E+00  0.119303582E+00
   H -0.368471926E+02  0.209918827E+01 -0.150097812E+01
   H  0.366455251E+02  0.295027129E+01 -0.299059989E+01
     4
 # iter = 66500  time[fs]=66.50000
   C -0.715449408E+01 -0.276650877E+00  0.345721005E+00
   C  0.756531822E+01 -0.206860373E+00  0.120654889E+00
   H -0.372485846E+02  0.212201661E+01 -0.151760497E+01
   H  0.370445263E+02  0.298282879E+01 -0.302363075E+01
     4
 # iter = 67000  time[fs]=67.00000
   C -0.723826958E+01 -0.279743350E+00  0.349520778E+00
   C  0.765249064E+01 -0.209168662E+00  0.122006274E+00
   H -0.376500941E+02  0.214485252E+01 -0.153423746E+01
   H  0.374436638E+02  0.301539935E+01 -0.305667465E+01
     4
 # iter = 67500  time[fs]=67.50000
   C -0.732210168E+01 -0.282836732E+00  0.353321996E+00
   C  0.773971814E+01 -0.211477725E+00  0.123357739E+00
   H -0.380517186E+02  0.216769586E+01 -0.155087549E+01
   H  0.378429345E+02  0.304798268E+01 -0.308973131E+01
     4
 # iter = 68000  time[fs]=68.00000
   C -0.740598909E+01 -0.285931003E+00  0.357124627E+00
   C  0.782699946E+01 -0.213787548E+00  0.124709285E+00
   H -0.384534559E+02  0.219054646E+01 -0.156751894E+01
   H  0.382423358E+02  0.308057854E+01 -0.312280047E+01
     4
 # iter = 68500  time[fs]=68.50000
   C -0.748993057E+01 -0.289026144E+00  0.360928639E+00
   C  0.791433340E+01 -0.216098116E+00  0.126060913E+00
   H -0.388553034E+02  0.221340419E+01 -0.158416770E+01
   H  0.386418650E+02  0.311318666E+01 -0.315588188E+01
     4
 # iter = 69000  time[fs]=69.00000
   C -0.757392491E+01 -0.292122138E+00  0.364734002E+00
   C  0.800171877E+01 -0.218409414E+00  0.127412623E+00
   H -0.392572591E+02  0.223626888E+01 -0.160082167E+01
   H  0.390415193E+02  0.314580680E+01 -0.318897529E+01
     4
 # iter = 69500  time[fs]=69.50000
   C -0.765797096E+01 -0.295218966E+00  0.368540688E+00
   C  0.808915444E+01 -0.220721430E+00  0.128764416E+00
   H -0.396593206E+02  0.225914042E+01 -0.161748073E+01
   H  0.394412964E+02  0.317843872E+01 -0.322208045E+01
     4
 # iter = 70000  time[fs]=70.00000
   C -0.774206759E+01 -0.298316612E+00  0.372348667E+00
   C  0.817663932E+01 -0.223034148E+00  0.130116292E+00
   H -0.400614860E+02  0.228201865E+01 -0.163414479E+01
   H  0.398411937E+02  0.321108218E+01 -0.325519715E+01
     4
 # iter = 70500  time[fs]=70.50000
   C -0.782621370E+01 -0.301415058E+00  0.376157913E+00
   C  0.826417233E+01 -0.225347557E+00  0.131468253E+00
   H -0.404637530E+02  0.230490345E+01 -0.165081376E+01
   H  0.402412089E+02  0.324373697E+01 -0.328832515E+01
     4
 # iter = 71000  time[fs]=71.00000
   C -0.791040824E+01 -0.304514290E+00  0.379968399E+00
   C  0.835175246E+01 -0.227661642E+00  0.132820298E+00
   H -0.408661198E+02  0.232779470E+01 -0.166748753E+01
   H  0.406413397E+02  0.327640287E+01 -0.332146424E+01
     4
 # iter = 71500  time[fs]=71.50000
   C -0.799465019E+01 -0.307614290E+00  0.383780099E+00
   C  0.843937869E+01 -0.229976393E+00  0.134172428E+00
   H -0.412685844E+02  0.235069225E+01 -0.168416602E+01
   H  0.410415838E+02  0.330907965E+01 -0.335461421E+01
     4
 # iter = 72000  time[fs]=72.00000
   C -0.807893855E+01 -0.310715045E+00  0.387592989E+00
   C  0.852705007E+01 -0.232291796E+00  0.135524643E+00
   H -0.416711448E+02  0.237359601E+01 -0.170084913E+01
   H  0.414419390E+02  0.334176712E+01 -0.338777484E+01
     4
 # iter = 72500  time[fs]=72.50000
   C -0.816327236E+01 -0.313816539E+00  0.391407044E+00
   C  0.861476566E+01 -0.234607840E+00  0.136876943E+00
   H -0.420737993E+02  0.239650584E+01 -0.171753679E+01
   H  0.418424032E+02  0.337446507E+01 -0.342094594E+01
     4
 # iter = 73000  time[fs]=73.00000
   C -0.824765068E+01 -0.316918758E+00  0.395222240E+00
   C  0.870252454E+01 -0.236924514E+00  0.138229329E+00
   H -0.424765461E+02  0.241942164E+01 -0.173422890E+01
   H  0.422429744E+02  0.340717332E+01 -0.345412731E+01
     4
 # iter = 73500  time[fs]=73.50000
   C -0.833207262E+01 -0.320021688E+00  0.399038556E+00
   C  0.879032583E+01 -0.239241806E+00  0.139581801E+00
   H -0.428793835E+02  0.244234329E+01 -0.175092538E+01
   H  0.426436505E+02  0.343989166E+01 -0.348731876E+01
     4
 # iter = 74000  time[fs]=74.00000
   C -0.841653730E+01 -0.323125315E+00  0.402855968E+00
   C  0.887816868E+01 -0.241559705E+00  0.140934358E+00
   H -0.432823097E+02  0.246527069E+01 -0.176762616E+01
   H  0.430444297E+02  0.347261992E+01 -0.352052011E+01
     4
 # iter = 74500  time[fs]=74.50000
   C -0.850104386E+01 -0.326229627E+00  0.406674456E+00
   C  0.896605226E+01 -0.243878201E+00  0.142287002E+00
   H -0.436853231E+02  0.248820373E+01 -0.178433116E+01
   H  0.434453099E+02  0.350535791E+01 -0.355373119E+01
     4
 # iter = 75000  time[fs]=75.00000
   C -0.858559148E+01 -0.329334611E+00  0.410493999E+00
   C  0.905397575E+01 -0.246197284E+00  0.143639731E+00
   H -0.440884223E+02  0.251114231E+01 -0.180104029E+01
   H  0.438462894E+02  0.353810546E+01 -0.358695180E+01
     4
 # iter = 75500  time[fs]=75.50000
   C -0.867017934E+01 -0.332440254E+00  0.414314576E+00
   C  0.914193839E+01 -0.248516944E+00  0.144992545E+00
   H -0.444916054E+02  0.253408632E+01 -0.181775349E+01
   H  0.442473664E+02  0.357086240E+01 -0.362018179E+01
     4
 # iter = 76000  time[fs]=76.00000
   C -0.875480668E+01 -0.335546545E+00  0.418136167E+00
   C  0.922993940E+01 -0.250837170E+00  0.146345446E+00
   H -0.448948712E+02  0.255703569E+01 -0.183447068E+01
   H  0.446485392E+02  0.360362857E+01 -0.365342099E+01
     4
 # iter = 76500  time[fs]=76.50000
   C -0.883947273E+01 -0.338653471E+00  0.421958755E+00
   C  0.931797805E+01 -0.253157953E+00  0.147698432E+00
   H -0.452982181E+02  0.257999030E+01 -0.185119181E+01
   H  0.450498059E+02  0.363640380E+01 -0.368666924E+01
     4
 # iter = 77000  time[fs]=77.00000
   C -0.892417676E+01 -0.341761021E+00  0.425782319E+00
   C  0.940605361E+01 -0.255479285E+00  0.149051503E+00
   H -0.457016447E+02  0.260295007E+01 -0.186791678E+01
   H  0.454511651E+02  0.366918794E+01 -0.371992638E+01
     4
 # iter = 77500  time[fs]=77.50000
   C -0.900891805E+01 -0.344869184E+00  0.429606842E+00
   C  0.949416540E+01 -0.257801155E+00  0.150404659E+00
   H -0.461051496E+02  0.262591491E+01 -0.188464555E+01
   H  0.458526150E+02  0.370198082E+01 -0.375319225E+01
     4
 # iter = 78000  time[fs]=78.00000
   C -0.909369590E+01 -0.347977949E+00  0.433432307E+00
   C  0.958231273E+01 -0.260123555E+00  0.151757900E+00
   H -0.465087315E+02  0.264888473E+01 -0.190137805E+01
   H  0.462541541E+02  0.373478232E+01 -0.378646672E+01
     4
 # iter = 78500  time[fs]=78.50000
   C -0.917850963E+01 -0.351087305E+00  0.437258696E+00
   C  0.967049494E+01 -0.262446476E+00  0.153111226E+00
   H -0.469123889E+02  0.267185944E+01 -0.191811421E+01
   H  0.466557808E+02  0.376759227E+01 -0.381974963E+01
     4
 # iter = 79000  time[fs]=79.00000
   C -0.926335859E+01 -0.354197243E+00  0.441085993E+00
   C  0.975871138E+01 -0.264769911E+00  0.154464636E+00
   H -0.473161207E+02  0.269483897E+01 -0.193485397E+01
   H  0.470574938E+02  0.380041053E+01 -0.385304084E+01
     4
 # iter = 79500  time[fs]=79.50000
   C -0.934824214E+01 -0.357307752E+00  0.444914181E+00
   C  0.984696144E+01 -0.267093850E+00  0.155818130E+00
   H -0.477199256E+02  0.271782324E+01 -0.195159727E+01
   H  0.474592915E+02  0.383323697E+01 -0.388634021E+01
     4
 # iter = 80000  time[fs]=80.00000
   C -0.943315964E+01 -0.360418823E+00  0.448743245E+00
   C  0.993524451E+01 -0.269418285E+00  0.157171708E+00
   H -0.481238023E+02  0.274081216E+01 -0.196834406E+01
   H  0.478611724E+02  0.386607146E+01 -0.391964761E+01
