     4
 # iter = 25000  time[fs]=25.00000
   C -0.104268094E+01 -0.929386976E-02  0.740727363E-02
   C  0.101573903E+01 -0.755002820E-02  0.520122968E-02
   H -0.526603164E+01  0.689511483E-01 -0.369396259E+00
   H  0.540107081E+01 -0.341755968E+00  0.336928162E+00
     4
 # iter = 25500  time[fs]=25.50000
   C -0.109219860E+01 -0.948368685E-02  0.891005110E-02
   C  0.106078232E+01 -0.665909090E-02  0.488169101E-02
   H -0.560555968E+01  0.744694227E-01 -0.394546074E+00
   H  0.572287648E+01 -0.363356456E+00  0.359038049E+00
     4
 # iter = 26000  time[fs]=26.00000
   C -0.114441592E+01 -0.967651642E-02  0.104273419E-01
   C  0.110853732E+01 -0.575529436E-02  0.455092194E-02
   H -0.594781720E+01  0.800388557E-01 -0.419910827E+00
   H  0.604726710E+01 -0.385126263E+00  0.381323479E+00
     4
 # iter = 26500  time[fs]=26.50000
   C -0.119910213E+01 -0.987314959E-02  0.119594389E-01
   C  0.115877045E+01 -0.483883731E-02  0.420814131E-02
   H -0.629249382E+01  0.856537660E-01 -0.445466430E+00
   H  0.637396591E+01 -0.407047831E+00  0.403766224E+00
     4
 # iter = 27000  time[fs]=27.00000
   C -0.125604482E+01 -0.100741455E-01  0.135064133E-01
   C  0.121126716E+01 -0.391000890E-02  0.385288439E-02
   H -0.663932836E+01  0.913093644E-01 -0.471192619E+00
   H  0.670273748E+01 -0.429106190E+00  0.426350741E+00
     4
 # iter = 27500  time[fs]=27.50000
   C -0.131504990E+01 -0.102798773E-01  0.150681563E-01
   C  0.126583168E+01 -0.296916845E-02  0.348493914E-02
   H -0.698809910E+01  0.970015771E-01 -0.497072193E+00
   H  0.703338005E+01 -0.451288477E+00  0.449063680E+00
     4
 # iter = 28000  time[fs]=28.00000
   C -0.137594097E+01 -0.104905718E-01  0.166444193E-01
   C  0.132228634E+01 -0.201672579E-02  0.310428978E-02
   H -0.733861629E+01  0.102726911E+00 -0.523090421E+00
   H  0.736571943E+01 -0.473583559E+00  0.471893482E+00
     4
 # iter = 28500  time[fs]=28.50000
   C -0.143855831E+01 -0.107063430E-01  0.182348495E-01
   C  0.138047038E+01 -0.105312394E-02  0.271106890E-02
   H -0.769071637E+01  0.108482347E+00 -0.549234593E+00
   H  0.769960430E+01 -0.495981735E+00  0.494830080E+00
     4
 # iter = 29000  time[fs]=29.00000
   C -0.150275759E+01 -0.109272187E-01  0.198390205E-01
   C  0.144023868E+01 -0.788246748E-04  0.230551820E-02
   H -0.804425739E+01  0.114265262E+00 -0.575493671E+00
   H  0.803490241E+01 -0.518474502E+00  0.517864652E+00
     4
 # iter = 29500  time[fs]=29.50000
   C -0.156840865E+01 -0.111531632E-01  0.214564567E-01
   C  0.150146041E+01  0.905702925E-03  0.188795696E-02
   H -0.839911544E+01  0.120073358E+00 -0.601858003E+00
   H  0.837149752E+01 -0.541054367E+00  0.540989422E+00
     4
 # iter = 30000  time[fs]=30.00000
   C -0.163539411E+01 -0.113840936E-01  0.230866528E-01
   C  0.156401771E+01  0.189999133E-02  0.145875719E-02
   H -0.875518171E+01  0.125904615E+00 -0.628319103E+00
   H  0.870928700E+01 -0.563714691E+00  0.564197504E+00
     4
 # iter = 30500  time[fs]=30.50000
   C -0.170360816E+01 -0.116198939E-01  0.247290889E-01
   C  0.162780433E+01  0.290358110E-02  0.101832450E-02
   H -0.911236018E+01  0.131757246E+00 -0.654869471E+00
   H  0.904817972E+01 -0.586449566E+00  0.587482769E+00
     4
 # iter = 31000  time[fs]=31.00000
   C -0.177295535E+01 -0.118604251E-01  0.263832417E-01
   C  0.169272452E+01  0.391602557E-02  0.567083340E-03
   H -0.947056570E+01  0.137629661E+00 -0.681502445E+00
   H  0.938809451E+01 -0.609253711E+00  0.610839741E+00
     4
 # iter = 31500  time[fs]=31.50000
   C -0.184334952E+01 -0.121055335E-01  0.280485932E-01
   C  0.175869184E+01  0.493689408E-02  0.105466080E-03
   H -0.982972241E+01  0.143520443E+00 -0.708212082E+00
   H  0.972895870E+01 -0.632122385E+00  0.634263505E+00
     4
 # iter = 32000  time[fs]=32.00000
   C -0.191471283E+01 -0.123550563E-01  0.297246364E-01
   C  0.182562823E+01  0.596577401E-02 -0.366095195E-03
   H -0.101897625E+02  0.149428321E+00 -0.734993057E+00
   H  0.100707070E+02 -0.655051319E+00  0.657749635E+00
     4
 # iter = 32500  time[fs]=32.50000
   C -0.198697483E+01 -0.126088265E-01  0.314108798E-01
   C  0.189346307E+01  0.700227193E-02 -0.847174572E-03
   H -0.105506250E+02  0.155352150E+00 -0.761840582E+00
   H  0.104132806E+02 -0.678036652E+00  0.681294129E+00
     4
 # iter = 33000  time[fs]=33.00000
   C -0.206007167E+01 -0.128666760E-01  0.331068499E-01
   C  0.196213238E+01  0.804601414E-02 -0.133735650E-02
   H -0.109122551E+02  0.161290899E+00 -0.788750332E+00
   H  0.107566263E+02 -0.701074884E+00  0.704893359E+00
     4
 # iter = 33500  time[fs]=33.50000
   C -0.213394541E+01 -0.131284383E-01  0.348120932E-01
   C  0.203157812E+01  0.909664668E-02 -0.183623866E-02
   H -0.112746031E+02  0.167243630E+00 -0.815718394E+00
   H  0.111006957E+02 -0.724162829E+00  0.728544025E+00
     4
 # iter = 34000  time[fs]=34.00000
   C -0.220854340E+01 -0.133939502E-01  0.365261770E-01
   C  0.210174752E+01  0.101538350E-01 -0.234343382E-02
   H -0.116376241E+02  0.173209495E+00 -0.842741209E+00
   H  0.114454449E+02 -0.747297581E+00  0.752243115E+00
     4
 # iter = 34500  time[fs]=34.50000
   C -0.228381768E+01 -0.136630529E-01  0.382486895E-01
   C  0.217259256E+01  0.112172634E-01 -0.285857093E-02
   H -0.120012771E+02  0.179187716E+00 -0.869815536E+00
   H  0.117908339E+02 -0.770476481E+00  0.775987875E+00
     4
 # iter = 35000  time[fs]=35.00000
   C -0.235972448E+01 -0.139355932E-01  0.399792403E-01
   C  0.224406944E+01  0.122866344E-01 -0.338129572E-02
   H -0.123655246E+02  0.185177587E+00 -0.896938414E+00
   H  0.121368258E+02 -0.793697091E+00  0.799775779E+00
     4
 # iter = 35500  time[fs]=35.50000
   C -0.243622385E+01 -0.142114233E-01  0.417174592E-01
   C  0.231613813E+01  0.133616676E-01 -0.391127079E-02
   H -0.127303327E+02  0.191178457E+00 -0.924107127E+00
   H  0.124833872E+02 -0.816957169E+00  0.823604504E+00
     4
 # iter = 36000  time[fs]=36.00000
   C -0.251327919E+01 -0.144904021E-01  0.434629961E-01
   C  0.238876203E+01  0.144420993E-01 -0.444817549E-02
   H -0.130956698E+02  0.197189730E+00 -0.951319183E+00
   H  0.128304869E+02 -0.840254647E+00  0.847471910E+00
     4
 # iter = 36500  time[fs]=36.50000
   C -0.259085697E+01 -0.147723944E-01  0.452155203E-01
   C  0.246190756E+01  0.155276811E-01 -0.499170550E-02
   H -0.134615073E+02  0.203210857E+00 -0.978572288E+00
   H  0.131780966E+02 -0.863587618E+00  0.871376023E+00
     4
 # iter = 37000  time[fs]=37.00000
   C -0.266892636E+01 -0.150572715E-01  0.469747192E-01
   C  0.253554389E+01  0.166181793E-01 -0.554157238E-02
   H -0.138278186E+02  0.209241329E+00 -0.100586432E+01
   H  0.135261898E+02 -0.886954316E+00  0.895315012E+00
     4
 # iter = 37500  time[fs]=37.50000
   C -0.274745902E+01 -0.153449109E-01  0.487402977E-01
   C  0.260964266E+01  0.177133741E-01 -0.609750291E-02
   H -0.141945792E+02  0.215280680E+00 -0.103319333E+01
   H  0.138747423E+02 -0.910353103E+00  0.919287183E+00
     4
 # iter = 38000  time[fs]=38.00000
   C -0.282642883E+01 -0.156351959E-01  0.505119771E-01
   C  0.268417775E+01  0.188130584E-01 -0.665923842E-02
   H -0.145617665E+02  0.221328473E+00 -0.106055750E+01
   H  0.142237314E+02 -0.933782458E+00  0.943290961E+00
     4
 # iter = 38500  time[fs]=38.50000
   C -0.290581169E+01 -0.159280160E-01  0.522894946E-01
   C  0.275912506E+01  0.199170371E-01 -0.722653414E-02
   H -0.149293594E+02  0.227384307E+00 -0.108795514E+01
   H  0.145731362E+02 -0.957240965E+00  0.967324880E+00
     4
 # iter = 39000  time[fs]=39.00000
   C -0.298558530E+01 -0.162232662E-01  0.540726017E-01
   C  0.283446228E+01  0.210251265E-01 -0.779915842E-02
   H -0.152973385E+02  0.233447804E+00 -0.111538469E+01
   H  0.149229372E+02 -0.980727304E+00  0.991387575E+00
     4
 # iter = 39500  time[fs]=39.50000
   C -0.306572904E+01 -0.165208468E-01  0.558610641E-01
   C  0.291016880E+01  0.221371535E-01 -0.837689207E-02
   H -0.156656857E+02  0.239518617E+00 -0.114284470E+01
   H  0.152731162E+02 -0.100424024E+01  0.101547777E+01
     4
 # iter = 40000  time[fs]=40.00000
   C -0.314622378E+01 -0.168206633E-01  0.576546603E-01
   C  0.298622548E+01  0.232529546E-01 -0.895952764E-02
   H -0.160343839E+02  0.245596419E+00 -0.117033379E+01
   H  0.156236563E+02 -0.102777863E+01  0.103959428E+01
     4
 # iter = 40500  time[fs]=40.50000
   C -0.322705174E+01 -0.171226262E-01  0.594531810E-01
   C  0.306261457E+01  0.243723759E-01 -0.954686876E-02
   H -0.164034175E+02  0.251680904E+00 -0.119785070E+01
   H  0.159745416E+02 -0.105134139E+01  0.106373597E+01
     4
 # iter = 41000  time[fs]=41.00000
   C -0.330819640E+01 -0.174266503E-01  0.612564283E-01
   C  0.313931956E+01  0.254952717E-01 -0.101387295E-01
   H -0.167727718E+02  0.257771789E+00 -0.122539424E+01
   H  0.163257572E+02 -0.107492750E+01  0.108790181E+01
     4
 # iter = 41500  time[fs]=41.50000
   C -0.338964239E+01 -0.177326552E-01  0.630642150E-01
   C  0.321632507E+01  0.266215046E-01 -0.107349337E-01
   H -0.171424329E+02  0.263868805E+00 -0.125296330E+01
   H  0.166772893E+02 -0.109853603E+01  0.111209082E+01
     4
 # iter = 42000  time[fs]=42.00000
   C -0.347137536E+01 -0.180405643E-01  0.648763641E-01
   C  0.329361677E+01  0.277509445E-01 -0.113353145E-01
   H -0.175123879E+02  0.269971701E+00 -0.128055682E+01
   H  0.170291247E+02 -0.112216606E+01  0.113630206E+01
     4
 # iter = 42500  time[fs]=42.50000
   C -0.355338192E+01 -0.183503050E-01  0.666927078E-01
   C  0.337118128E+01  0.288834684E-01 -0.119397137E-01
   H -0.178826247E+02  0.276080241E+00 -0.130817383E+01
   H  0.173812513E+02 -0.114581677E+01  0.116053467E+01
     4
 # iter = 43000  time[fs]=43.00000
   C -0.363564955E+01 -0.186618085E-01  0.685130873E-01
   C  0.344900610E+01  0.300189599E-01 -0.125479812E-01
   H -0.182531319E+02  0.282194204E+00 -0.133581339E+01
   H  0.177336575E+02 -0.116948736E+01  0.118478782E+01
     4
 # iter = 43500  time[fs]=43.50000
   C -0.371816652E+01 -0.189750093E-01  0.703373520E-01
   C  0.352707950E+01  0.311573087E-01 -0.131599745E-01
   H -0.186238988E+02  0.288313379E+00 -0.136347464E+01
   H  0.180863324E+02 -0.119317708E+01  0.120906075E+01
     4
 # iter = 44000  time[fs]=44.00000
   C -0.380092187E+01 -0.192898453E-01  0.721653591E-01
   C  0.360539054E+01  0.322984100E-01 -0.137755585E-01
   H -0.189949152E+02  0.294437571E+00 -0.139115675E+01
   H  0.184392657E+02 -0.121688523E+01  0.123335272E+01
     4
 # iter = 44500  time[fs]=44.50000
   C -0.388390528E+01 -0.196062574E-01  0.739969729E-01
   C  0.368392892E+01  0.334421648E-01 -0.143946047E-01
   H -0.193661716E+02  0.300566592E+00 -0.141885895E+01
   H  0.187924477E+02 -0.124061114E+01  0.125766305E+01
     4
 # iter = 45000  time[fs]=45.00000
   C -0.396710708E+01 -0.199241894E-01  0.758320647E-01
   C  0.376268497E+01  0.345884788E-01 -0.150169910E-01
   H -0.197376590E+02  0.306700267E+00 -0.144658050E+01
   H  0.191458694E+02 -0.126435416E+01  0.128199107E+01
     4
 # iter = 45500  time[fs]=45.50000
   C -0.405051818E+01 -0.202435879E-01  0.776705122E-01
   C  0.384164962E+01  0.357372625E-01 -0.156426012E-01
   H -0.201093690E+02  0.312838428E+00 -0.147432071E+01
   H  0.194995220E+02 -0.128811372E+01  0.130633617E+01
     4
 # iter = 46000  time[fs]=46.00000
   C -0.413413002E+01 -0.205644021E-01  0.795121990E-01
   C  0.392081431E+01  0.368884308E-01 -0.162713248E-01
   H -0.204812934E+02  0.318980918E+00 -0.150207892E+01
   H  0.198533973E+02 -0.131188923E+01  0.133069776E+01
     4
 # iter = 46500  time[fs]=46.50000
   C -0.421793451E+01 -0.208865835E-01  0.813570145E-01
   C  0.400017099E+01  0.380419029E-01 -0.169030567E-01
   H -0.208534247E+02  0.325127587E+00 -0.152985451E+01
   H  0.202074876E+02 -0.133568016E+01  0.135507528E+01
     4
 # iter = 47000  time[fs]=47.00000
   C -0.430192406E+01 -0.212100859E-01  0.832048533E-01
   C  0.407971206E+01  0.391976016E-01 -0.175376966E-01
   H -0.212257556E+02  0.331278294E+00 -0.155764688E+01
   H  0.205617855E+02 -0.135948599E+01  0.137946820E+01
     4
 # iter = 47500  time[fs]=47.50000
   C -0.438609147E+01 -0.215348655E-01  0.850556150E-01
   C  0.415943036E+01  0.403554536E-01 -0.181751488E-01
   H -0.215982793E+02  0.337432902E+00 -0.158545547E+01
   H  0.209162839E+02 -0.138330624E+01  0.140387602E+01
     4
 # iter = 48000  time[fs]=48.00000
   C -0.447042997E+01 -0.218608802E-01  0.869092039E-01
   C  0.423931909E+01  0.415153890E-01 -0.188153224E-01
   H -0.219709893E+02  0.343591284E+00 -0.161327975E+01
   H  0.212709763E+02 -0.140714044E+01  0.142829826E+01
     4
 # iter = 48500  time[fs]=48.50000
   C -0.455493313E+01 -0.221880900E-01  0.887655287E-01
   C  0.431937186E+01  0.426773410E-01 -0.194581303E-01
   H -0.223438794E+02  0.349753318E+00 -0.164111922E+01
   H  0.216258562E+02 -0.143098815E+01  0.145273446E+01
     4
 # iter = 49000  time[fs]=49.00000
   C -0.463959486E+01 -0.225164568E-01  0.906245025E-01
   C  0.439958260E+01  0.438412460E-01 -0.201034894E-01
   H -0.227169436E+02  0.355918887E+00 -0.166897338E+01
   H  0.219809176E+02 -0.145484895E+01  0.147718418E+01
     4
 # iter = 49500  time[fs]=49.50000
   C -0.472440942E+01 -0.228459439E-01  0.924860421E-01
   C  0.447994556E+01  0.450070433E-01 -0.207513205E-01
   H -0.230901765E+02  0.362087881E+00 -0.169684177E+01
   H  0.223361549E+02 -0.147872244E+01  0.150164701E+01
     4
 # iter = 50000  time[fs]=50.00000
   C -0.480937134E+01 -0.231765166E-01  0.943500680E-01
   C  0.456045529E+01  0.461746748E-01 -0.214015477E-01
   H -0.234635726E+02  0.368260194E+00 -0.172472396E+01
   H  0.226915624E+02 -0.150260822E+01  0.152612255E+01
     4
 # iter = 50500  time[fs]=50.50000
   C -0.489447543E+01 -0.235081415E-01  0.962165043E-01
   C  0.464110662E+01  0.473440849E-01 -0.220540985E-01
   H -0.238371269E+02  0.374435726E+00 -0.175261952E+01
   H  0.230471350E+02 -0.152650595E+01  0.155061042E+01
     4
 # iter = 51000  time[fs]=51.00000
   C -0.497971678E+01 -0.238407866E-01  0.980852783E-01
   C  0.472189464E+01  0.485152206E-01 -0.227089034E-01
   H -0.242108345E+02  0.380614379E+00 -0.178052806E+01
   H  0.234028678E+02 -0.155041526E+01  0.157511027E+01
     4
 # iter = 51500  time[fs]=51.50000
   C -0.506509069E+01 -0.241744214E-01  0.999563206E-01
   C  0.480281468E+01  0.496880310E-01 -0.233658960E-01
   H -0.245846908E+02  0.386796062E+00 -0.180844918E+01
   H  0.237587558E+02 -0.157433582E+01  0.159962174E+01
     4
 # iter = 52000  time[fs]=52.00000
   C -0.515059273E+01 -0.245090166E-01  0.101829565E+00
   C  0.488386230E+01  0.508624675E-01 -0.240250126E-01
   H -0.249586913E+02  0.392980686E+00 -0.183638253E+01
   H  0.241147946E+02 -0.159826731E+01  0.162414450E+01
     4
 # iter = 52500  time[fs]=52.50000
   C -0.523621865E+01 -0.248445443E-01  0.103704947E+00
   C  0.496503327E+01  0.520384834E-01 -0.246861923E-01
   H -0.253328318E+02  0.399168168E+00 -0.186432776E+01
   H  0.244709797E+02 -0.162220942E+01  0.164867823E+01
     4
 # iter = 53000  time[fs]=53.00000
   C -0.532196442E+01 -0.251809775E-01  0.105582405E+00
   C  0.504632357E+01  0.532160341E-01 -0.253493765E-01
   H -0.257071083E+02  0.405358427E+00 -0.189228452E+01
   H  0.248273071E+02 -0.164616186E+01  0.167322263E+01
     4
 # iter = 53500  time[fs]=53.50000
   C -0.540782618E+01 -0.255182905E-01  0.107461883E+00
   C  0.512772935E+01  0.543950766E-01 -0.260145091E-01
   H -0.260815169E+02  0.411551385E+00 -0.192025249E+01
   H  0.251837726E+02 -0.167012435E+01  0.169777741E+01
     4
 # iter = 54000  time[fs]=54.00000
   C -0.549380027E+01 -0.258564586E-01  0.109343322E+00
   C  0.520924695E+01  0.555755698E-01 -0.266815362E-01
   H -0.264560538E+02  0.417746968E+00 -0.194823138E+01
   H  0.255403726E+02 -0.169409660E+01  0.172234229E+01
     4
 # iter = 54500  time[fs]=54.50000
   C -0.557988317E+01 -0.261954579E-01  0.111226669E+00
   C  0.529087289E+01  0.567574743E-01 -0.273504062E-01
   H -0.268307155E+02  0.423945106E+00 -0.197622087E+01
   H  0.258971032E+02 -0.171807837E+01  0.174691699E+01
     4
 # iter = 55000  time[fs]=55.00000
   C -0.566607155E+01 -0.265352659E-01  0.113111872E+00
   C  0.537260381E+01  0.579407520E-01 -0.280210692E-01
   H -0.272054986E+02  0.430145729E+00 -0.200422069E+01
   H  0.262539609E+02 -0.174206940E+01  0.177150127E+01
     4
 # iter = 55500  time[fs]=55.50000
   C -0.575236220E+01 -0.268758604E-01  0.114998882E+00
   C  0.545443654E+01  0.591253665E-01 -0.286934776E-01
   H -0.275803998E+02  0.436348772E+00 -0.203223056E+01
   H  0.266109424E+02 -0.176606946E+01  0.179609486E+01
     4
 # iter = 56000  time[fs]=56.00000
   C -0.583875207E+01 -0.272172205E-01  0.116887650E+00
   C  0.553636802E+01  0.603112827E-01 -0.293675854E-01
   H -0.279554159E+02  0.442554172E+00 -0.206025023E+01
   H  0.269680444E+02 -0.179007830E+01  0.182069754E+01
     4
 # iter = 56500  time[fs]=56.50000
   C -0.592523821E+01 -0.275593260E-01  0.118778131E+00
   C  0.561839532E+01  0.614984669E-01 -0.300433483E-01
   H -0.283305440E+02  0.448761870E+00 -0.208827943E+01
   H  0.273252638E+02 -0.181409571E+01  0.184530907E+01
     4
 # iter = 57000  time[fs]=57.00000
   C -0.601181784E+01 -0.279021573E-01  0.120670280E+00
   C  0.570051567E+01  0.626868867E-01 -0.307207240E-01
   H -0.287057810E+02  0.454971805E+00 -0.211631793E+01
   H  0.276825975E+02 -0.183812148E+01  0.186992923E+01
     4
 # iter = 57500  time[fs]=57.50000
   C -0.609848826E+01 -0.282456957E-01  0.122564054E+00
   C  0.578272636E+01  0.638765107E-01 -0.313996713E-01
   H -0.290811243E+02  0.461183922E+00 -0.214436550E+01
   H  0.280400426E+02 -0.186215540E+01  0.189455781E+01
     4
 # iter = 58000  time[fs]=58.00000
   C -0.618524690E+01 -0.285899231E-01  0.124459413E+00
   C  0.586502485E+01  0.650673090E-01 -0.320801509E-01
   H -0.294565711E+02  0.467398168E+00 -0.217242190E+01
   H  0.283975964E+02 -0.188619726E+01  0.191919460E+01
     4
 # iter = 58500  time[fs]=58.50000
   C -0.627209129E+01 -0.289348222E-01  0.126356317E+00
   C  0.594740867E+01  0.662592523E-01 -0.327621248E-01
   H -0.298321189E+02  0.473614490E+00 -0.220048692E+01
   H  0.287552562E+02 -0.191024689E+01  0.194383940E+01
     4
 # iter = 59000  time[fs]=59.00000
   C -0.635901905E+01 -0.292803762E-01  0.128254727E+00
   C  0.602987545E+01  0.674523129E-01 -0.334455562E-01
   H -0.302077650E+02  0.479832838E+00 -0.222856036E+01
   H  0.291130194E+02 -0.193430408E+01  0.196849203E+01
     4
 # iter = 59500  time[fs]=59.50000
   C -0.644602792E+01 -0.296265689E-01  0.130154607E+00
   C  0.611242294E+01  0.686464637E-01 -0.341304099E-01
   H -0.305835073E+02  0.486053163E+00 -0.225664201E+01
   H  0.294708835E+02 -0.195836868E+01  0.199315229E+01
     4
 # iter = 60000  time[fs]=60.00000
   C -0.653311570E+01 -0.299733848E-01  0.132055922E+00
   C  0.619504894E+01  0.698416787E-01 -0.348166517E-01
   H -0.309593432E+02  0.492275419E+00 -0.228473168E+01
   H  0.298288460E+02 -0.198244049E+01  0.201782002E+01
     4
 # iter = 60500  time[fs]=60.50000
   C -0.662028031E+01 -0.303208088E-01  0.133958637E+00
   C  0.627775137E+01  0.710379328E-01 -0.355042487E-01
   H -0.313352706E+02  0.498499561E+00 -0.231282918E+01
   H  0.301869047E+02 -0.200651937E+01  0.204249504E+01
     4
 # iter = 61000  time[fs]=61.00000
   C -0.670751971E+01 -0.306688265E-01  0.135862720E+00
   C  0.636052821E+01  0.722352017E-01 -0.361931691E-01
   H -0.317112873E+02  0.504725546E+00 -0.234093433E+01
   H  0.305450573E+02 -0.203060514E+01  0.206717719E+01
     4
 # iter = 61500  time[fs]=61.50000
   C -0.679483196E+01 -0.310174237E-01  0.137768137E+00
   C  0.644337754E+01  0.734334621E-01 -0.368833822E-01
   H -0.320873913E+02  0.510953331E+00 -0.236904695E+01
   H  0.309033017E+02 -0.205469765E+01  0.209186630E+01
     4
 # iter = 62000  time[fs]=62.00000
   C -0.688221520E+01 -0.313665870E-01  0.139674859E+00
   C  0.652629748E+01  0.746326912E-01 -0.375748584E-01
   H -0.324635805E+02  0.517182876E+00 -0.239716689E+01
   H  0.312616357E+02 -0.207879676E+01  0.211656222E+01
     4
 # iter = 62500  time[fs]=62.50000
   C -0.696966763E+01 -0.317163033E-01  0.141582856E+00
   C  0.660928624E+01  0.758328672E-01 -0.382675690E-01
   H -0.328398531E+02  0.523414141E+00 -0.242529396E+01
   H  0.316200574E+02 -0.210290231E+01  0.214126480E+01
     4
 # iter = 63000  time[fs]=63.00000
   C -0.705718750E+01 -0.320665599E-01  0.143492099E+00
   C  0.669234210E+01  0.770339689E-01 -0.389614862E-01
   H -0.332162070E+02  0.529647090E+00 -0.245342803E+01
   H  0.319785648E+02 -0.212701417E+01  0.216597389E+01
     4
 # iter = 63500  time[fs]=63.50000
   C -0.714477315E+01 -0.324173447E-01  0.145402560E+00
   C  0.677546338E+01  0.782359758E-01 -0.396565833E-01
   H -0.335926405E+02  0.535881684E+00 -0.248156892E+01
   H  0.323371560E+02 -0.215113220E+01  0.219068936E+01
     4
 # iter = 64000  time[fs]=64.00000
   C -0.723242298E+01 -0.327686458E-01  0.147314212E+00
   C  0.685864850E+01  0.794388683E-01 -0.403528341E-01
   H -0.339691519E+02  0.542117889E+00 -0.250971650E+01
   H  0.326958291E+02 -0.217525627E+01  0.221541107E+01
     4
 # iter = 64500  time[fs]=64.50000
   C -0.732013541E+01 -0.331204517E-01  0.149227029E+00
   C  0.694189589E+01  0.806426270E-01 -0.410502138E-01
   H -0.343457395E+02  0.548355670E+00 -0.253787063E+01
   H  0.330545824E+02 -0.219938626E+01  0.224013888E+01
     4
 # iter = 65000  time[fs]=65.00000
   C -0.740790897E+01 -0.334727515E-01  0.151140985E+00
   C  0.702520406E+01  0.818472334E-01 -0.417486979E-01
   H -0.347224015E+02  0.554594995E+00 -0.256603116E+01
   H  0.334134143E+02 -0.222352203E+01  0.226487268E+01
     4
 # iter = 65500  time[fs]=65.50000
   C -0.749574219E+01 -0.338255344E-01  0.153056058E+00
   C  0.710857157E+01  0.830526696E-01 -0.424482628E-01
   H -0.350991365E+02  0.560835830E+00 -0.259419797E+01
   H  0.337723229E+02 -0.224766348E+01  0.228961234E+01
     4
 # iter = 66000  time[fs]=66.00000
   C -0.758363368E+01 -0.341787899E-01  0.154972221E+00
   C  0.719199704E+01  0.842589181E-01 -0.431488857E-01
   H -0.354759429E+02  0.567078144E+00 -0.262237091E+01
   H  0.341313068E+02 -0.227181048E+01  0.231435773E+01
     4
 # iter = 66500  time[fs]=66.50000
   C -0.767158209E+01 -0.345325082E-01  0.156889454E+00
   C  0.727547911E+01  0.854659620E-01 -0.438505446E-01
   H -0.358528191E+02  0.573321908E+00 -0.265054987E+01
   H  0.344903644E+02 -0.229596292E+01  0.233910874E+01
     4
 # iter = 67000  time[fs]=67.00000
   C -0.775958612E+01 -0.348866793E-01  0.158807733E+00
   C  0.735901650E+01  0.866737849E-01 -0.445532179E-01
   H -0.362297639E+02  0.579567091E+00 -0.267873472E+01
   H  0.348494941E+02 -0.232012070E+01  0.236386527E+01
     4
 # iter = 67500  time[fs]=67.50000
   C -0.784764451E+01 -0.352412940E-01  0.160727037E+00
   C  0.744260793E+01  0.878823711E-01 -0.452568850E-01
   H -0.366067756E+02  0.585813667E+00 -0.270692535E+01
   H  0.352086945E+02 -0.234428370E+01  0.238862719E+01
     4
 # iter = 68000  time[fs]=68.00000
   C -0.793575603E+01 -0.355963429E-01  0.162647345E+00
   C  0.752625220E+01  0.890917050E-01 -0.459615255E-01
   H -0.369838531E+02  0.592061605E+00 -0.273512164E+01
   H  0.355679642E+02 -0.236845183E+01  0.241339441E+01
     4
 # iter = 68500  time[fs]=68.50000
   C -0.802391952E+01 -0.359518173E-01  0.164568636E+00
   C  0.760994813E+01  0.903017718E-01 -0.466671199E-01
   H -0.373609949E+02  0.598310881E+00 -0.276332348E+01
   H  0.359273018E+02 -0.239262499E+01  0.243816682E+01
     4
 # iter = 69000  time[fs]=69.00000
   C -0.811213381E+01 -0.363077084E-01  0.166490892E+00
   C  0.769369460E+01  0.915125569E-01 -0.473736493E-01
   H -0.377381998E+02  0.604561468E+00 -0.279153076E+01
   H  0.362867060E+02 -0.241680307E+01  0.246294432E+01
     4
 # iter = 69500  time[fs]=69.50000
   C -0.820039782E+01 -0.366640081E-01  0.168414093E+00
   C  0.777749048E+01  0.927240462E-01 -0.480810951E-01
   H -0.381154665E+02  0.610813341E+00 -0.281974337E+01
   H  0.366461755E+02 -0.244098599E+01  0.248772681E+01
     4
 # iter = 70000  time[fs]=70.00000
   C -0.828871048E+01 -0.370207080E-01  0.170338220E+00
   C  0.786133473E+01  0.939362261E-01 -0.487894395E-01
   H -0.384927939E+02  0.617066474E+00 -0.284796122E+01
   H  0.370057089E+02 -0.246517365E+01  0.251251420E+01
     4
 # iter = 70500  time[fs]=70.50000
   C -0.837707073E+01 -0.373778004E-01  0.172263255E+00
   C  0.794522631E+01  0.951490833E-01 -0.494986651E-01
   H -0.388701808E+02  0.623320845E+00 -0.287618420E+01
   H  0.373653051E+02 -0.248936597E+01  0.253730641E+01
     4
 # iter = 71000  time[fs]=71.00000
   C -0.846547759E+01 -0.377352776E-01  0.174189181E+00
   C  0.802916422E+01  0.963626048E-01 -0.502087549E-01
   H -0.392476260E+02  0.629576430E+00 -0.290441222E+01
   H  0.377249629E+02 -0.251356286E+01  0.256210333E+01
     4
 # iter = 71500  time[fs]=71.50000
   C -0.855393008E+01 -0.380931321E-01  0.176115981E+00
   C  0.811314749E+01  0.975767781E-01 -0.509196926E-01
   H -0.396251285E+02  0.635833207E+00 -0.293264519E+01
   H  0.380846812E+02 -0.253776423E+01  0.258690488E+01
     4
 # iter = 72000  time[fs]=72.00000
   C -0.864242725E+01 -0.384513568E-01  0.178043639E+00
   C  0.819717519E+01  0.987915910E-01 -0.516314621E-01
   H -0.400026871E+02  0.642091153E+00 -0.296088301E+01
   H  0.384444588E+02 -0.256197001E+01  0.261171099E+01
     4
 # iter = 72500  time[fs]=72.50000
   C -0.873096819E+01 -0.388099445E-01  0.179972137E+00
   C  0.828124639E+01  0.100007032E+00 -0.523440480E-01
   H -0.403803008E+02  0.648350247E+00 -0.298912559E+01
   H  0.388042946E+02 -0.258618011E+01  0.263652156E+01
     4
 # iter = 73000  time[fs]=73.00000
   C -0.881955201E+01 -0.391688885E-01  0.181901461E+00
   C  0.836536022E+01  0.101223089E+00 -0.530574351E-01
   H -0.407579687E+02  0.654610469E+00 -0.301737285E+01
   H  0.391641875E+02 -0.261039446E+01  0.266133651E+01
     4
 # iter = 73500  time[fs]=73.50000
   C -0.890817786E+01 -0.395281821E-01  0.183831596E+00
   C  0.844951583E+01  0.102439750E+00 -0.537716087E-01
   H -0.411356896E+02  0.660871799E+00 -0.304562471E+01
   H  0.395241366E+02 -0.263461297E+01  0.268615578E+01
     4
 # iter = 74000  time[fs]=74.00000
   C -0.899684488E+01 -0.398878189E-01  0.185762526E+00
   C  0.853371236E+01  0.103657006E+00 -0.544865545E-01
   H -0.415134627E+02  0.667134216E+00 -0.307388108E+01
   H  0.398841408E+02 -0.265883559E+01  0.271097927E+01
     4
 # iter = 74500  time[fs]=74.50000
   C -0.908555228E+01 -0.402477926E-01  0.187694237E+00
   C  0.861794903E+01  0.104874845E+00 -0.552022587E-01
   H -0.418912870E+02  0.673397702E+00 -0.310214188E+01
   H  0.402441991E+02 -0.268306224E+01  0.273580693E+01
     4
 # iter = 75000  time[fs]=75.00000
   C -0.917429927E+01 -0.406080969E-01  0.189626716E+00
   C  0.870222505E+01  0.106093258E+00 -0.559187076E-01
   H -0.422691616E+02  0.679662238E+00 -0.313040705E+01
   H  0.406043106E+02 -0.270729284E+01  0.276063868E+01
     4
 # iter = 75500  time[fs]=75.50000
   C -0.926308507E+01 -0.409687261E-01  0.191559948E+00
   C  0.878653964E+01  0.107312233E+00 -0.566358881E-01
   H -0.426470857E+02  0.685927805E+00 -0.315867649E+01
   H  0.409644743E+02 -0.273152733E+01  0.278547444E+01
     4
 # iter = 76000  time[fs]=76.00000
   C -0.935190895E+01 -0.413296743E-01  0.193493920E+00
   C  0.887089208E+01  0.108531761E+00 -0.573537874E-01
   H -0.430250583E+02  0.692194387E+00 -0.318695014E+01
   H  0.413246894E+02 -0.275576564E+01  0.281031415E+01
     4
 # iter = 76500  time[fs]=76.50000
   C -0.944077017E+01 -0.416909358E-01  0.195428619E+00
   C  0.895528164E+01  0.109751833E+00 -0.580723928E-01
   H -0.434030786E+02  0.698461966E+00 -0.321522792E+01
   H  0.416849550E+02 -0.278000772E+01  0.283515775E+01
     4
 # iter = 77000  time[fs]=77.00000
   C -0.952966805E+01 -0.420525051E-01  0.197364033E+00
   C  0.903970762E+01  0.110972439E+00 -0.587916923E-01
   H -0.437811458E+02  0.704730525E+00 -0.324350977E+01
   H  0.420452701E+02 -0.280425349E+01  0.286000516E+01
     4
 # iter = 77500  time[fs]=77.50000
   C -0.961860188E+01 -0.424143769E-01  0.199300150E+00
   C  0.912416934E+01  0.112193571E+00 -0.595116738E-01
   H -0.441592592E+02  0.711000047E+00 -0.327179562E+01
   H  0.424056340E+02 -0.282850290E+01  0.288485633E+01
     4
 # iter = 78000  time[fs]=78.00000
   C -0.970757102E+01 -0.427765460E-01  0.201236957E+00
   C  0.920866614E+01  0.113415218E+00 -0.602323259E-01
   H -0.445374178E+02  0.717270517E+00 -0.330008541E+01
   H  0.427660459E+02 -0.285275588E+01  0.290971119E+01
     4
 # iter = 78500  time[fs]=78.50000
   C -0.979657480E+01 -0.431390073E-01  0.203174442E+00
   C  0.929319737E+01  0.114637374E+00 -0.609536372E-01
   H -0.449156210E+02  0.723541920E+00 -0.332837905E+01
   H  0.431265049E+02 -0.287701238E+01  0.293456968E+01
     4
 # iter = 79000  time[fs]=79.00000
   C -0.988561261E+01 -0.435017557E-01  0.205112595E+00
   C  0.937776242E+01  0.115860028E+00 -0.616755968E-01
   H -0.452938681E+02  0.729814239E+00 -0.335667651E+01
   H  0.434870103E+02 -0.290127234E+01  0.295943175E+01
     4
 # iter = 79500  time[fs]=79.50000
   C -0.997468382E+01 -0.438647865E-01  0.207051405E+00
   C  0.946236066E+01  0.117083173E+00 -0.623981938E-01
   H -0.456721582E+02  0.736087461E+00 -0.338497770E+01
   H  0.438475614E+02 -0.292553571E+01  0.298429734E+01
     4
 # iter = 80000  time[fs]=80.00000
   C -0.100637878E+02 -0.442280950E-01  0.208990859E+00
   C  0.954699150E+01  0.118306802E+00 -0.631214178E-01
   H -0.460504907E+02  0.742361570E+00 -0.341328258E+01
   H  0.442081573E+02 -0.294980243E+01  0.300916639E+01
