     4
 # iter = 25000  time[fs]=25.00000
   C -0.939273598E+00  0.118658956E-01  0.179422621E-01
   C  0.105432906E+01  0.102509863E-01 -0.702820738E-01
   H -0.518315081E+01 -0.409515079E+00 -0.521468571E+00
   H  0.531506967E+01  0.202454868E+00  0.570233010E+00
     4
 # iter = 25500  time[fs]=25.50000
   C -0.982077665E+00  0.136317679E-01  0.203702279E-01
   C  0.110077351E+01  0.101268192E-01 -0.743530473E-01
   H -0.551291997E+01 -0.435415862E+00 -0.556200935E+00
   H  0.563676406E+01  0.216439088E+00  0.610208343E+00
     4
 # iter = 26000  time[fs]=26.00000
   C -0.102787565E+01  0.154280786E-01  0.229665328E-01
   C  0.115021499E+01  0.999357568E-02 -0.786010452E-01
   H -0.584823104E+01 -0.461801305E+00 -0.591540630E+00
   H  0.596396310E+01  0.230651626E+00  0.650895232E+00
     4
 # iter = 26500  time[fs]=26.50000
   C -0.107641790E+01  0.172536765E-01  0.257191134E-01
   C  0.120240177E+01  0.984975903E-02 -0.830133776E-01
   H -0.618845537E+01 -0.488615812E+00 -0.627419666E+00
   H  0.629606285E+01  0.245068657E+00  0.692218166E+00
     4
 # iter = 27000  time[fs]=27.00000
   C -0.112747158E+01  0.191074032E-01  0.286166338E-01
   C  0.125709956E+01  0.969432641E-02 -0.875781231E-01
   H -0.653305999E+01 -0.515812504E+00 -0.663780518E+00
   H  0.663254794E+01  0.259669719E+00  0.734112596E+00
     4
 # iter = 27500  time[fs]=27.50000
   C -0.118082185E+01  0.209880821E-01  0.316485016E-01
   C  0.131409249E+01  0.952660769E-02 -0.922841481E-01
   H -0.688159001E+01 -0.543351546E+00 -0.700574134E+00
   H  0.697297596E+01  0.274437140E+00  0.776522978E+00
     4
 # iter = 28000  time[fs]=28.00000
   C -0.123627205E+01  0.228945225E-01  0.348048698E-01
   C  0.137318315E+01  0.934623063E-02 -0.971211089E-01
   H -0.723365468E+01 -0.571198836E+00 -0.737758395E+00
   H  0.731696492E+01  0.289355569E+00  0.819401225E+00
     4
 # iter = 28500  time[fs]=28.50000
   C -0.129364314E+01  0.248255315E-01  0.380766250E-01
   C  0.143419201E+01  0.915305552E-02 -0.102079437E+00
   H -0.758891638E+01 -0.599324983E+00 -0.775296889E+00
   H  0.766418321E+01  0.304411609E+00  0.862705468E+00
     4
 # iter = 29000  time[fs]=29.00000
   C -0.135277278E+01  0.267799269E-01  0.414553621E-01
   C  0.149695639E+01  0.894712021E-02 -0.107150311E+00
   H -0.794708169E+01 -0.627704498E+00 -0.813157949E+00
   H  0.801434142E+01  0.319593503E+00  0.906399050E+00
     4
 # iter = 29500  time[fs]=29.50000
   C -0.141351418E+01  0.287565488E-01  0.449333513E-01
   C  0.156132930E+01  0.872859490E-02 -0.112325622E+00
   H -0.830789430E+01 -0.656315146E+00 -0.851313879E+00
   H  0.836718578E+01  0.334890892E+00  0.950449722E+00
     4
 # iter = 30000  time[fs]=30.00000
   C -0.147573480E+01  0.307542703E-01  0.485034974E-01
   C  0.162717807E+01  0.849774594E-02 -0.117597929E+00
   H -0.867112916E+01 -0.685137428E+00 -0.889740328E+00
   H  0.872249272E+01  0.350294603E+00  0.994828979E+00
     4
 # iter = 30500  time[fs]=30.50000
   C -0.153931506E+01  0.327720047E-01  0.521592976E-01
   C  0.169438306E+01  0.825490716E-02 -0.122960413E+00
   H -0.903658777E+01 -0.714154157E+00 -0.928415779E+00
   H  0.908006442E+01  0.365796484E+00  0.103951151E+01
     4
 # iter = 31000  time[fs]=31.00000
   C -0.160414713E+01  0.348087110E-01  0.558947963E-01
   C  0.176283643E+01  0.800045761E-02 -0.128406829E+00
   H -0.940409427E+01 -0.743350111E+00 -0.967321137E+00
   H  0.943972511E+01  0.381389257E+00  0.108447476E+01
     4
 # iter = 31500  time[fs]=31.50000
   C -0.167013366E+01  0.368633971E-01  0.597045417E-01
   C  0.183244087E+01  0.773480439E-02 -0.133931462E+00
   H -0.977349222E+01 -0.772711755E+00 -0.100643938E+01
   H  0.980131802E+01  0.397066406E+00  0.112969852E+01
     4
 # iter = 32000  time[fs]=32.00000
   C -0.173718679E+01  0.389351215E-01  0.635835427E-01
   C  0.190310856E+01  0.745836964E-02 -0.139529077E+00
   H -0.101446419E+02 -0.802226997E+00 -0.104575528E+01
   H  0.101647028E+02  0.412822072E+00  0.117516467E+01
     4
 # iter = 32500  time[fs]=32.50000
   C -0.180522710E+01  0.410229940E-01  0.675272290E-01
   C  0.197476015E+01  0.717158084E-02 -0.145194883E+00
   H -0.105174181E+02 -0.831885001E+00 -0.108525515E+01
   H  0.105297535E+02  0.428650971E+00  0.122085686E+01
     4
 # iter = 33000  time[fs]=33.00000
   C -0.187418270E+01  0.431261746E-01  0.715314131E-01
   C  0.204732384E+01  0.687486363E-02 -0.150924488E+00
   H -0.108917081E+02 -0.861676014E+00 -0.112492666E+01
   H  0.108963563E+02  0.444548324E+00  0.126676030E+01
     4
 # iter = 33500  time[fs]=33.50000
   C -0.194398844E+01  0.452438727E-01  0.755922553E-01
   C  0.212073456E+01  0.656863656E-02 -0.156713865E+00
   H -0.112674104E+02 -0.891591235E+00 -0.116475866E+01
   H  0.112644086E+02  0.460509792E+00  0.131286159E+01
     4
 # iter = 34000  time[fs]=34.00000
   C -0.201458521E+01  0.473753450E-01  0.797062317E-01
   C  0.219493330E+01  0.625330748E-02 -0.162559317E+00
   H -0.116444328E+02 -0.921622693E+00 -0.120474104E+01
   H  0.116338172E+02  0.476531431E+00  0.135914855E+01
     4
 # iter = 34500  time[fs]=34.50000
   C -0.208591926E+01  0.495198936E-01  0.838701050E-01
   C  0.226986640E+01  0.592927102E-02 -0.168457446E+00
   H -0.120226920E+02 -0.951763146E+00 -0.124486459E+01
   H  0.120044976E+02  0.492609639E+00  0.140561005E+01
     4
 # iter = 35000  time[fs]=35.00000
   C -0.215794164E+01  0.516768634E-01  0.880808975E-01
   C  0.234548503E+01  0.559690698E-02 -0.174405128E+00
   H -0.124021118E+02 -0.982006000E+00 -0.128512092E+01
   H  0.123763724E+02  0.508741124E+00  0.145223592E+01
     4
 # iter = 35500  time[fs]=35.50000
   C -0.223060772E+01  0.538456401E-01  0.923358671E-01
   C  0.242174462E+01  0.525657936E-02 -0.180399483E+00
   H -0.127826228E+02 -0.101234523E+01 -0.132550234E+01
   H  0.127493711E+02  0.524922866E+00  0.149901685E+01
     4
 # iter = 36000  time[fs]=36.00000
   C -0.230387671E+01  0.560256475E-01  0.966324860E-01
   C  0.249860450E+01  0.490863594E-02 -0.186437857E+00
   H -0.131641617E+02 -0.104277533E+01 -0.136600183E+01
   H  0.131234290E+02  0.541152092E+00  0.154594428E+01
     4
 # iter = 36500  time[fs]=36.50000
   C -0.237771127E+01  0.582163453E-01  0.100968420E+00
   C  0.257602743E+01  0.455340815E-02 -0.192517799E+00
   H -0.135466702E+02 -0.107329122E+01 -0.140661290E+01
   H  0.134984869E+02  0.557426246E+00  0.159301032E+01
     4
 # iter = 37000  time[fs]=37.00000
   C -0.245207719E+01  0.604172266E-01  0.105341512E+00
   C  0.265397928E+01  0.419121131E-02 -0.198637041E+00
   H -0.139300947E+02 -0.110388826E+01 -0.144732961E+01
   H  0.138744902E+02  0.573742971E+00  0.164020770E+01
     4
 # iter = 37500  time[fs]=37.50000
   C -0.252694304E+01  0.626278159E-01  0.109749765E+00
   C  0.273242871E+01  0.382234493E-02 -0.204793484E+00
   H -0.143143859E+02 -0.113456215E+01 -0.148814645E+01
   H  0.142513883E+02  0.590100088E+00  0.168752970E+01
     4
 # iter = 38000  time[fs]=38.00000
   C -0.260227991E+01  0.648476668E-01  0.114191329E+00
   C  0.281134689E+01  0.344709325E-02 -0.210985183E+00
   H -0.146994984E+02 -0.116530893E+01 -0.152905833E+01
   H  0.146291349E+02  0.606495577E+00  0.173497009E+01
     4
 # iter = 38500  time[fs]=38.50000
   C -0.267806115E+01  0.670763600E-01  0.118664485E+00
   C  0.289070726E+01  0.306572581E-02 -0.217210331E+00
   H -0.150853900E+02 -0.119612493E+01 -0.157006055E+01
   H  0.150076868E+02  0.622927564E+00  0.178252308E+01
     4
 # iter = 39000  time[fs]=39.00000
   C -0.275426220E+01  0.693135018E-01  0.123167638E+00
   C  0.297048533E+01  0.267849808E-02 -0.223467249E+00
   H -0.154720218E+02 -0.122700674E+01 -0.161114872E+01
   H  0.153870041E+02  0.639394306E+00  0.183018332E+01
     4
 # iter = 39500  time[fs]=39.50000
   C -0.283086032E+01  0.715587216E-01  0.127699303E+00
   C  0.305065846E+01  0.228565216E-02 -0.229754375E+00
   H -0.158593576E+02 -0.125795120E+01 -0.165231879E+01
   H  0.157670498E+02  0.655894183E+00  0.187794578E+01
     4
 # iter = 40000  time[fs]=40.00000
   C -0.290783448E+01  0.738116713E-01  0.132258097E+00
   C  0.313120567E+01  0.188741737E-02 -0.236070251E+00
   H -0.162473638E+02 -0.128895538E+01 -0.169356695E+01
   H  0.161477892E+02  0.672425681E+00  0.192580582E+01
     4
 # iter = 40500  time[fs]=40.50000
   C -0.298516519E+01  0.760720226E-01  0.136842729E+00
   C  0.321210754E+01  0.148401101E-02 -0.242413521E+00
   H -0.166360090E+02 -0.132001652E+01 -0.173488968E+01
   H  0.165291903E+02  0.688987386E+00  0.197375907E+01
     4
 # iter = 41000  time[fs]=41.00000
   C -0.306283434E+01  0.783394666E-01  0.141451994E+00
   C  0.329334603E+01  0.107563899E-02 -0.248782913E+00
   H -0.170252639E+02 -0.135113208E+01 -0.177628367E+01
   H  0.169112229E+02  0.705577978E+00  0.202180147E+01
     4
 # iter = 41500  time[fs]=41.50000
   C -0.314082510E+01  0.806137120E-01  0.146084765E+00
   C  0.337490438E+01  0.662496420E-03 -0.255177241E+00
   H -0.174151014E+02 -0.138229965E+01 -0.181774583E+01
   H  0.172938591E+02  0.722196219E+00  0.206992918E+01
     4
 # iter = 42000  time[fs]=42.00000
   C -0.321912179E+01  0.828944839E-01  0.150739989E+00
   C  0.345676698E+01  0.244768296E-03 -0.261595393E+00
   H -0.178054958E+02 -0.141351701E+01 -0.185927327E+01
   H  0.176770725E+02  0.738840946E+00  0.211813864E+01
     4
 # iter = 42500  time[fs]=42.50000
   C -0.329770982E+01  0.851815226E-01  0.155416676E+00
   C  0.353891927E+01 -0.177369961E-03 -0.268036326E+00
   H -0.181964232E+02 -0.144478204E+01 -0.190086327E+01
   H  0.180608386E+02  0.755511070E+00  0.216642647E+01
     4
 # iter = 43000  time[fs]=43.00000
   C -0.337657552E+01  0.874745831E-01  0.160113898E+00
   C  0.362134766E+01 -0.603751931E-03 -0.274499064E+00
   H -0.185878612E+02 -0.147609278E+01 -0.194251327E+01
   H  0.184451342E+02  0.772205566E+00  0.221478953E+01
     4
 # iter = 43500  time[fs]=43.50000
   C -0.345570617E+01  0.897734334E-01  0.164830786E+00
   C  0.370403948E+01 -0.103421967E-02 -0.280982685E+00
   H -0.189797888E+02 -0.150744737E+01 -0.198422088E+01
   H  0.188299376E+02  0.788923469E+00  0.226322483E+01
     4
 # iter = 44000  time[fs]=44.00000
   C -0.353508983E+01  0.920778540E-01  0.169566519E+00
   C  0.378698283E+01 -0.146862320E-02 -0.287486328E+00
   H -0.193721861E+02 -0.153884407E+01 -0.202598383E+01
   H  0.192152285E+02  0.805663867E+00  0.231172957E+01
     4
 # iter = 44500  time[fs]=44.50000
   C -0.361471532E+01  0.943876372E-01  0.174320328E+00
   C  0.387016658E+01 -0.190682006E-02 -0.294009177E+00
   H -0.197650345E+02 -0.157028125E+01 -0.206780000E+01
   H  0.196009875E+02  0.822425904E+00  0.236030110E+01
     4
 # iter = 45000  time[fs]=45.00000
   C -0.369457216E+01  0.967025859E-01  0.179091485E+00
   C  0.395358031E+01 -0.234867483E-02 -0.300550465E+00
   H -0.201583163E+02 -0.160175734E+01 -0.210966737E+01
   H  0.199871965E+02  0.839208769E+00  0.240893692E+01
     4
 # iter = 45500  time[fs]=45.50000
   C -0.377465050E+01  0.990225134E-01  0.183879306E+00
   C  0.403721420E+01 -0.279405875E-02 -0.307109470E+00
   H -0.205520151E+02 -0.163327089E+01 -0.215158404E+01
   H  0.203738385E+02  0.856011694E+00  0.245763467E+01
     4
 # iter = 46000  time[fs]=46.00000
   C -0.385494108E+01  0.101347242E+00  0.188683144E+00
   C  0.412105905E+01 -0.324284932E-02 -0.313685508E+00
   H -0.209461151E+02 -0.166482051E+01 -0.219354821E+01
   H  0.207608972E+02  0.872833956E+00  0.250639212E+01
     4
 # iter = 46500  time[fs]=46.50000
   C -0.393543520E+01  0.103676604E+00  0.193502388E+00
   C  0.420510618E+01 -0.369492990E-02 -0.320277932E+00
   H -0.213406015E+02 -0.169640490E+01 -0.223555818E+01
   H  0.211483573E+02  0.889674866E+00  0.255520714E+01
     4
 # iter = 47000  time[fs]=47.00000
   C -0.401612464E+01  0.106010440E+00  0.198336460E+00
   C  0.428934742E+01 -0.415018941E-02 -0.326886134E+00
   H -0.217354604E+02 -0.172802281E+01 -0.227761234E+01
   H  0.215362044E+02  0.906533772E+00  0.260407772E+01
     4
 # iter = 47500  time[fs]=47.50000
   C -0.409700167E+01  0.108348596E+00  0.203184814E+00
   C  0.437377508E+01 -0.460852200E-02 -0.333509533E+00
   H -0.221306784E+02 -0.175967308E+01 -0.231970916E+01
   H  0.219244247E+02  0.923410057E+00  0.265300196E+01
     4
 # iter = 48000  time[fs]=48.00000
   C -0.417805898E+01  0.110690928E+00  0.208046931E+00
   C  0.445838188E+01 -0.506982672E-02 -0.340147582E+00
   H -0.225262430E+02 -0.179135459E+01 -0.236184718E+01
   H  0.223130052E+02  0.940303134E+00  0.270197805E+01
     4
 # iter = 48500  time[fs]=48.50000
   C -0.425928966E+01  0.113037298E+00  0.212922320E+00
   C  0.454316096E+01 -0.553400730E-02 -0.346799762E+00
   H -0.229221422E+02 -0.182306627E+01 -0.240402503E+01
   H  0.227019335E+02  0.957212442E+00  0.275100426E+01
     4
 # iter = 49000  time[fs]=49.00000
   C -0.434068720E+01  0.115387575E+00  0.217810514E+00
   C  0.462810582E+01 -0.600097181E-02 -0.353465578E+00
   H -0.233183646E+02 -0.185480713E+01 -0.244624139E+01
   H  0.230911979E+02  0.974137452E+00  0.280007896E+01
     4
 # iter = 49500  time[fs]=49.50000
   C -0.442224541E+01  0.117741633E+00  0.222711071E+00
   C  0.471321031E+01 -0.647063246E-02 -0.360144562E+00
   H -0.237148995E+02 -0.188657621E+01 -0.248849501E+01
   H  0.234807873E+02  0.991077658E+00  0.284920058E+01
     4
 # iter = 50000  time[fs]=50.00000
   C -0.450395844E+01  0.120099353E+00  0.227623570E+00
   C  0.479846861E+01 -0.694290538E-02 -0.366836269E+00
   H -0.241117366E+02 -0.191837259E+01 -0.253078470E+01
   H  0.238706910E+02  0.100803258E+01  0.289836764E+01
     4
 # iter = 50500  time[fs]=50.50000
   C -0.458582074E+01  0.122460621E+00  0.232547610E+00
   C  0.488387520E+01 -0.741771037E-02 -0.373540273E+00
   H -0.245088662E+02 -0.195019541E+01 -0.257310933E+01
   H  0.242608989E+02  0.102500175E+01  0.294757872E+01
     4
 # iter = 51000  time[fs]=51.00000
   C -0.466782703E+01  0.124825326E+00  0.237482811E+00
   C  0.496942484E+01 -0.789497071E-02 -0.380256173E+00
   H -0.249062789E+02 -0.198204384E+01 -0.261546782E+01
   H  0.246514014E+02  0.104198474E+01  0.299683247E+01
     4
 # iter = 51500  time[fs]=51.50000
   C -0.474997233E+01  0.127193366E+00  0.242428809E+00
   C  0.505511255E+01 -0.837461299E-02 -0.386983582E+00
   H -0.253039659E+02 -0.201391709E+01 -0.265785913E+01
   H  0.250421891E+02  0.105898112E+01  0.304612760E+01
     4
 # iter = 52000  time[fs]=52.00000
   C -0.483225188E+01  0.129564640E+00  0.247385259E+00
   C  0.514093362E+01 -0.885656689E-02 -0.393722135E+00
   H -0.257019186E+02 -0.204581441E+01 -0.270028228E+01
   H  0.254332535E+02  0.107599050E+01  0.309546286E+01
     4
 # iter = 52500  time[fs]=52.50000
   C -0.491466114E+01  0.131939053E+00  0.252351830E+00
   C  0.522688353E+01 -0.934076507E-02 -0.400471482E+00
   H -0.261001291E+02 -0.207773508E+01 -0.274273633E+01
   H  0.258245860E+02  0.109301249E+01  0.314483709E+01
     4
 # iter = 53000  time[fs]=53.00000
   C -0.499719583E+01  0.134316513E+00  0.257328207E+00
   C  0.531295802E+01 -0.982714297E-02 -0.407231287E+00
   H -0.264985895E+02 -0.210967840E+01 -0.278522036E+01
   H  0.262161788E+02  0.111004673E+01  0.319424914E+01
     4
 # iter = 53500  time[fs]=53.50000
   C -0.507985184E+01  0.136696933E+00  0.262314090E+00
   C  0.539915299E+01 -0.103156387E-01 -0.414001233E+00
   H -0.268972925E+02 -0.214164373E+01 -0.282773352E+01
   H  0.266080240E+02  0.112709286E+01  0.324369794E+01
     4
 # iter = 54000  time[fs]=54.00000
   C -0.516262526E+01  0.139080228E+00  0.267309191E+00
   C  0.548546458E+01 -0.108061928E-01 -0.420781015E+00
   H -0.272962310E+02 -0.217363042E+01 -0.287027499E+01
   H  0.270001144E+02  0.114415055E+01  0.329318246E+01
     4
 # iter = 54500  time[fs]=54.50000
   C -0.524551237E+01  0.141466319E+00  0.272313234E+00
   C  0.557188907E+01 -0.112987483E-01 -0.427570340E+00
   H -0.276953982E+02 -0.220563787E+01 -0.291284396E+01
   H  0.273924429E+02  0.116121948E+01  0.334270169E+01
     4
 # iter = 55000  time[fs]=55.00000
   C -0.532850961E+01  0.143855128E+00  0.277325957E+00
   C  0.565842292E+01 -0.117932504E-01 -0.434368929E+00
   H -0.280947877E+02 -0.223766551E+01 -0.295543969E+01
   H  0.277850028E+02  0.117829934E+01  0.339225468E+01
     4
 # iter = 55500  time[fs]=55.50000
   C -0.541161357E+01  0.146246581E+00  0.282347107E+00
   C  0.574506275E+01 -0.122896465E-01 -0.441176514E+00
   H -0.284943932E+02 -0.226971279E+01 -0.299806143E+01
   H  0.281777877E+02  0.119538983E+01  0.344184052E+01
     4
 # iter = 56000  time[fs]=56.00000
   C -0.549482102E+01  0.148640606E+00  0.287376444E+00
   C  0.583180535E+01 -0.127878861E-01 -0.447992840E+00
   H -0.288942088E+02 -0.230177915E+01 -0.304070849E+01
   H  0.285707914E+02  0.121249067E+01  0.349145834E+01
     4
 # iter = 56500  time[fs]=56.50000
   C -0.557812885E+01  0.151037135E+00  0.292413735E+00
   C  0.591864762E+01 -0.132879204E-01 -0.454817661E+00
   H -0.292942288E+02 -0.233386410E+01 -0.308338020E+01
   H  0.289640079E+02  0.122960158E+01  0.354110728E+01
     4
 # iter = 57000  time[fs]=57.00000
   C -0.566153408E+01  0.153436103E+00  0.297458759E+00
   C  0.600558660E+01 -0.137897028E-01 -0.461650741E+00
   H -0.296944476E+02 -0.236596715E+01 -0.312607591E+01
   H  0.293574315E+02  0.124672231E+01  0.359078653E+01
     4
 # iter = 57500  time[fs]=57.50000
   C -0.574503388E+01  0.155837445E+00  0.302511304E+00
   C  0.609261947E+01 -0.142931882E-01 -0.468491854E+00
   H -0.300948600E+02 -0.239808782E+01 -0.316879501E+01
   H  0.297510568E+02  0.126385259E+01  0.364049533E+01
     4
 # iter = 58000  time[fs]=58.00000
   C -0.582862551E+01  0.158241101E+00  0.307571164E+00
   C  0.617974352E+01 -0.147983332E-01 -0.475340783E+00
   H -0.304954609E+02 -0.243022565E+01 -0.321153688E+01
   H  0.301448785E+02  0.128099219E+01  0.369023291E+01
     4
 # iter = 58500  time[fs]=58.50000
   C -0.591230636E+01  0.160647013E+00  0.312638143E+00
   C  0.626695616E+01 -0.153050960E-01 -0.482197318E+00
   H -0.308962454E+02 -0.246238021E+01 -0.325430097E+01
   H  0.305388915E+02  0.129814087E+01  0.373999855E+01
     4
 # iter = 59000  time[fs]=59.00000
   C -0.599607394E+01  0.163055123E+00  0.317712053E+00
   C  0.635425490E+01 -0.158134364E-01 -0.489061261E+00
   H -0.312972089E+02 -0.249455108E+01 -0.329708671E+01
   H  0.309330909E+02  0.131529840E+01  0.378979156E+01
     4
 # iter = 59500  time[fs]=59.50000
   C -0.607992583E+01  0.165465377E+00  0.322792711E+00
   C  0.644163733E+01 -0.163233156E-01 -0.495932416E+00
   H -0.316983468E+02 -0.252673785E+01 -0.333989358E+01
   H  0.313274721E+02  0.133246457E+01  0.383961126E+01
     4
 # iter = 60000  time[fs]=60.00000
   C -0.616385973E+01  0.167877723E+00  0.327879944E+00
   C  0.652910119E+01 -0.168346962E-01 -0.502810600E+00
   H -0.320996548E+02 -0.255894014E+01 -0.338272105E+01
   H  0.317220305E+02  0.134963917E+01  0.388945702E+01
     4
 # iter = 60500  time[fs]=60.50000
   C -0.624787342E+01  0.170292111E+00  0.332973584E+00
   C  0.661664425E+01 -0.173475419E-01 -0.509695633E+00
   H -0.325011287E+02 -0.259115757E+01 -0.342556863E+01
   H  0.321167618E+02  0.136682200E+01  0.393932820E+01
     4
 # iter = 61000  time[fs]=61.00000
   C -0.633196478E+01  0.172708490E+00  0.338073468E+00
   C  0.670426441E+01 -0.178618181E-01 -0.516587343E+00
   H -0.329027645E+02 -0.262338976E+01 -0.346843585E+01
   H  0.325116618E+02  0.138401286E+01  0.398922420E+01
     4
 # iter = 61500  time[fs]=61.50000
   C -0.641613175E+01  0.175126814E+00  0.343179442E+00
   C  0.679195963E+01 -0.183774910E-01 -0.523485565E+00
   H -0.333045582E+02 -0.265563639E+01 -0.351132224E+01
   H  0.329067264E+02  0.140121156E+01  0.403914446E+01
     4
 # iter = 62000  time[fs]=62.00000
   C -0.650037237E+01  0.177547038E+00  0.348291354E+00
   C  0.687972795E+01 -0.188945280E-01 -0.530390139E+00
   H -0.337065061E+02 -0.268789709E+01 -0.355422736E+01
   H  0.333019517E+02  0.141841793E+01  0.408908839E+01
     4
 # iter = 62500  time[fs]=62.50000
   C -0.658468474E+01  0.179969118E+00  0.353409060E+00
   C  0.696756750E+01 -0.194128979E-01 -0.537300911E+00
   H -0.341086047E+02 -0.272017156E+01 -0.359715078E+01
   H  0.336973340E+02  0.143563178E+01  0.413905547E+01
     4
 # iter = 63000  time[fs]=63.00000
   C -0.666906704E+01  0.182393010E+00  0.358532421E+00
   C  0.705547645E+01 -0.199325702E-01 -0.544217732E+00
   H -0.345108503E+02 -0.275245948E+01 -0.364009208E+01
   H  0.340928696E+02  0.145285295E+01  0.418904517E+01
     4
 # iter = 63500  time[fs]=63.50000
   C -0.675351751E+01  0.184818675E+00  0.363661301E+00
   C  0.714345306E+01 -0.204535156E-01 -0.551140458E+00
   H -0.349132396E+02 -0.278476053E+01 -0.368305086E+01
   H  0.344885550E+02  0.147008128E+01  0.423905699E+01
     4
 # iter = 64000  time[fs]=64.00000
   C -0.683803446E+01  0.187246072E+00  0.368795572E+00
   C  0.723149566E+01 -0.209757056E-01 -0.558068953E+00
   H -0.353157693E+02 -0.281707443E+01 -0.372602674E+01
   H  0.348843869E+02  0.148731660E+01  0.428909043E+01
     4
 # iter = 64500  time[fs]=64.50000
   C -0.692261625E+01  0.189675162E+00  0.373935106E+00
   C  0.731960261E+01 -0.214991129E-01 -0.565003081E+00
   H -0.357184364E+02 -0.284940090E+01 -0.376901933E+01
   H  0.352803618E+02  0.150455876E+01  0.433914502E+01
     4
 # iter = 65000  time[fs]=65.00000
   C -0.700726131E+01  0.192105910E+00  0.379079784E+00
   C  0.740777236E+01 -0.220237107E-01 -0.571942713E+00
   H -0.361212376E+02 -0.288173965E+01 -0.381202827E+01
   H  0.356764767E+02  0.152180762E+01  0.438922031E+01
     4
 # iter = 65500  time[fs]=65.50000
   C -0.709196812E+01  0.194538278E+00  0.384229487E+00
   C  0.749600339E+01 -0.225494734E-01 -0.578887726E+00
   H -0.365241702E+02 -0.291409042E+01 -0.385505322E+01
   H  0.360727285E+02  0.153906302E+01  0.443931584E+01
     4
 # iter = 66000  time[fs]=66.00000
   C -0.717673522E+01  0.196972232E+00  0.389384102E+00
   C  0.758429425E+01 -0.230763760E-01 -0.585837998E+00
   H -0.369272311E+02 -0.294645295E+01 -0.389809383E+01
   H  0.364691141E+02  0.155632484E+01  0.448943120E+01
     4
 # iter = 66500  time[fs]=66.50000
   C -0.726156119E+01  0.199407738E+00  0.394543521E+00
   C  0.767264353E+01 -0.236043943E-01 -0.592793412E+00
   H -0.373304178E+02 -0.297882700E+01 -0.394114978E+01
   H  0.368656308E+02  0.157359293E+01  0.453956597E+01
     4
 # iter = 67000  time[fs]=67.00000
   C -0.734644466E+01  0.201844763E+00  0.399707636E+00
   C  0.776104988E+01 -0.241335050E-01 -0.599753855E+00
   H -0.377337274E+02 -0.301121232E+01 -0.398422073E+01
   H  0.372622757E+02  0.159086717E+01  0.458971974E+01
     4
 # iter = 67500  time[fs]=67.50000
   C -0.743138432E+01  0.204283277E+00  0.404876346E+00
   C  0.784951199E+01 -0.246636853E-01 -0.606719219E+00
   H -0.381371574E+02 -0.304360867E+01 -0.402730639E+01
   H  0.376590462E+02  0.160814743E+01  0.463989212E+01
     4
 # iter = 68000  time[fs]=68.00000
   C -0.751637888E+01  0.206723247E+00  0.410049551E+00
   C  0.793802857E+01 -0.251949132E-01 -0.613689396E+00
   H -0.385407053E+02 -0.307601584E+01 -0.407040645E+01
   H  0.380559396E+02  0.162543359E+01  0.469008274E+01
     4
 # iter = 68500  time[fs]=68.50000
   C -0.760142711E+01  0.209164644E+00  0.415227154E+00
   C  0.802659842E+01 -0.257271674E-01 -0.620664286E+00
   H -0.389443686E+02 -0.310843359E+01 -0.411352063E+01
   H  0.384529534E+02  0.164272553E+01  0.474029122E+01
     4
 # iter = 69000  time[fs]=69.00000
   C -0.768652782E+01  0.211607440E+00  0.420409064E+00
   C  0.811522034E+01 -0.262604271E-01 -0.627643788E+00
   H -0.393481450E+02 -0.314086172E+01 -0.415664863E+01
   H  0.388500851E+02  0.166002312E+01  0.479051721E+01
     4
 # iter = 69500  time[fs]=69.50000
   C -0.777167986E+01  0.214051606E+00  0.425595188E+00
   C  0.820389319E+01 -0.267946723E-01 -0.634627806E+00
   H -0.397520322E+02 -0.317330002E+01 -0.419979018E+01
   H  0.392473323E+02  0.167732627E+01  0.484076037E+01
     4
 # iter = 70000  time[fs]=70.00000
   C -0.785688209E+01  0.216497115E+00  0.430785441E+00
   C  0.829261585E+01 -0.273298834E-01 -0.641616247E+00
   H -0.401560279E+02 -0.320574829E+01 -0.424294503E+01
   H  0.396446928E+02  0.169463486E+01  0.489102035E+01
     4
 # iter = 70500  time[fs]=70.50000
   C -0.794213345E+01  0.218943941E+00  0.435979737E+00
   C  0.838138725E+01 -0.278660414E-01 -0.648609021E+00
   H -0.405601301E+02 -0.323820633E+01 -0.428611290E+01
   H  0.400421642E+02  0.171194879E+01  0.494129684E+01
     4
 # iter = 71000  time[fs]=71.00000
   C -0.802743288E+01  0.221392058E+00  0.441177993E+00
   C  0.847020635E+01 -0.284031280E-01 -0.655606040E+00
   H -0.409643365E+02 -0.327067395E+01 -0.432929356E+01
   H  0.404397445E+02  0.172926795E+01  0.499158951E+01
     4
 # iter = 71500  time[fs]=71.50000
   C -0.811277936E+01  0.223841441E+00  0.446380131E+00
   C  0.855907214E+01 -0.289411253E-01 -0.662607217E+00
   H -0.413686453E+02 -0.330315098E+01 -0.437248674E+01
   H  0.408374315E+02  0.174659224E+01  0.504189806E+01
     4
 # iter = 72000  time[fs]=72.00000
   C -0.819817191E+01  0.226292066E+00  0.451586072E+00
   C  0.864798364E+01 -0.294800159E-01 -0.669612472E+00
   H -0.417730544E+02 -0.333563722E+01 -0.441569223E+01
   H  0.412352230E+02  0.176392157E+01  0.509222219E+01
     4
 # iter = 72500  time[fs]=72.50000
   C -0.828360958E+01  0.228743909E+00  0.456795742E+00
   C  0.873693989E+01 -0.300197828E-01 -0.676621724E+00
   H -0.421775618E+02 -0.336813250E+01 -0.445890979E+01
   H  0.416331173E+02  0.178125585E+01  0.514256160E+01
     4
 # iter = 73000  time[fs]=73.00000
   C -0.836909144E+01  0.231196947E+00  0.462009067E+00
   C  0.882594000E+01 -0.305604097E-01 -0.683634894E+00
   H -0.425821658E+02 -0.340063667E+01 -0.450213919E+01
   H  0.420311122E+02  0.179859497E+01  0.519291602E+01
     4
 # iter = 73500  time[fs]=73.50000
   C -0.845461659E+01  0.233651159E+00  0.467225976E+00
   C  0.891498305E+01 -0.311018806E-01 -0.690651907E+00
   H -0.429868645E+02 -0.343314954E+01 -0.454538021E+01
   H  0.424292059E+02  0.181593886E+01  0.524328517E+01
     4
 # iter = 74000  time[fs]=74.00000
   C -0.854018416E+01  0.236106522E+00  0.472446401E+00
   C  0.900406819E+01 -0.316441799E-01 -0.697672690E+00
   H -0.433916562E+02 -0.346567097E+01 -0.458863265E+01
   H  0.428273966E+02  0.183328742E+01  0.529366878E+01
     4
 # iter = 74500  time[fs]=74.50000
   C -0.862579330E+01  0.238563015E+00  0.477670275E+00
   C  0.909319457E+01 -0.321872925E-01 -0.704697171E+00
   H -0.437965391E+02 -0.349820080E+01 -0.463189630E+01
   H  0.432256824E+02  0.185064058E+01  0.534406659E+01
     4
 # iter = 75000  time[fs]=75.00000
   C -0.871144319E+01  0.241020619E+00  0.482897532E+00
   C  0.918236138E+01 -0.327312037E-01 -0.711725280E+00
   H -0.442015116E+02 -0.353073887E+01 -0.467517095E+01
   H  0.436240617E+02  0.186799824E+01  0.539447835E+01
     4
 # iter = 75500  time[fs]=75.50000
   C -0.879713304E+01  0.243479312E+00  0.488128109E+00
   C  0.927156783E+01 -0.332758992E-01 -0.718756950E+00
   H -0.446065720E+02 -0.356328504E+01 -0.471845642E+01
   H  0.440225328E+02  0.188536033E+01  0.544490381E+01
     4
 # iter = 76000  time[fs]=76.00000
   C -0.888286207E+01  0.245939076E+00  0.493361945E+00
   C  0.936081315E+01 -0.338213650E-01 -0.725792116E+00
   H -0.450117188E+02 -0.359583916E+01 -0.476175251E+01
   H  0.444210940E+02  0.190272678E+01  0.549534273E+01
     4
 # iter = 76500  time[fs]=76.50000
   C -0.896862953E+01  0.248399892E+00  0.498598980E+00
   C  0.945009658E+01 -0.343675875E-01 -0.732830713E+00
   H -0.454169505E+02 -0.362840110E+01 -0.480505904E+01
   H  0.448197437E+02  0.192009750E+01  0.554579488E+01
     4
 # iter = 77000  time[fs]=77.00000
   C -0.905443468E+01  0.250861741E+00  0.503839155E+00
   C  0.953941741E+01 -0.349145535E-01 -0.739872679E+00
   H -0.458222655E+02 -0.366097072E+01 -0.484837582E+01
   H  0.452184804E+02  0.193747242E+01  0.559626002E+01
     4
 # iter = 77500  time[fs]=77.50000
   C -0.914027681E+01  0.253324605E+00  0.509082415E+00
   C  0.962877493E+01 -0.354622500E-01 -0.746917953E+00
   H -0.462276624E+02 -0.369354789E+01 -0.489170268E+01
   H  0.456173025E+02  0.195485147E+01  0.564673795E+01
     4
 # iter = 78000  time[fs]=78.00000
   C -0.922615524E+01  0.255788468E+00  0.514328703E+00
   C  0.971816846E+01 -0.360106646E-01 -0.753966477E+00
   H -0.466331397E+02 -0.372613247E+01 -0.493503946E+01
   H  0.460162085E+02  0.197223459E+01  0.569722843E+01
     4
 # iter = 78500  time[fs]=78.50000
   C -0.931206928E+01  0.258253310E+00  0.519577966E+00
   C  0.980759731E+01 -0.365597849E-01 -0.761018193E+00
   H -0.470386962E+02 -0.375872435E+01 -0.497838597E+01
   H  0.464151971E+02  0.198962169E+01  0.574773126E+01
     4
 # iter = 79000  time[fs]=79.00000
   C -0.939801829E+01  0.260719117E+00  0.524830152E+00
   C  0.989706085E+01 -0.371095991E-01 -0.768073046E+00
   H -0.474443303E+02 -0.379132339E+01 -0.502174206E+01
   H  0.468142668E+02  0.200701272E+01  0.579824623E+01
     4
 # iter = 79500  time[fs]=79.50000
   C -0.948400163E+01  0.263185872E+00  0.530085209E+00
   C  0.998655844E+01 -0.376600954E-01 -0.775130980E+00
   H -0.478500409E+02 -0.382392948E+01 -0.506510757E+01
   H  0.472134162E+02  0.202440761E+01  0.584877314E+01
     4
 # iter = 80000  time[fs]=80.00000
   C -0.957001867E+01  0.265653560E+00  0.535343088E+00
   C  0.100760895E+02 -0.382112626E-01 -0.782191943E+00
   H -0.482558267E+02 -0.385654251E+01 -0.510848235E+01
   H  0.476126440E+02  0.204180630E+01  0.589931180E+01
