     4
 # iter = 25000  time[fs]=25.00000
   C -0.967394880E+00 -0.453060641E-01 -0.562443962E-01
   C  0.101022117E+01  0.256345129E-01  0.203806307E-01
   H -0.524964417E+01  0.660570213E+00  0.441088835E+00
   H  0.528967253E+01 -0.668242538E+00  0.229042316E+00
     4
 # iter = 25500  time[fs]=25.50000
   C -0.101182965E+01 -0.493497872E-01 -0.597121291E-01
   C  0.105356363E+01  0.281957941E-01  0.200206782E-01
   H -0.557735604E+01  0.702397717E+00  0.468370684E+00
   H  0.560659744E+01 -0.712262166E+00  0.240804088E+00
     4
 # iter = 26000  time[fs]=26.00000
   C -0.105927897E+01 -0.535430225E-01 -0.633391501E-01
   C  0.109990152E+01  0.309095266E-01  0.197580334E-01
   H -0.591034014E+01  0.744973678E+00  0.496153134E+00
   H  0.592902422E+01 -0.757065521E+00  0.252809023E+00
     4
 # iter = 26500  time[fs]=26.50000
   C -0.110949197E+01 -0.578764390E-01 -0.671104337E-01
   C  0.114898505E+01  0.337664000E-01  0.195846786E-01
   H -0.624801092E+01  0.788214546E+00  0.524379644E+00
   H  0.625635405E+01 -0.802569299E+00  0.265029571E+00
     4
 # iter = 27000  time[fs]=27.00000
   C -0.116223452E+01 -0.623410622E-01 -0.710125242E-01
   C  0.120058121E+01  0.367574036E-01  0.194930816E-01
   H -0.658987010E+01  0.832049570E+00  0.553002477E+00
   H  0.658807533E+01 -0.848702315E+00  0.277442384E+00
     4
 # iter = 27500  time[fs]=27.50000
   C -0.121729051E+01 -0.669283234E-01 -0.750333906E-01
   C  0.125447498E+01  0.398738968E-01  0.194762572E-01
   H -0.693549094E+01  0.876418379E+00  0.581981003E+00
   H  0.692374828E+01 -0.895403335E+00  0.290027543E+00
     4
 # iter = 28000  time[fs]=28.00000
   C -0.127446197E+01 -0.716301007E-01 -0.791622863E-01
   C  0.131046941E+01  0.431076642E-01  0.195277878E-01
   H -0.728450574E+01  0.921269099E+00  0.611280385E+00
   H  0.726299280E+01 -0.942619363E+00  0.302767939E+00
     4
 # iter = 28500  time[fs]=28.50000
   C -0.133356862E+01 -0.764387455E-01 -0.833896169E-01
   C  0.136838521E+01  0.464509512E-01  0.196418173E-01
   H -0.763659587E+01  0.966556865E+00  0.640870545E+00
   H  0.760547855E+01 -0.990304264E+00  0.315648789E+00
     4
 # iter = 29000  time[fs]=29.00000
   C -0.139444693E+01 -0.813470942E-01 -0.877068159E-01
   C  0.142805976E+01  0.498964827E-01  0.198130275E-01
   H -0.799148370E+01  0.101224264E+01  0.670725351E+00
   H  0.795091696E+01 -0.103841766E+01  0.328657245E+00
     4
 # iter = 29500  time[fs]=29.50000
   C -0.145694898E+01 -0.863484684E-01 -0.921062308E-01
   C  0.148934598E+01  0.534374662E-01  0.200366044E-01
   H -0.834892612E+01  0.105829228E+01  0.700821968E+00
   H  0.829905478E+01 -0.108692404E+01  0.341782080E+00
     4
 # iter = 30000  time[fs]=30.00000
   C -0.152094119E+01 -0.914366634E-01 -0.965810196E-01
   C  0.155211107E+01  0.570675848E-01  0.203081993E-01
   H -0.870870921E+01  0.110467573E+01  0.731140336E+00
   H  0.864966871E+01 -0.113579200E+01  0.355013435E+00
     4
 # iter = 30500  time[fs]=30.50000
   C -0.158630303E+01 -0.966059313E-01 -0.101125057E+00
   C  0.161623523E+01  0.607809805E-01  0.206238880E-01
   H -0.907064389E+01  0.115136646E+01  0.761662742E+00
   H  0.900256099E+01 -0.118499368E+01  0.368342614E+00
     4
 # iter = 31000  time[fs]=31.00000
   C -0.165292575E+01 -0.101850957E+00 -0.105732854E+00
   C  0.168161036E+01  0.645722323E-01  0.209801317E-01
   H -0.943456234E+01  0.119834089E+01  0.792373474E+00
   H  0.935755581E+01 -0.123450426E+01  0.381761908E+00
     4
 # iter = 31500  time[fs]=31.50000
   C -0.172071122E+01 -0.107166834E+00 -0.110399478E+00
   C  0.174813897E+01  0.684363318E-01  0.213737377E-01
   H -0.980031500E+01  0.124557802E+01  0.823258535E+00
   H  0.971449626E+01 -0.128430149E+01  0.395264458E+00
     4
 # iter = 32000  time[fs]=32.00000
   C -0.178957084E+01 -0.112549035E+00 -0.115120494E+00
   C  0.181573301E+01  0.723686556E-01  0.218018249E-01
   H -0.101677681E+02  0.129305905E+01  0.854305407E+00
   H  0.100732418E+02 -0.133436542E+01  0.408844137E+00
     4
 # iter = 32500  time[fs]=32.50000
   C -0.185942452E+01 -0.117993386E+00 -0.119891906E+00
   C  0.188431291E+01  0.763649381E-01  0.222617904E-01
   H -0.105368015E+02  0.134076709E+01  0.885502848E+00
   H  0.104336660E+02 -0.138467806E+01  0.422495450E+00
     4
 # iter = 33000  time[fs]=33.00000
   C -0.193019977E+01 -0.123496039E+00 -0.124710104E+00
   C  0.195380666E+01  0.804212444E-01  0.227512804E-01
   H -0.109073071E+02  0.138868691E+01  0.916840733E+00
   H  0.107956550E+02 -0.143522314E+01  0.436213454E+00
     4
 # iter = 33500  time[fs]=33.50000
   C -0.200183090E+01 -0.129053446E+00 -0.129571821E+00
   C  0.202414902E+01  0.845339443E-01  0.232681633E-01
   H -0.112791871E+02  0.143680474E+01  0.948309905E+00
   H  0.111591057E+02 -0.148598592E+01  0.449993688E+00
     4
 # iter = 34000  time[fs]=34.00000
   C -0.207425831E+01 -0.134662333E+00 -0.134474096E+00
   C  0.209528078E+01  0.886996871E-01  0.238105060E-01
   H -0.116523529E+02  0.148510809E+01  0.979902064E+00
   H  0.115239247E+02 -0.153695298E+01  0.463832111E+00
     4
 # iter = 34500  time[fs]=34.50000
   C -0.214742779E+01 -0.140319677E+00 -0.139414238E+00
   C  0.216714813E+01  0.929153788E-01  0.243765529E-01
   H -0.120267242E+02  0.153358561E+01  0.101160966E+01
   H  0.118900268E+02 -0.158811208E+01  0.477725055E+00
     4
 # iter = 35000  time[fs]=35.00000
   C -0.222129000E+01 -0.146022690E+00 -0.144389798E+00
   C  0.223970209E+01  0.971781601E-01  0.249647065E-01
   H -0.124022274E+02  0.158222692E+01  0.104342581E+01
   H  0.122573346E+02 -0.163945205E+01  0.491669180E+00
     4
 # iter = 35500  time[fs]=35.50000
   C -0.229579995E+01 -0.151768789E+00 -0.149398541E+00
   C  0.231289796E+01  0.101485386E+00  0.255735114E-01
   H -0.127787956E+02  0.163102255E+01  0.107534421E+01
   H  0.126257772E+02 -0.169096262E+01  0.505661435E+00
     4
 # iter = 36000  time[fs]=36.00000
   C -0.237091652E+01 -0.157555588E+00 -0.154438425E+00
   C  0.238669495E+01  0.105834609E+00  0.262016386E-01
   H -0.131563674E+02  0.167996379E+01  0.110735909E+01
   H  0.129952894E+02 -0.174263438E+01  0.519699031E+00
     4
 # iter = 36500  time[fs]=36.50000
   C -0.244660208E+01 -0.163380875E+00 -0.159507581E+00
   C  0.246105569E+01  0.110223560E+00  0.268478734E-01
   H -0.135348865E+02  0.172904267E+01  0.113946516E+01
   H  0.133658117E+02 -0.179445866E+01  0.533779406E+00
     4
 # iter = 37000  time[fs]=37.00000
   C -0.252282214E+01 -0.169242599E+00 -0.164604291E+00
   C  0.253594597E+01  0.114650135E+00  0.275111028E-01
   H -0.139143011E+02  0.177825183E+01  0.117165753E+01
   H  0.137372891E+02 -0.184642745E+01  0.547900206E+00
     4
 # iter = 37500  time[fs]=37.50000
   C -0.259954503E+01 -0.175138856E+00 -0.169726979E+00
   C  0.261133435E+01  0.119112379E+00  0.281903060E-01
   H -0.142945633E+02  0.182758447E+01  0.120393169E+01
   H  0.141096708E+02 -0.189853336E+01  0.562059263E+00
     4
 # iter = 38000  time[fs]=38.00000
   C -0.267674162E+01 -0.181067878E+00 -0.174874193E+00
   C  0.268719193E+01  0.123608476E+00  0.288845447E-01
   H -0.146756291E+02  0.187703431E+01  0.123628347E+01
   H  0.144829101E+02 -0.195076954E+01  0.576254575E+00
     4
 # iter = 38500  time[fs]=38.50000
   C -0.275438507E+01 -0.187028017E+00 -0.180044593E+00
   C  0.276349208E+01  0.128136735E+00  0.295929551E-01
   H -0.150574576E+02  0.192659554E+01  0.126870903E+01
   H  0.148569635E+02 -0.200312963E+01  0.590484288E+00
     4
 # iter = 39000  time[fs]=39.00000
   C -0.283245061E+01 -0.193017742E+00 -0.185236941E+00
   C  0.284021024E+01  0.132695580E+00  0.303147410E-01
   H -0.154400109E+02  0.197626275E+01  0.130120477E+01
   H  0.152317909E+02 -0.205560771E+01  0.604746686E+00
     4
 # iter = 39500  time[fs]=39.50000
   C -0.291091535E+01 -0.199035623E+00 -0.190450091E+00
   C  0.291732369E+01  0.137283542E+00  0.310491671E-01
   H -0.158232539E+02  0.202603093E+01  0.133376737E+01
   H  0.156073548E+02 -0.210819829E+01  0.619040176E+00
     4
 # iter = 40000  time[fs]=40.00000
   C -0.298975812E+01 -0.205080325E+00 -0.195682982E+00
   C  0.299481144E+01  0.141899249E+00  0.317955532E-01
   H -0.162071539E+02  0.207589539E+01  0.136639372E+01
   H  0.159836205E+02 -0.216089623E+01  0.633363275E+00
     4
 # iter = 40500  time[fs]=40.50000
   C -0.306895927E+01 -0.211150602E+00 -0.200934627E+00
   C  0.307265400E+01  0.146541417E+00  0.325532694E-01
   H -0.165916803E+02  0.212585177E+01  0.139908093E+01
   H  0.163605554E+02 -0.221369674E+01  0.647714603E+00
     4
 # iter = 41000  time[fs]=41.00000
   C -0.314850058E+01 -0.217245285E+00 -0.206204109E+00
   C  0.315083330E+01  0.151208846E+00  0.333217315E-01
   H -0.169768048E+02  0.217589600E+01  0.143182630E+01
   H  0.167381294E+02 -0.226659534E+01  0.662092874E+00
     4
 # iter = 41500  time[fs]=41.50000
   C -0.322836509E+01 -0.223363283E+00 -0.211490575E+00
   C  0.322933252E+01  0.155900411E+00  0.341003965E-01
   H -0.173625006E+02  0.222602425E+01  0.146462731E+01
   H  0.171163141E+02 -0.231958782E+01  0.676496882E+00
     4
 # iter = 42000  time[fs]=42.00000
   C -0.330853702E+01 -0.229503571E+00 -0.216793229E+00
   C  0.330813604E+01  0.160615057E+00  0.348887594E-01
   H -0.177487431E+02  0.227623296E+01  0.149748157E+01
   H  0.174950830E+02 -0.237267025E+01  0.690925503E+00
     4
 # iter = 42500  time[fs]=42.50000
   C -0.338900167E+01 -0.235665186E+00 -0.222111327E+00
   C  0.338722926E+01  0.165351793E+00  0.356863501E-01
   H -0.181355088E+02  0.232651877E+01  0.153038687E+01
   H  0.178744113E+02 -0.242583894E+01  0.705377683E+00
     4
 # iter = 43000  time[fs]=43.00000
   C -0.346974531E+01 -0.241847226E+00 -0.227444174E+00
   C  0.346659857E+01  0.170109688E+00  0.364927297E-01
   H -0.185227758E+02  0.237687853E+01  0.156334113E+01
   H  0.182542756E+02 -0.247909039E+01  0.719852432E+00
     4
 # iter = 43500  time[fs]=43.50000
   C -0.355075511E+01 -0.248048839E+00 -0.232791119E+00
   C  0.354623127E+01  0.174887866E+00  0.373074885E-01
   H -0.189105236E+02  0.242730928E+01  0.159634237E+01
   H  0.186346541E+02 -0.253242135E+01  0.734348820E+00
     4
 # iter = 44000  time[fs]=44.00000
   C -0.363201906E+01 -0.254269227E+00 -0.238151552E+00
   C  0.362611545E+01  0.179685503E+00  0.381302434E-01
   H -0.192987329E+02  0.247780823E+01  0.162938875E+01
   H  0.190155261E+02 -0.258582871E+01  0.748865974E+00
     4
 # iter = 44500  time[fs]=44.50000
   C -0.371352592E+01 -0.260507633E+00 -0.243524902E+00
   C  0.370623996E+01  0.184501820E+00  0.389606358E-01
   H -0.196873854E+02  0.252837274E+01  0.166247853E+01
   H  0.193968721E+02 -0.263930958E+01  0.763403072E+00
     4
 # iter = 45000  time[fs]=45.00000
   C -0.379526513E+01 -0.266763348E+00 -0.248910629E+00
   C  0.378659435E+01  0.189336083E+00  0.397983293E-01
   H -0.200764640E+02  0.257900035E+01  0.169561007E+01
   H  0.197786740E+02 -0.269286120E+01  0.777959337E+00
     4
 # iter = 45500  time[fs]=45.50000
   C -0.387722678E+01 -0.273035699E+00 -0.254308228E+00
   C  0.386716880E+01  0.194187601E+00  0.406430087E-01
   H -0.204659524E+02  0.262968869E+01  0.172878180E+01
   H  0.201609142E+02 -0.274648096E+01  0.792534038E+00
     4
 # iter = 46000  time[fs]=46.00000
   C -0.395940157E+01 -0.279324051E+00 -0.259717223E+00
   C  0.394795409E+01  0.199055717E+00  0.414943774E-01
   H -0.208558354E+02  0.268043555E+01  0.176199227E+01
   H  0.205435767E+02 -0.280016642E+01  0.807126483E+00
     4
 # iter = 46500  time[fs]=46.50000
   C -0.404178073E+01 -0.285627805E+00 -0.265137165E+00
   C  0.402894153E+01  0.203939812E+00  0.423521569E-01
   H -0.212460985E+02  0.273123884E+01  0.179524007E+01
   H  0.209266457E+02 -0.285391523E+01  0.821736019E+00
     4
 # iter = 47000  time[fs]=47.00000
   C -0.412435601E+01 -0.291946391E+00 -0.270567629E+00
   C  0.411012295E+01  0.208839299E+00  0.432160846E-01
   H -0.216367279E+02  0.278209656E+01  0.182852390E+01
   H  0.213101069E+02 -0.290772520E+01  0.836362027E+00
     4
 # iter = 47500  time[fs]=47.50000
   C -0.420711962E+01 -0.298279271E+00 -0.276008216E+00
   C  0.419149064E+01  0.213753621E+00  0.440859135E-01
   H -0.220277107E+02  0.283300683E+01  0.186184250E+01
   H  0.216939461E+02 -0.296159421E+01  0.851003921E+00
     4
 # iter = 48000  time[fs]=48.00000
   C -0.429006421E+01 -0.304625934E+00 -0.281458547E+00
   C  0.427303731E+01  0.218682253E+00  0.449614102E-01
   H -0.224190345E+02  0.288396785E+01  0.189519468E+01
   H  0.220781504E+02 -0.301552027E+01  0.865661145E+00
     4
 # iter = 48500  time[fs]=48.50000
   C -0.437318285E+01 -0.310985895E+00 -0.286918264E+00
   C  0.435475610E+01  0.223624692E+00  0.458423545E-01
   H -0.228106876E+02  0.293497792E+01  0.192857932E+01
   H  0.224627071E+02 -0.306950150E+01  0.880333171E+00
     4
 # iter = 49000  time[fs]=49.00000
   C -0.445646897E+01 -0.317358695E+00 -0.292387027E+00
   C  0.443664051E+01  0.228580462E+00  0.467285385E-01
   H -0.232026590E+02  0.298603542E+01  0.196199535E+01
   H  0.228476045E+02 -0.312353608E+01  0.895019499E+00
     4
 # iter = 49500  time[fs]=49.50000
   C -0.453991635E+01 -0.323743895E+00 -0.297864516E+00
   C  0.451868438E+01  0.233549113E+00  0.476197650E-01
   H -0.235949380E+02  0.303713882E+01  0.199544174E+01
   H  0.232328312E+02 -0.317762231E+01  0.909719651E+00
     4
 # iter = 50000  time[fs]=50.00000
   C -0.462351912E+01 -0.330141079E+00 -0.303350426E+00
   C  0.460088188E+01  0.238530213E+00  0.485158479E-01
   H -0.239875147E+02  0.308828663E+01  0.202891753E+01
   H  0.236183765E+02 -0.323175854E+01  0.924433175E+00
     4
 # iter = 50500  time[fs]=50.50000
   C -0.470727170E+01 -0.336549851E+00 -0.308844465E+00
   C  0.468322749E+01  0.243523352E+00  0.494166106E-01
   H -0.243803793E+02  0.313947748E+01  0.206242178E+01
   H  0.240042301E+02 -0.328594321E+01  0.939159639E+00
     4
 # iter = 51000  time[fs]=51.00000
   C -0.479116878E+01 -0.342969834E+00 -0.314346359E+00
   C  0.476571597E+01  0.248528141E+00  0.503218854E-01
   H -0.247735229E+02  0.319071001E+01  0.209595362E+01
   H  0.243903823E+02 -0.334017484E+01  0.953898632E+00
     4
 # iter = 51500  time[fs]=51.50000
   C -0.487520534E+01 -0.349400668E+00 -0.319855847E+00
   C  0.484834234E+01  0.253544207E+00  0.512315135E-01
   H -0.251669367E+02  0.324198296E+01  0.212951220E+01
   H  0.247768238E+02 -0.339445201E+01  0.968649761E+00
     4
 # iter = 52000  time[fs]=52.00000
   C -0.495937661E+01 -0.355842010E+00 -0.325372678E+00
   C  0.493110187E+01  0.258571196E+00  0.521453438E-01
   H -0.255606123E+02  0.329329511E+01  0.216309672E+01
   H  0.251635457E+02 -0.344877335E+01  0.983412652E+00
     4
 # iter = 52500  time[fs]=52.50000
   C -0.504367804E+01 -0.362293531E+00 -0.330896615E+00
   C  0.501399007E+01  0.263608767E+00  0.530632330E-01
   H -0.259545419E+02  0.334464530E+01  0.219670640E+01
   H  0.255505395E+02 -0.350313757E+01  0.998186947E+00
     4
 # iter = 53000  time[fs]=53.00000
   C -0.512810530E+01 -0.368754920E+00 -0.336427433E+00
   C  0.509700265E+01  0.268656598E+00  0.539850443E-01
   H -0.263487179E+02  0.339603241E+01  0.223034051E+01
   H  0.259377971E+02 -0.355754341E+01  0.101297230E+01
     4
 # iter = 53500  time[fs]=53.50000
   C -0.521265428E+01 -0.375225877E+00 -0.341964914E+00
   C  0.518013553E+01  0.273714379E+00  0.549106478E-01
   H -0.267431329E+02  0.344745538E+01  0.226399834E+01
   H  0.263253108E+02 -0.361198970E+01  0.102776840E+01
     4
 # iter = 54000  time[fs]=54.00000
   C -0.529732105E+01 -0.381706116E+00 -0.347508853E+00
   C  0.526338483E+01  0.278781814E+00  0.558399197E-01
   H -0.271377802E+02  0.349891320E+01  0.229767923E+01
   H  0.267130730E+02 -0.366647529E+01  0.104257492E+01
     4
 # iter = 54500  time[fs]=54.50000
   C -0.538210186E+01 -0.388195364E+00 -0.353059053E+00
   C  0.534674684E+01  0.283858619E+00  0.567727419E-01
   H -0.275326529E+02  0.355040488E+01  0.233138252E+01
   H  0.271010768E+02 -0.372099909E+01  0.105739156E+01
     4
 # iter = 55000  time[fs]=55.00000
   C -0.546699314E+01 -0.394693358E+00 -0.358615326E+00
   C  0.543021803E+01  0.288944524E+00  0.577090019E-01
   H -0.279277448E+02  0.360192949E+01  0.236510759E+01
   H  0.274893153E+02 -0.377556004E+01  0.107221804E+01
     4
 # iter = 55500  time[fs]=55.50000
   C -0.555199148E+01 -0.401199849E+00 -0.364177492E+00
   C  0.551379501E+01  0.294039268E+00  0.586485920E-01
   H -0.283230498E+02  0.365348612E+01  0.239885385E+01
   H  0.278777819E+02 -0.383015715E+01  0.108705408E+01
     4
 # iter = 56000  time[fs]=56.00000
   C -0.563709361E+01 -0.407714594E+00 -0.369745378E+00
   C  0.559747456E+01  0.299142602E+00  0.595914097E-01
   H -0.287185619E+02  0.370507392E+01  0.243262073E+01
   H  0.282664704E+02 -0.388478944E+01  0.110189942E+01
     4
 # iter = 56500  time[fs]=56.50000
   C -0.572229642E+01 -0.414237364E+00 -0.375318820E+00
   C  0.568125360E+01  0.304254287E+00  0.605373568E-01
   H -0.291142756E+02  0.375669206E+01  0.246640767E+01
   H  0.286553748E+02 -0.393945599E+01  0.111675381E+01
     4
 # iter = 57000  time[fs]=57.00000
   C -0.580759691E+01 -0.420767937E+00 -0.380897660E+00
   C  0.576512916E+01  0.309374094E+00  0.614863393E-01
   H -0.295101855E+02  0.380833975E+01  0.250021416E+01
   H  0.290444893E+02 -0.399415590E+01  0.113161700E+01
     4
 # iter = 57500  time[fs]=57.50000
   C -0.589299224E+01 -0.427306101E+00 -0.386481745E+00
   C  0.584909843E+01  0.314501802E+00  0.624382675E-01
   H -0.299062864E+02  0.386001620E+01  0.253403968E+01
   H  0.294338084E+02 -0.404888832E+01  0.114648877E+01
     4
 # iter = 58000  time[fs]=58.00000
   C -0.597847967E+01 -0.433851651E+00 -0.392070932E+00
   C  0.593315869E+01  0.319637200E+00  0.633930555E-01
   H -0.303025733E+02  0.391172070E+01  0.256788376E+01
   H  0.298233266E+02 -0.410365242E+01  0.116136887E+01
     4
 # iter = 58500  time[fs]=58.50000
   C -0.606405657E+01 -0.440404392E+00 -0.397665080E+00
   C  0.601730735E+01  0.324780084E+00  0.643506207E-01
   H -0.306990414E+02  0.396345253E+01  0.260174591E+01
   H  0.302130390E+02 -0.415844740E+01  0.117625711E+01
     4
 # iter = 59000  time[fs]=59.00000
   C -0.614972043E+01 -0.446964134E+00 -0.403264055E+00
   C  0.610154192E+01  0.329930259E+00  0.653108842E-01
   H -0.310956861E+02  0.401521101E+01  0.263562569E+01
   H  0.306029405E+02 -0.421327250E+01  0.119115327E+01
     4
 # iter = 59500  time[fs]=59.50000
   C -0.623546883E+01 -0.453530697E+00 -0.408867730E+00
   C  0.618586002E+01  0.335087538E+00  0.662737702E-01
   H -0.314925029E+02  0.406699548E+01  0.266952266E+01
   H  0.309930264E+02 -0.426812698E+01  0.120605715E+01
     4
 # iter = 60000  time[fs]=60.00000
   C -0.632129946E+01 -0.460103906E+00 -0.414475979E+00
   C  0.627025935E+01  0.340251737E+00  0.672392062E-01
   H -0.318894876E+02  0.411880531E+01  0.270343641E+01
   H  0.313832922E+02 -0.432301013E+01  0.122096857E+01
     4
 # iter = 60500  time[fs]=60.50000
   C -0.640721009E+01 -0.466683592E+00 -0.420088685E+00
   C  0.635473771E+01  0.345422684E+00  0.682071222E-01
   H -0.322866361E+02  0.417063989E+01  0.273736653E+01
   H  0.317737333E+02 -0.437792127E+01  0.123588733E+01
     4
 # iter = 61000  time[fs]=61.00000
   C -0.649319859E+01 -0.473269595E+00 -0.425705733E+00
   C  0.643929299E+01  0.350600211E+00  0.691774514E-01
   H -0.326839443E+02  0.422249863E+01  0.277131262E+01
   H  0.321643456E+02 -0.443285972E+01  0.125081325E+01
     4
 # iter = 61500  time[fs]=61.50000
   C -0.657926290E+01 -0.479861757E+00 -0.431327013E+00
   C  0.652392316E+01  0.355784155E+00  0.701501292E-01
   H -0.330814086E+02  0.427438096E+01  0.280527432E+01
   H  0.325551249E+02 -0.448782486E+01  0.126574617E+01
     4
 # iter = 62000  time[fs]=62.00000
   C -0.666540104E+01 -0.486459929E+00 -0.436952419E+00
   C  0.660862625E+01  0.360974360E+00  0.711250937E-01
   H -0.334790250E+02  0.432628634E+01  0.283925127E+01
   H  0.329460674E+02 -0.454281606E+01  0.128068592E+01
     4
 # iter = 62500  time[fs]=62.50000
   C -0.675161111E+01 -0.493063965E+00 -0.442581849E+00
   C  0.669340040E+01  0.366170676E+00  0.721022854E-01
   H -0.338767902E+02  0.437821422E+01  0.287324310E+01
   H  0.333371691E+02 -0.459783274E+01  0.129563234E+01
     4
 # iter = 63000  time[fs]=63.00000
   C -0.683789128E+01 -0.499673725E+00 -0.448215203E+00
   C  0.677824378E+01  0.371372958E+00  0.730816469E-01
   H -0.342747006E+02  0.443016411E+01  0.290724949E+01
   H  0.337284264E+02 -0.465287431E+01  0.131058527E+01
     4
 # iter = 63500  time[fs]=63.50000
   C -0.692423978E+01 -0.506289075E+00 -0.453852388E+00
   C  0.686315465E+01  0.376581065E+00  0.740631230E-01
   H -0.346727529E+02  0.448213550E+01  0.294127010E+01
   H  0.341198357E+02 -0.470794021E+01  0.132554456E+01
     4
 # iter = 64000  time[fs]=64.00000
   C -0.701065492E+01 -0.512909884E+00 -0.459493312E+00
   C  0.694813134E+01  0.381794862E+00  0.750466606E-01
   H -0.350709440E+02  0.453412793E+01  0.297530462E+01
   H  0.345113936E+02 -0.476302992E+01  0.134051007E+01
     4
 # iter = 64500  time[fs]=64.50000
   C -0.709713506E+01 -0.519536026E+00 -0.465137887E+00
   C  0.703317221E+01  0.387014218E+00  0.760322085E-01
   H -0.354692706E+02  0.458614092E+01  0.300935274E+01
   H  0.349030968E+02 -0.481814291E+01  0.135548166E+01
     4
 # iter = 65000  time[fs]=65.00000
   C -0.718367862E+01 -0.526167379E+00 -0.470786026E+00
   C  0.711827572E+01  0.392239007E+00  0.770197172E-01
   H -0.358677298E+02  0.463817402E+01  0.304341416E+01
   H  0.352949420E+02 -0.487327867E+01  0.137045920E+01
     4
 # iter = 65500  time[fs]=65.50000
   C -0.727028406E+01 -0.532803826E+00 -0.476437648E+00
   C  0.720344035E+01  0.397469106E+00  0.780091391E-01
   H -0.362663187E+02  0.469022681E+01  0.307748861E+01
   H  0.356869261E+02 -0.492843672E+01  0.138544255E+01
     4
 # iter = 66000  time[fs]=66.00000
   C -0.735694993E+01 -0.539445252E+00 -0.482092673E+00
   C  0.728866465E+01  0.402704397E+00  0.790004283E-01
   H -0.366650345E+02  0.474229887E+01  0.311157580E+01
   H  0.360790461E+02 -0.498361658E+01  0.140043159E+01
     4
 # iter = 66500  time[fs]=66.50000
   C -0.744367480E+01 -0.546091549E+00 -0.487751024E+00
   C  0.737394722E+01  0.407944766E+00  0.799935405E-01
   H -0.370638744E+02  0.479438979E+01  0.314567546E+01
   H  0.364712991E+02 -0.503881780E+01  0.141542619E+01
     4
 # iter = 67000  time[fs]=67.00000
   C -0.753045730E+01 -0.552742608E+00 -0.493412627E+00
   C  0.745928669E+01  0.413190103E+00  0.809884327E-01
   H -0.374628358E+02  0.484649917E+01  0.317978734E+01
   H  0.368636823E+02 -0.509403994E+01  0.143042624E+01
     4
 # iter = 67500  time[fs]=67.50000
   C -0.761729611E+01 -0.559398327E+00 -0.499077409E+00
   C  0.754468176E+01  0.418440299E+00  0.819850636E-01
   H -0.378619162E+02  0.489862664E+01  0.321391117E+01
   H  0.372561929E+02 -0.514928255E+01  0.144543162E+01
     4
 # iter = 68000  time[fs]=68.00000
   C -0.770418994E+01 -0.566058607E+00 -0.504745302E+00
   C  0.763013117E+01  0.423695251E+00  0.829833933E-01
   H -0.382611130E+02  0.495077182E+01  0.324804672E+01
   H  0.376488282E+02 -0.520454524E+01  0.146044222E+01
     4
 # iter = 68500  time[fs]=68.50000
   C -0.779113755E+01 -0.572723350E+00 -0.510416237E+00
   C  0.771563368E+01  0.428954860E+00  0.839833831E-01
   H -0.386604240E+02  0.500293436E+01  0.328219375E+01
   H  0.380415858E+02 -0.525982759E+01  0.147545793E+01
     4
 # iter = 69000  time[fs]=69.00000
   C -0.787813775E+01 -0.579392462E+00 -0.516090150E+00
   C  0.780118812E+01  0.434219026E+00  0.849849957E-01
   H -0.390598466E+02  0.505511391E+01  0.331635203E+01
   H  0.384344631E+02 -0.531512921E+01  0.149047865E+01
     4
 # iter = 69500  time[fs]=69.50000
   C -0.796518938E+01 -0.586065854E+00 -0.521766977E+00
   C  0.788679333E+01  0.439487656E+00  0.859881948E-01
   H -0.394593788E+02  0.510731013E+01  0.335052133E+01
   H  0.388274577E+02 -0.537044972E+01  0.150550428E+01
     4
 # iter = 70000  time[fs]=70.00000
   C -0.805229132E+01 -0.592743436E+00 -0.527446657E+00
   C  0.797244821E+01  0.444760659E+00  0.869929457E-01
   H -0.398590183E+02  0.515952269E+01  0.338470144E+01
   H  0.392205672E+02 -0.542578875E+01  0.152053471E+01
     4
 # iter = 70500  time[fs]=70.50000
   C -0.813944247E+01 -0.599425124E+00 -0.533129130E+00
   C  0.805815169E+01  0.450037945E+00  0.879992143E-01
   H -0.402587629E+02  0.521175127E+01  0.341889215E+01
   H  0.396137894E+02 -0.548114594E+01  0.153556986E+01
     4
 # iter = 71000  time[fs]=71.00000
   C -0.822664179E+01 -0.606110834E+00 -0.538814340E+00
   C  0.814390272E+01  0.455319428E+00  0.890069680E-01
   H -0.406586107E+02  0.526399557E+01  0.345309325E+01
   H  0.400071220E+02 -0.553652094E+01  0.155060963E+01
     4
 # iter = 71500  time[fs]=71.50000
   C -0.831388826E+01 -0.612800486E+00 -0.544502230E+00
   C  0.822970030E+01  0.460605025E+00  0.900161750E-01
   H -0.410585596E+02  0.531625529E+01  0.348730455E+01
   H  0.404005630E+02 -0.559191342E+01  0.156565393E+01
     4
 # iter = 72000  time[fs]=72.00000
   C -0.840118088E+01 -0.619494003E+00 -0.550192747E+00
   C  0.831554344E+01  0.465894654E+00  0.910268044E-01
   H -0.414586076E+02  0.536853012E+01  0.352152585E+01
   H  0.407941102E+02 -0.564732304E+01  0.158070267E+01
     4
 # iter = 72500  time[fs]=72.50000
   C -0.848851871E+01 -0.626191308E+00 -0.555885837E+00
   C  0.840143122E+01  0.471188237E+00  0.920388267E-01
   H -0.418587529E+02  0.542081980E+01  0.355575696E+01
   H  0.411877615E+02 -0.570274948E+01  0.159575577E+01
     4
 # iter = 73000  time[fs]=73.00000
   C -0.857590081E+01 -0.632892327E+00 -0.561581450E+00
   C  0.848736270E+01  0.476485697E+00  0.930522127E-01
   H -0.422589936E+02  0.547312404E+01  0.358999770E+01
   H  0.415815152E+02 -0.575819244E+01  0.161081314E+01
     4
 # iter = 73500  time[fs]=73.50000
   C -0.866332628E+01 -0.639596989E+00 -0.567279536E+00
   C  0.857333699E+01  0.481786960E+00  0.940669346E-01
   H -0.426593280E+02  0.552544258E+01  0.362424790E+01
   H  0.419753691E+02 -0.581365161E+01  0.162587471E+01
     4
 # iter = 74000  time[fs]=74.00000
   C -0.875079425E+01 -0.646305225E+00 -0.572980047E+00
   C  0.865935324E+01  0.487091953E+00  0.950829650E-01
   H -0.430597543E+02  0.557777516E+01  0.365850738E+01
   H  0.423693215E+02 -0.586912669E+01  0.164094040E+01
     4
 # iter = 74500  time[fs]=74.50000
   C -0.883830387E+01 -0.653016968E+00 -0.578682937E+00
   C  0.874541060E+01  0.492400606E+00  0.961002777E-01
   H -0.434602708E+02  0.563012151E+01  0.369277597E+01
   H  0.427633705E+02 -0.592461740E+01  0.165601013E+01
     4
 # iter = 75000  time[fs]=75.00000
   C -0.892585432E+01 -0.659732150E+00 -0.584388160E+00
   C  0.883150826E+01  0.497712851E+00  0.971188470E-01
   H -0.438608758E+02  0.568248140E+01  0.372705351E+01
   H  0.431575144E+02 -0.598012347E+01  0.167108382E+01
     4
 # iter = 75500  time[fs]=75.50000
   C -0.901344479E+01 -0.666450710E+00 -0.590095672E+00
   C  0.891764542E+01  0.503028621E+00  0.981386481E-01
   H -0.442615679E+02  0.573485458E+01  0.376133985E+01
   H  0.435517515E+02 -0.603564461E+01  0.168616142E+01
     4
 # iter = 76000  time[fs]=76.00000
   C -0.910107450E+01 -0.673172583E+00 -0.595805430E+00
   C  0.900382133E+01  0.508347852E+00  0.991596569E-01
   H -0.446623454E+02  0.578724083E+01  0.379563482E+01
   H  0.439460801E+02 -0.609118056E+01  0.170124283E+01
     4
 # iter = 76500  time[fs]=76.50000
   C -0.918874272E+01 -0.679897711E+00 -0.601517392E+00
   C  0.909003524E+01  0.513670480E+00  0.100181850E+00
   H -0.450632067E+02  0.583963990E+01  0.382993827E+01
   H  0.443404985E+02 -0.614673108E+01  0.171632801E+01
     4
 # iter = 77000  time[fs]=77.00000
   C -0.927644869E+01 -0.686626034E+00 -0.607231518E+00
   C  0.917628642E+01  0.518996445E+00  0.101205204E+00
   H -0.454641505E+02  0.589205159E+01  0.386425006E+01
   H  0.447350053E+02 -0.620229589E+01  0.173141688E+01
     4
 # iter = 77500  time[fs]=77.50000
   C -0.936419170E+01 -0.693357494E+00 -0.612947769E+00
   C  0.926257416E+01  0.524325687E+00  0.102229698E+00
   H -0.458651753E+02  0.594447566E+01  0.389857005E+01
   H  0.451295988E+02 -0.625787477E+01  0.174650937E+01
     4
 # iter = 78000  time[fs]=78.00000
   C -0.945197107E+01 -0.700092037E+00 -0.618666106E+00
   C  0.934889778E+01  0.529658148E+00  0.103255309E+00
   H -0.462662797E+02  0.599691192E+01  0.393289810E+01
   H  0.455242776E+02 -0.631346747E+01  0.176160543E+01
     4
 # iter = 78500  time[fs]=78.50000
   C -0.953978612E+01 -0.706829608E+00 -0.624386492E+00
   C  0.943525661E+01  0.534993771E+00  0.104282017E+00
   H -0.466674623E+02  0.604936016E+01  0.396723406E+01
   H  0.459190401E+02 -0.636907376E+01  0.177670499E+01
     4
 # iter = 79000  time[fs]=79.00000
   C -0.962763619E+01 -0.713570154E+00 -0.630108890E+00
   C  0.952165001E+01  0.540332501E+00  0.105309802E+00
   H -0.470687218E+02  0.610182017E+01  0.400157781E+01
   H  0.463138850E+02 -0.642469341E+01  0.179180799E+01
     4
 # iter = 79500  time[fs]=79.50000
   C -0.971552064E+01 -0.720313623E+00 -0.635833264E+00
   C  0.960807735E+01  0.545674284E+00  0.106338643E+00
   H -0.474700568E+02  0.615429176E+01  0.403592922E+01
   H  0.467088109E+02 -0.648032620E+01  0.180691438E+01
     4
 # iter = 80000  time[fs]=80.00000
   C -0.980343885E+01 -0.727059966E+00 -0.641559581E+00
   C  0.969453800E+01  0.551019069E+00  0.107368521E+00
   H -0.478714662E+02  0.620677474E+01  0.407028816E+01
   H  0.471038165E+02 -0.653597192E+01  0.182202410E+01
