     4
 # iter = 25000  time[fs]=25.00000
   C -0.992321993E+00  0.437066125E-02 -0.107689227E-01
   C  0.103473481E+01  0.983565439E-02  0.193851720E-01
   H -0.527427852E+01 -0.590576515E+00 -0.565834553E+00
   H  0.533594409E+01  0.654503464E+00  0.562733213E+00
     4
 # iter = 25500  time[fs]=25.50000
   C -0.103894746E+01  0.660139012E-02 -0.909076753E-02
   C  0.108004909E+01  0.781728940E-02  0.179750239E-01
   H -0.560675444E+01 -0.627703097E+00 -0.602401789E+00
   H  0.565833303E+01  0.695545079E+00  0.596726750E+00
     4
 # iter = 26000  time[fs]=26.00000
   C -0.108848331E+01  0.885475271E-02 -0.742806227E-02
   C  0.112826224E+01  0.576969114E-02  0.165796615E-01
   H -0.594450056E+01 -0.665480153E+00 -0.639583219E+00
   H  0.598613018E+01  0.737316364E+00  0.631342452E+00
     4
 # iter = 26500  time[fs]=26.50000
   C -0.114068463E+01  0.111334055E-01 -0.577478950E-02
   C  0.117912953E+01  0.369065967E-02  0.151930590E-01
   H -0.628692624E+01 -0.703834136E+00 -0.677310464E+00
   H  0.631874294E+01  0.779738292E+00  0.666512039E+00
     4
 # iter = 27000  time[fs]=27.00000
   C -0.119532403E+01  0.134391867E-01 -0.412605465E-02
   C  0.123242388E+01  0.157878700E-02  0.138103276E-01
   H -0.663352978E+01 -0.742702856E+00 -0.715525516E+00
   H  0.665566575E+01  0.822743509E+00  0.702177435E+00
     4
 # iter = 27500  time[fs]=27.50000
   C -0.125219245E+01  0.157732434E-01 -0.247794151E-02
   C  0.128793665E+01 -0.566673678E-03  0.124275653E-01
   H -0.698388221E+01 -0.782033327E+00 -0.754178814E+00
   H  0.699646465E+01  0.866274228E+00  0.738288910E+00
     4
 # iter = 28000  time[fs]=28.00000
   C -0.131109894E+01  0.181361600E-01 -0.827364246E-03
   C  0.134547736E+01 -0.274593678E-02  0.110417057E-01
   H -0.733761444E+01 -0.821780094E+00 -0.793227731E+00
   H  0.734076495E+01  0.910280553E+00  0.774803600E+00
     4
 # iter = 28500  time[fs]=28.50000
   C -0.137187004E+01  0.205280752E-01  0.828071454E-03
   C  0.140487303E+01 -0.495880117E-02  0.965037749E-02
   H -0.769440704E+01 -0.861903898E+00 -0.832635372E+00
   H  0.768824137E+01  0.954719148E+00  0.811684337E+00
     4
 # iter = 29000  time[fs]=29.00000
   C -0.143434865E+01  0.229487848E-01  0.249019242E-02
   C  0.146596706E+01 -0.720475088E-02  0.825177816E-02
   H -0.805398199E+01 -0.902370633E+00 -0.872369624E+00
   H  0.803861001E+01  0.999552165E+00  0.848898715E+00
     4
 # iter = 29500  time[fs]=29.50000
   C -0.149839284E+01  0.253978272E-01  0.416036503E-02
   C  0.152861799E+01 -0.948303895E-02  0.684456647E-02
   H -0.841609611E+01 -0.943150500E+00 -0.912402377E+00
   H  0.839162189E+01  0.104474638E+01  0.886418323E+00
     4
 # iter = 30000  time[fs]=30.00000
   C -0.156387452E+01  0.278745537E-01  0.583958547E-02
   C  0.159269821E+01 -0.117927554E-01  0.542777132E-02
   H -0.878053559E+01 -0.984217328E+00 -0.952708907E+00
   H  0.874705764E+01  0.109027249E+01  0.924218136E+00
     4
 # iter = 30500  time[fs]=30.50000
   C -0.163067818E+01  0.303781842E-01  0.752855462E-02
   C  0.165809265E+01 -0.141328809E-01  0.400071645E-02
   H -0.914711162E+01 -0.102554802E+01 -0.993267362E+00
   H  0.910472310E+01  0.113610452E+01  0.962276005E+00
     4
 # iter = 31000  time[fs]=31.00000
   C -0.169869964E+01  0.329078513E-01  0.922773942E-02
   C  0.172469753E+01 -0.165023290E-01  0.256295881E-02
   H -0.951565675E+01 -0.106712209E+01 -0.103405834E+01
   H  0.946444574E+01  0.118221936E+01  0.100057225E+01
     4
 # iter = 31500  time[fs]=31.50000
   C -0.176784486E+01  0.354626346E-01  0.109374227E-01
   C  0.179241925E+01 -0.188999785E-01  0.111423848E-02
   H -0.988602183E+01 -0.110892130E+01 -0.107506456E+01
   H  0.982607166E+01  0.122859637E+01  0.103908929E+01
     4
 # iter = 32000  time[fs]=32.00000
   C -0.183802895E+01  0.380415862E-01  0.126577436E-01
   C  0.186117325E+01 -0.213246971E-01 -0.345561593E-03
   H -0.102580736E+02 -0.115092936E+01 -0.111627053E+01
   H  0.101894630E+02  0.127521703E+01  0.107781140E+01
     4
 # iter = 32500  time[fs]=32.50000
   C -0.190917511E+01  0.406437510E-01  0.143887294E-01
   C  0.193088311E+01 -0.237753602E-01 -0.181644799E-02
   H -0.106316923E+02 -0.119313164E+01 -0.115766236E+01
   H  0.105544961E+02  0.132206469E+01  0.111672443E+01
     4
 # iter = 33000  time[fs]=33.00000
   C -0.198121384E+01  0.432681805E-01  0.161303220E-01
   C  0.200147966E+01 -0.262508632E-01 -0.329834264E-02
   H -0.110067704E+02 -0.123551496E+01 -0.119922753E+01
   H  0.109210591E+02  0.136912429E+01  0.115581561E+01
     4
 # iter = 33500  time[fs]=33.50000
   C -0.205408212E+01  0.459139436E-01  0.178823978E-01
   C  0.207290017E+01 -0.287501315E-01 -0.479110332E-02
   H -0.113832107E+02 -0.127806743E+01 -0.124095472E+01
   H  0.112890512E+02  0.141638222E+01  0.119507339E+01
     4
 # iter = 34000  time[fs]=34.00000
   C -0.212772272E+01  0.485801343E-01  0.196447846E-01
   C  0.214508771E+01 -0.312721260E-01 -0.629454003E-02
   H -0.117609249E+02 -0.132077826E+01 -0.128283364E+01
   H  0.116583809E+02  0.146382610E+01  0.123448730E+01
     4
 # iter = 34500  time[fs]=34.50000
   C -0.220208359E+01  0.512658760E-01  0.214172742E-01
   C  0.221799050E+01 -0.338158477E-01 -0.780842789E-02
   H -0.121398332E+02 -0.136363765E+01 -0.132485496E+01
   H  0.120289648E+02  0.151144465E+01  0.127404779E+01
     4
 # iter = 35000  time[fs]=35.00000
   C -0.227711731E+01  0.539703258E-01  0.231996328E-01
   C  0.229156137E+01 -0.363803399E-01 -0.933251725E-02
   H -0.125198626E+02 -0.140663666E+01 -0.136701016E+01
   H  0.124007272E+02  0.155922757E+01  0.131374615E+01
     4
 # iter = 35500  time[fs]=35.50000
   C -0.235278059E+01  0.566926753E-01  0.249916088E-01
   C  0.236575726E+01 -0.389646890E-01 -0.108665418E-01
   H -0.129009466E+02 -0.144976714E+01 -0.140929146E+01
   H  0.127735985E+02  0.160716545E+01  0.135357441E+01
     4
 # iter = 36000  time[fs]=36.00000
   C -0.242903389E+01  0.594321523E-01  0.267929396E-01
   C  0.244053885E+01 -0.415680250E-01 -0.124102247E-01
   H -0.132830241E+02 -0.149302161E+01 -0.145169170E+01
   H  0.131475153E+02  0.165524962E+01  0.139352526E+01
     4
 # iter = 36500  time[fs]=36.50000
   C -0.250584095E+01  0.621880205E-01  0.286033558E-01
   C  0.251587009E+01 -0.441895205E-01 -0.139632835E-01
   H -0.136660393E+02 -0.153639319E+01 -0.149420434E+01
   H  0.135224190E+02  0.170347213E+01  0.143359199E+01
     4
 # iter = 37000  time[fs]=37.00000
   C -0.258316855E+01  0.649595791E-01  0.304225859E-01
   C  0.259171795E+01 -0.468283902E-01 -0.155254341E-01
   H -0.140499408E+02 -0.157987556E+01 -0.153682332E+01
   H  0.138982561E+02  0.175182564E+01  0.147376841E+01
     4
 # iter = 37500  time[fs]=37.50000
   C -0.266098614E+01  0.677461622E-01  0.322503585E-01
   C  0.266805206E+01 -0.494838890E-01 -0.170963933E-01
   H -0.144346811E+02 -0.162346290E+01 -0.157954309E+01
   H  0.142749769E+02  0.180030337E+01  0.151404880E+01
     4
 # iter = 38000  time[fs]=38.00000
   C -0.273926562E+01  0.705471373E-01  0.340864048E-01
   C  0.274484449E+01 -0.521553107E-01 -0.186758815E-01
   H -0.148202165E+02 -0.166714982E+01 -0.162235848E+01
   H  0.146525355E+02  0.184889904E+01  0.155442788E+01
     4
 # iter = 38500  time[fs]=38.50000
   C -0.281798108E+01  0.733619044E-01  0.359304606E-01
   C  0.282206949E+01 -0.548419865E-01 -0.202636237E-01
   H -0.152065064E+02 -0.171093133E+01 -0.166526472E+01
   H  0.150308896E+02  0.189760686E+01  0.159490075E+01
     4
 # iter = 39000  time[fs]=39.00000
   C -0.289710858E+01  0.761898943E-01  0.377822671E-01
   C  0.289970327E+01 -0.575432825E-01 -0.218593512E-01
   H -0.155935134E+02 -0.175480280E+01 -0.170825739E+01
   H  0.154099999E+02  0.194642140E+01  0.163546286E+01
     4
 # iter = 39500  time[fs]=39.50000
   C -0.297662600E+01  0.790305676E-01  0.396415720E-01
   C  0.297772385E+01 -0.602585989E-01 -0.234628026E-01
   H -0.159812025E+02 -0.179875993E+01 -0.175133237E+01
   H  0.157898298E+02  0.199533765E+01  0.167610998E+01
     4
 # iter = 40000  time[fs]=40.00000
   C -0.305651285E+01  0.818834126E-01  0.415081304E-01
   C  0.305611087E+01 -0.629873672E-01 -0.250737240E-01
   H -0.163695413E+02 -0.184279872E+01 -0.179448582E+01
   H  0.161703454E+02  0.204435091E+01  0.171683817E+01
     4
 # iter = 40500  time[fs]=40.50000
   C -0.313675011E+01  0.847479444E-01  0.433817048E-01
   C  0.313484544E+01 -0.657290492E-01 -0.266918693E-01
   H -0.167584997E+02 -0.188691543E+01 -0.183771417E+01
   H  0.165515148E+02  0.209345683E+01  0.175764376E+01
     4
 # iter = 41000  time[fs]=41.00000
   C -0.321732014E+01  0.876237032E-01  0.452620654E-01
   C  0.321391002E+01 -0.684831348E-01 -0.283170011E-01
   H -0.171480494E+02 -0.193110659E+01 -0.188101408E+01
   H  0.169333085E+02  0.214265131E+01  0.179852331E+01
     4
 # iter = 41500  time[fs]=41.50000
   C -0.329820649E+01  0.905102529E-01  0.471489905E-01
   C  0.329328829E+01 -0.712491408E-01 -0.299488901E-01
   H -0.175381641E+02 -0.197536892E+01 -0.192438243E+01
   H  0.173156989E+02  0.219193052E+01  0.183947361E+01
     4
 # iter = 42000  time[fs]=42.00000
   C -0.337939388E+01  0.934071799E-01  0.490422665E-01
   C  0.337296507E+01 -0.740266091E-01 -0.315873154E-01
   H -0.179288192E+02 -0.201969939E+01 -0.196781629E+01
   H  0.176986600E+02  0.224129089E+01  0.188049165E+01
     4
 # iter = 42500  time[fs]=42.50000
   C -0.346086803E+01  0.963140917E-01  0.509416874E-01
   C  0.345292617E+01 -0.768151052E-01 -0.332320644E-01
   H -0.183199915E+02 -0.206409513E+01 -0.201131292E+01
   H  0.180821676E+02  0.229072904E+01  0.192157460E+01
     4
 # iter = 43000  time[fs]=43.00000
   C -0.354261562E+01  0.992306156E-01  0.528470552E-01
   C  0.353315837E+01 -0.796142167E-01 -0.348829327E-01
   H -0.187116594E+02 -0.210855345E+01 -0.205486974E+01
   H  0.184661989E+02  0.234024181E+01  0.196271981E+01
     4
 # iter = 43500  time[fs]=43.50000
   C -0.362462417E+01  0.102156398E+00  0.547581794E-01
   C  0.361364928E+01 -0.824235524E-01 -0.365397236E-01
   H -0.191038026E+02 -0.215307182E+01 -0.209848433E+01
   H  0.188507325E+02  0.238982622E+01  0.200392478E+01
     4
 # iter = 44000  time[fs]=44.00000
   C -0.370688203E+01  0.105091102E+00  0.566748770E-01
   C  0.369438733E+01 -0.852427406E-01 -0.382022484E-01
   H -0.194964019E+02 -0.219764787E+01 -0.214215440E+01
   H  0.192357482E+02  0.243947948E+01  0.204518717E+01
     4
 # iter = 44500  time[fs]=44.50000
   C -0.378937826E+01  0.108034410E+00  0.585969723E-01
   C  0.377536165E+01 -0.880714282E-01 -0.398703258E-01
   H -0.198894393E+02 -0.224227936E+01 -0.218587780E+01
   H  0.196212270E+02  0.248919893E+01  0.208650474E+01
     4
 # iter = 45000  time[fs]=45.00000
   C -0.387210259E+01  0.110986016E+00  0.605242962E-01
   C  0.385656207E+01 -0.909092795E-01 -0.415437815E-01
   H -0.202828977E+02 -0.228696417E+01 -0.222965251E+01
   H  0.200071512E+02  0.253898208E+01  0.212787542E+01
     4
 # iter = 45500  time[fs]=45.50000
   C -0.395504537E+01  0.113945632E+00  0.624566867E-01
   C  0.393797899E+01 -0.937559752E-01 -0.432224484E-01
   H -0.206767612E+02 -0.233170030E+01 -0.227347661E+01
   H  0.203935036E+02  0.258882657E+01  0.216929722E+01
     4
 # iter = 46000  time[fs]=46.00000
   C -0.403819756E+01  0.116912982E+00  0.643939880E-01
   C  0.401960344E+01 -0.966112113E-01 -0.449061661E-01
   H -0.210710145E+02 -0.237648587E+01 -0.231734829E+01
   H  0.207802685E+02  0.263873017E+01  0.221076828E+01
     4
 # iter = 46500  time[fs]=46.50000
   C -0.412155059E+01  0.119887805E+00  0.663360507E-01
   C  0.410142693E+01 -0.994746985E-01 -0.465947806E-01
   H -0.214656434E+02 -0.242131910E+01 -0.236126582E+01
   H  0.211674307E+02  0.268869077E+01  0.225228683E+01
     4
 # iter = 47000  time[fs]=47.00000
   C -0.420509643E+01  0.122869850E+00  0.682827311E-01
   C  0.418344147E+01 -0.102346161E+00 -0.482881439E-01
   H -0.218606343E+02 -0.246619828E+01 -0.240522760E+01
   H  0.215549759E+02  0.273870636E+01  0.229385118E+01
     4
 # iter = 47500  time[fs]=47.50000
   C -0.428882750E+01  0.125858880E+00  0.702338916E-01
   C  0.426563954E+01 -0.105225336E+00 -0.499861141E-01
   H -0.222559744E+02 -0.251112182E+01 -0.244923207E+01
   H  0.219428905E+02  0.278877504E+01  0.233545975E+01
     4
 # iter = 48000  time[fs]=48.00000
   C -0.437273661E+01  0.128854667E+00  0.721893998E-01
   C  0.434801403E+01 -0.108111973E+00 -0.516885549E-01
   H -0.226516514E+02 -0.255608819E+01 -0.249327777E+01
   H  0.223311617E+02  0.283889500E+01  0.237711103E+01
     4
 # iter = 48500  time[fs]=48.50000
   C -0.445681701E+01  0.131856995E+00  0.741491284E-01
   C  0.443055821E+01 -0.111005832E+00 -0.533953354E-01
   H -0.230476538E+02 -0.260109595E+01 -0.253736331E+01
   H  0.227197773E+02  0.288906454E+01  0.241880358E+01
     4
 # iter = 49000  time[fs]=49.00000
   C -0.454106227E+01  0.134865656E+00  0.761129554E-01
   C  0.451326573E+01 -0.113906685E+00 -0.551063298E-01
   H -0.234439705E+02 -0.264614372E+01 -0.258148738E+01
   H  0.231087257E+02  0.293928202E+01  0.246053605E+01
     4
 # iter = 49500  time[fs]=49.50000
   C -0.462546633E+01  0.137880453E+00  0.780807634E-01
   C  0.459613057E+01 -0.116814315E+00 -0.568214173E-01
   H -0.238405913E+02 -0.269123019E+01 -0.262564871E+01
   H  0.234979959E+02  0.298954588E+01  0.250230712E+01
     4
 # iter = 50000  time[fs]=50.00000
   C -0.471002344E+01  0.140901196E+00  0.800524397E-01
   C  0.467914701E+01 -0.119728511E+00 -0.585404819E-01
   H -0.242375060E+02 -0.273635412E+01 -0.266984612E+01
   H  0.238875773E+02  0.303985465E+01  0.254411557E+01
     4
 # iter = 50500  time[fs]=50.50000
   C -0.479472816E+01  0.143927704E+00  0.820278758E-01
   C  0.476230967E+01 -0.122649075E+00 -0.602634119E-01
   H -0.246347052E+02 -0.278151432E+01 -0.271407844E+01
   H  0.242774600E+02  0.309020692E+01  0.258596021E+01
     4
 # iter = 51000  time[fs]=51.00000
   C -0.487957529E+01  0.146959805E+00  0.840069675E-01
   C  0.484561338E+01 -0.125575816E+00 -0.619901001E-01
   H -0.250321800E+02 -0.282670967E+01 -0.275834461E+01
   H  0.246676344E+02  0.314060134E+01  0.262783992E+01
     4
 # iter = 51500  time[fs]=51.50000
   C -0.496455993E+01  0.149997332E+00  0.859896145E-01
   C  0.492905329E+01 -0.128508550E+00 -0.637204432E-01
   H -0.254299216E+02 -0.287193907E+01 -0.280264358E+01
   H  0.250580915E+02  0.319103663E+01  0.266975363E+01
     4
 # iter = 52000  time[fs]=52.00000
   C -0.504967739E+01  0.153040128E+00  0.879757202E-01
   C  0.501262476E+01 -0.131447103E+00 -0.654543420E-01
   H -0.258279219E+02 -0.291720150E+01 -0.284697436E+01
   H  0.254488225E+02  0.324151156E+01  0.271170031E+01
     4
 # iter = 52500  time[fs]=52.50000
   C -0.513492324E+01  0.156088038E+00  0.899651919E-01
   C  0.509632337E+01 -0.134391307E+00 -0.671917010E-01
   H -0.262261731E+02 -0.296249598E+01 -0.289133601E+01
   H  0.258398192E+02  0.329202495E+01  0.275367899E+01
     4
 # iter = 53000  time[fs]=53.00000
   C -0.522029323E+01  0.159140919E+00  0.919579402E-01
   C  0.518014492E+01 -0.137341002E+00 -0.689324281E-01
   H -0.266246676E+02 -0.300782155E+01 -0.293572761E+01
   H  0.262310737E+02  0.334257569E+01  0.279568872E+01
     4
 # iter = 53500  time[fs]=53.50000
   C -0.530578333E+01  0.162198630E+00  0.939538790E-01
   C  0.526408541E+01 -0.140296031E+00 -0.706764348E-01
   H -0.270233983E+02 -0.305317733E+01 -0.298014829E+01
   H  0.266225783E+02  0.339316270E+01  0.283772861E+01
     4
 # iter = 54000  time[fs]=54.00000
   C -0.539138969E+01  0.165261035E+00  0.959529253E-01
   C  0.534814103E+01 -0.143256249E+00 -0.724236358E-01
   H -0.274223582E+02 -0.309856244E+01 -0.302459724E+01
   H  0.270143259E+02  0.344378495E+01  0.287979779E+01
     4
 # iter = 54500  time[fs]=54.50000
   C -0.547710864E+01  0.168328008E+00  0.979549993E-01
   C  0.543230813E+01 -0.146221511E+00 -0.741739490E-01
   H -0.278215410E+02 -0.314397606E+01 -0.306907365E+01
   H  0.274063094E+02  0.349444145E+01  0.292189546E+01
     4
 # iter = 55000  time[fs]=55.00000
   C -0.556293668E+01  0.171399422E+00  0.999600239E-01
   C  0.551658326E+01 -0.149191682E+00 -0.759272950E-01
   H -0.282209401E+02 -0.318941739E+01 -0.311357675E+01
   H  0.277985223E+02  0.354513126E+01  0.296402081E+01
     4
 # iter = 55500  time[fs]=55.50000
   C -0.564887046E+01  0.174475160E+00  0.101967925E+00
   C  0.560096307E+01 -0.152166630E+00 -0.776835976E-01
   H -0.286205497E+02 -0.323488568E+01 -0.315810583E+01
   H  0.281909582E+02  0.359585347E+01  0.300617309E+01
     4
 # iter = 56000  time[fs]=56.00000
   C -0.573490678E+01  0.177555107E+00  0.103978631E+00
   C  0.568544441E+01 -0.155146229E+00 -0.794427830E-01
   H -0.290203639E+02 -0.328038020E+01 -0.320266017E+01
   H  0.285836108E+02  0.364660722E+01  0.304835157E+01
     4
 # iter = 56500  time[fs]=56.50000
   C -0.582104258E+01  0.180639153E+00  0.105992072E+00
   C  0.577002424E+01 -0.158130358E+00 -0.812047801E-01
   H -0.294203771E+02 -0.332590024E+01 -0.324723911E+01
   H  0.289764744E+02  0.369739165E+01  0.309055556E+01
     4
 # iter = 57000  time[fs]=57.00000
   C -0.590727493E+01  0.183727191E+00  0.108008182E+00
   C  0.585469965E+01 -0.161118899E+00 -0.829695205E-01
   H -0.298205841E+02 -0.337144513E+01 -0.329184199E+01
   H  0.293695434E+02  0.374820598E+01  0.313278439E+01
     4
 # iter = 57500  time[fs]=57.50000
   C -0.599360102E+01  0.186819119E+00  0.110026897E+00
   C  0.593946786E+01 -0.164111740E+00 -0.847369378E-01
   H -0.302209797E+02 -0.341701422E+01 -0.333646819E+01
   H  0.297628122E+02  0.379904942E+01  0.317503740E+01
     4
 # iter = 58000  time[fs]=58.00000
   C -0.608001817E+01  0.189914840E+00  0.112048155E+00
   C  0.602432622E+01 -0.167108772E+00 -0.865069681E-01
   H -0.306215590E+02 -0.346260690E+01 -0.338111711E+01
   H  0.301562757E+02  0.384992123E+01  0.321731399E+01
     4
 # iter = 58500  time[fs]=58.50000
   C -0.616652379E+01  0.193014258E+00  0.114071894E+00
   C  0.610927216E+01 -0.170109891E+00 -0.882795496E-01
   H -0.310223172E+02 -0.350822256E+01 -0.342578817E+01
   H  0.305499288E+02  0.390082070E+01  0.325961354E+01
     4
 # iter = 59000  time[fs]=59.00000
   C -0.625311543E+01  0.196117283E+00  0.116098058E+00
   C  0.619430324E+01 -0.173114996E+00 -0.900546227E-01
   H -0.314232498E+02 -0.355386062E+01 -0.347048083E+01
   H  0.309437668E+02  0.395174714E+01  0.330193550E+01
     4
 # iter = 59500  time[fs]=59.50000
   C -0.633979070E+01  0.199223825E+00  0.118126590E+00
   C  0.627941710E+01 -0.176123990E+00 -0.918321296E-01
   H -0.318243525E+02 -0.359952054E+01 -0.351519455E+01
   H  0.313377851E+02  0.400269987E+01  0.334427930E+01
     4
 # iter = 60000  time[fs]=60.00000
   C -0.642654733E+01  0.202333800E+00  0.120157436E+00
   C  0.636461150E+01 -0.179136780E+00 -0.936120145E-01
   H -0.322256209E+02 -0.364520177E+01 -0.355992881E+01
   H  0.317319790E+02  0.405367828E+01  0.338664441E+01
     4
 # iter = 60500  time[fs]=60.50000
   C -0.651338314E+01  0.205447127E+00  0.122190543E+00
   C  0.644988425E+01 -0.182153274E+00 -0.953942235E-01
   H -0.326270510E+02 -0.369090380E+01 -0.360468311E+01
   H  0.321263444E+02  0.410468172E+01  0.342903032E+01
     4
 # iter = 61000  time[fs]=61.00000
   C -0.660029601E+01  0.208563725E+00  0.124225860E+00
   C  0.653523329E+01 -0.185173386E+00 -0.971787044E-01
   H -0.330286389E+02 -0.373662614E+01 -0.364945698E+01
   H  0.325208770E+02  0.415570962E+01  0.347143654E+01
     4
 # iter = 61500  time[fs]=61.50000
   C -0.668728392E+01  0.211683519E+00  0.126263340E+00
   C  0.662065659E+01 -0.188197031E+00 -0.989654066E-01
   H -0.334303808E+02 -0.378236830E+01 -0.369424995E+01
   H  0.329155729E+02  0.420676140E+01  0.351386257E+01
     4
 # iter = 62000  time[fs]=62.00000
   C -0.677434494E+01  0.214806435E+00  0.128302933E+00
   C  0.670615225E+01 -0.191224128E+00 -0.100754281E+00
   H -0.338322730E+02 -0.382812982E+01 -0.373906158E+01
   H  0.333104282E+02  0.425783649E+01  0.355630797E+01
     4
 # iter = 62500  time[fs]=62.50000
   C -0.686147719E+01  0.217932401E+00  0.130344593E+00
   C  0.679171839E+01 -0.194254598E+00 -0.102545281E+00
   H -0.342343120E+02 -0.387391025E+01 -0.378389144E+01
   H  0.337054391E+02  0.430893438E+01  0.359877228E+01
     4
 # iter = 63000  time[fs]=63.00000
   C -0.694867886E+01  0.221061347E+00  0.132388277E+00
   C  0.687735324E+01 -0.197288365E+00 -0.104338360E+00
   H -0.346364945E+02 -0.391970917E+01 -0.382873912E+01
   H  0.341006022E+02  0.436005453E+01  0.364125508E+01
     4
 # iter = 63500  time[fs]=63.50000
   C -0.703594822E+01  0.224193209E+00  0.134433941E+00
   C  0.696305508E+01 -0.200325354E+00 -0.106133473E+00
   H -0.350388171E+02 -0.396552614E+01 -0.387360420E+01
   H  0.344959138E+02  0.441119645E+01  0.368375595E+01
     4
 # iter = 64000  time[fs]=64.00000
   C -0.712328359E+01  0.227327920E+00  0.136481543E+00
   C  0.704882224E+01 -0.203365496E+00 -0.107930578E+00
   H -0.354412767E+02 -0.401136078E+01 -0.391848630E+01
   H  0.348913706E+02  0.446235965E+01  0.372627448E+01
     4
 # iter = 64500  time[fs]=64.50000
   C -0.721068337E+01  0.230465418E+00  0.138531042E+00
   C  0.713465313E+01 -0.206408720E+00 -0.109729633E+00
   H -0.358438701E+02 -0.405721269E+01 -0.396338506E+01
   H  0.352869694E+02  0.451354367E+01  0.376881028E+01
     4
 # iter = 65000  time[fs]=65.00000
   C -0.729814599E+01  0.233605644E+00  0.140582400E+00
   C  0.722054621E+01 -0.209454961E+00 -0.111530598E+00
   H -0.362465945E+02 -0.410308149E+01 -0.400830009E+01
   H  0.356827070E+02  0.456474806E+01  0.381136299E+01
     4
 # iter = 65500  time[fs]=65.50000
   C -0.738566996E+01  0.236748537E+00  0.142635577E+00
   C  0.730649998E+01 -0.212504153E+00 -0.113333432E+00
   H -0.366494469E+02 -0.414896682E+01 -0.405323106E+01
   H  0.360785804E+02  0.461597237E+01  0.385393223E+01
     4
 # iter = 66000  time[fs]=66.00000
   C -0.747325382E+01  0.239894042E+00  0.144690536E+00
   C  0.739251302E+01 -0.215556234E+00 -0.115138099E+00
   H -0.370524246E+02 -0.419486832E+01 -0.409817761E+01
   H  0.364745866E+02  0.466721618E+01  0.389651765E+01
     4
 # iter = 66500  time[fs]=66.50000
   C -0.756089617E+01  0.243042103E+00  0.146747242E+00
   C  0.747858393E+01 -0.218611143E+00 -0.116944560E+00
   H -0.374555249E+02 -0.424078566E+01 -0.414313943E+01
   H  0.368707229E+02  0.471847909E+01  0.393911892E+01
     4
 # iter = 67000  time[fs]=67.00000
   C -0.764859566E+01  0.246192668E+00  0.148805660E+00
   C  0.756471138E+01 -0.221668821E+00 -0.118752780E+00
   H -0.378587451E+02 -0.428671849E+01 -0.418811619E+01
   H  0.372669863E+02  0.476976069E+01  0.398173569E+01
     4
 # iter = 67500  time[fs]=67.50000
   C -0.773635099E+01  0.249345684E+00  0.150865756E+00
   C  0.765089407E+01 -0.224729212E+00 -0.120562724E+00
   H -0.382620828E+02 -0.433266650E+01 -0.423310758E+01
   H  0.376633743E+02  0.482106059E+01  0.402436765E+01
     4
 # iter = 68000  time[fs]=68.00000
   C -0.782416088E+01  0.252501101E+00  0.152927497E+00
   C  0.773713075E+01 -0.227792259E+00 -0.122374359E+00
   H -0.386655355E+02 -0.437862938E+01 -0.427811330E+01
   H  0.380598843E+02  0.487237843E+01  0.406701448E+01
     4
 # iter = 68500  time[fs]=68.50000
   C -0.791202413E+01  0.255658871E+00  0.154990850E+00
   C  0.782342021E+01 -0.230857909E+00 -0.124187651E+00
   H -0.390691008E+02 -0.442460682E+01 -0.432313306E+01
   H  0.384565137E+02  0.492371384E+01  0.410967589E+01
     4
 # iter = 69000  time[fs]=69.00000
   C -0.799993954E+01  0.258818946E+00  0.157055785E+00
   C  0.790976128E+01 -0.233926111E+00 -0.126002568E+00
   H -0.394727765E+02 -0.447059854E+01 -0.436816658E+01
   H  0.388532602E+02  0.497506647E+01  0.415235158E+01
     4
 # iter = 69500  time[fs]=69.50000
   C -0.808790597E+01  0.261981281E+00  0.159122272E+00
   C  0.799615283E+01 -0.236996812E+00 -0.127819080E+00
   H -0.398765602E+02 -0.451660423E+01 -0.441321358E+01
   H  0.392501213E+02  0.502643597E+01  0.419504127E+01
     4
 # iter = 70000  time[fs]=70.00000
   C -0.817592232E+01  0.265145831E+00  0.161190281E+00
   C  0.808259376E+01 -0.240069966E+00 -0.129637155E+00
   H -0.402804499E+02 -0.456262364E+01 -0.445827380E+01
   H  0.396470947E+02  0.507782202E+01  0.423774468E+01
     4
 # iter = 70500  time[fs]=70.50000
   C -0.826398751E+01  0.268312553E+00  0.163259783E+00
   C  0.816908300E+01 -0.243145522E+00 -0.131456766E+00
   H -0.406844435E+02 -0.460865650E+01 -0.450334698E+01
   H  0.400441783E+02  0.512922429E+01  0.428046154E+01
     4
 # iter = 71000  time[fs]=71.00000
   C -0.835210051E+01  0.271481404E+00  0.165330751E+00
   C  0.825561953E+01 -0.246223436E+00 -0.133277882E+00
   H -0.410885388E+02 -0.465470253E+01 -0.454843287E+01
   H  0.404413699E+02  0.518064247E+01  0.432319160E+01
     4
 # iter = 71500  time[fs]=71.50000
   C -0.844026030E+01  0.274652345E+00  0.167403157E+00
   C  0.834220236E+01 -0.249303663E+00 -0.135100477E+00
   H -0.414927340E+02 -0.470076150E+01 -0.459353123E+01
   H  0.408386674E+02  0.523207626E+01  0.436593460E+01
     4
 # iter = 72000  time[fs]=72.00000
   C -0.852846591E+01  0.277825336E+00  0.169476976E+00
   C  0.842883051E+01 -0.252386157E+00 -0.136924523E+00
   H -0.418970271E+02 -0.474683314E+01 -0.463864181E+01
   H  0.412360687E+02  0.528352536E+01  0.440869029E+01
     4
 # iter = 72500  time[fs]=72.50000
   C -0.861671640E+01  0.281000337E+00  0.171552181E+00
   C  0.851550305E+01 -0.255470878E+00 -0.138749994E+00
   H -0.423014162E+02 -0.479291724E+01 -0.468376439E+01
   H  0.416335719E+02  0.533498949E+01  0.445145845E+01
     4
 # iter = 73000  time[fs]=73.00000
   C -0.870501085E+01  0.284177311E+00  0.173628748E+00
   C  0.860221908E+01 -0.258557783E+00 -0.140576864E+00
   H -0.427058995E+02 -0.483901354E+01 -0.472889875E+01
   H  0.420311750E+02  0.538646836E+01  0.449423882E+01
     4
 # iter = 73500  time[fs]=73.50000
   C -0.879334836E+01  0.287356223E+00  0.175706653E+00
   C  0.868897770E+01 -0.261646832E+00 -0.142405108E+00
   H -0.431104753E+02 -0.488512184E+01 -0.477404466E+01
   H  0.424288761E+02  0.543796170E+01  0.453703120E+01
     4
 # iter = 74000  time[fs]=74.00000
   C -0.888172808E+01  0.290537036E+00  0.177785871E+00
   C  0.877577807E+01 -0.264737986E+00 -0.144234702E+00
   H -0.435151418E+02 -0.493124190E+01 -0.481920192E+01
   H  0.428266736E+02  0.548946926E+01  0.457983536E+01
     4
 # iter = 74500  time[fs]=74.50000
   C -0.897014916E+01  0.293719716E+00  0.179866380E+00
   C  0.886261935E+01 -0.267831207E+00 -0.146065623E+00
   H -0.439198974E+02 -0.497737351E+01 -0.486437032E+01
   H  0.432245655E+02  0.554099076E+01  0.462265108E+01
     4
 # iter = 75000  time[fs]=75.00000
   C -0.905861080E+01  0.296904229E+00  0.181948157E+00
   C  0.894950074E+01 -0.270926457E+00 -0.147897846E+00
   H -0.443247405E+02 -0.502351647E+01 -0.490954966E+01
   H  0.436225502E+02  0.559252597E+01  0.466547817E+01
     4
 # iter = 75500  time[fs]=75.50000
   C -0.914711219E+01  0.300090543E+00  0.184031181E+00
   C  0.903642145E+01 -0.274023702E+00 -0.149731351E+00
   H -0.447296694E+02 -0.506967058E+01 -0.495473975E+01
   H  0.440206259E+02  0.564407464E+01  0.470831641E+01
     4
 # iter = 76000  time[fs]=76.00000
   C -0.923565258E+01  0.303278625E+00  0.186115429E+00
   C  0.912338073E+01 -0.277122904E+00 -0.151566114E+00
   H -0.451346827E+02 -0.511583563E+01 -0.499994039E+01
   H  0.444187911E+02  0.569563654E+01  0.475116561E+01
     4
 # iter = 76500  time[fs]=76.50000
   C -0.932423121E+01  0.306468446E+00  0.188200882E+00
   C  0.921037784E+01 -0.280224031E+00 -0.153402114E+00
   H -0.455397788E+02 -0.516201144E+01 -0.504515140E+01
   H  0.448170442E+02  0.574721142E+01  0.479402558E+01
     4
 # iter = 77000  time[fs]=77.00000
   C -0.941284736E+01  0.309659973E+00  0.190287519E+00
   C  0.929741205E+01 -0.283327048E+00 -0.155239331E+00
   H -0.459449562E+02 -0.520819781E+01 -0.509037260E+01
   H  0.452153836E+02  0.579879907E+01  0.483689613E+01
     4
 # iter = 77500  time[fs]=77.50000
   C -0.950150032E+01  0.312853179E+00  0.192375320E+00
   C  0.938448267E+01 -0.286431924E+00 -0.157077744E+00
   H -0.463502137E+02 -0.525439457E+01 -0.513560382E+01
   H  0.456138079E+02  0.585039927E+01  0.487977708E+01
     4
 # iter = 78000  time[fs]=78.00000
   C -0.959018941E+01  0.316048034E+00  0.194464265E+00
   C  0.947158903E+01 -0.289538626E+00 -0.158917333E+00
   H -0.467555497E+02 -0.530060154E+01 -0.518084488E+01
   H  0.460123155E+02  0.590201181E+01  0.492266825E+01
     4
 # iter = 78500  time[fs]=78.50000
   C -0.967891397E+01  0.319244510E+00  0.196554337E+00
   C  0.955873045E+01 -0.292647123E+00 -0.160758080E+00
   H -0.471609629E+02 -0.534681855E+01 -0.522609562E+01
   H  0.464109050E+02  0.595363647E+01  0.496556947E+01
     4
 # iter = 79000  time[fs]=79.00000
   C -0.976767333E+01  0.322442581E+00  0.198645516E+00
   C  0.964590629E+01 -0.295757386E+00 -0.162599964E+00
   H -0.475664520E+02 -0.539304542E+01 -0.527135587E+01
   H  0.468095750E+02  0.600527305E+01  0.500848057E+01
     4
 # iter = 79500  time[fs]=79.50000
   C -0.985646688E+01  0.325642218E+00  0.200737785E+00
   C  0.973311594E+01 -0.298869385E+00 -0.164442968E+00
   H -0.479720158E+02 -0.543928200E+01 -0.531662548E+01
   H  0.472083243E+02  0.605692136E+01  0.505140139E+01
     4
 # iter = 80000  time[fs]=80.00000
   C -0.994529398E+01  0.328843397E+00  0.202831126E+00
   C  0.982035878E+01 -0.301983090E+00 -0.166287074E+00
   H -0.483776529E+02 -0.548552812E+01 -0.536190429E+01
   H  0.476071513E+02  0.610858120E+01  0.509433176E+01
