     4
 # iter = 25000  time[fs]=25.00000
   C -0.993375738E+00  0.378244218E-01 -0.506020433E-01
   C  0.105211927E+01 -0.220716581E-01  0.228722550E-01
   H -0.526198593E+01  0.102432806E+00  0.633151531E+00
   H  0.542394393E+01  0.442115170E+00 -0.671956021E+00
     4
 # iter = 25500  time[fs]=25.50000
   C -0.104191843E+01  0.382294070E-01 -0.533664039E-01
   C  0.110089175E+01 -0.240712458E-01  0.262109343E-01
   H -0.559709241E+01  0.107370153E+00  0.676429284E+00
   H  0.574474477E+01  0.470611558E+00 -0.714772116E+00
     4
 # iter = 26000  time[fs]=26.00000
   C -0.109336528E+01  0.387104390E-01 -0.562783050E-01
   C  0.115258482E+01 -0.261929763E-01  0.296948570E-01
   H -0.593768649E+01  0.112385918E+00  0.720468685E+00
   H  0.607083621E+01  0.499582681E+00 -0.758322296E+00
     4
 # iter = 26500  time[fs]=26.50000
   C -0.114746151E+01  0.392603436E-01 -0.593265954E-01
   C  0.120693918E+01 -0.284248444E-01  0.333136715E-01
   H -0.628314759E+01  0.117471134E+00  0.765184017E+00
   H  0.640165164E+01  0.528979530E+00 -0.802530437E+00
     4
 # iter = 27000  time[fs]=27.00000
   C -0.120397267E+01  0.398726281E-01 -0.625009675E-01
   C  0.126371696E+01 -0.307562170E-01  0.370576673E-01
   H -0.663294925E+01  0.122618196E+00  0.810502784E+00
   H  0.673670567E+01  0.558760032E+00 -0.847331207E+00
     4
 # iter = 27500  time[fs]=27.50000
   C -0.126268480E+01  0.405414494E-01 -0.657919164E-01
   C  0.132270161E+01 -0.331776812E-01  0.409177874E-01
   H -0.698664194E+01  0.127820609E+00  0.856363197E+00
   H  0.707558012E+01  0.588887837E+00 -0.892668194E+00
     4
 # iter = 28000  time[fs]=28.00000
   C -0.132340388E+01  0.412615703E-01 -0.691907008E-01
   C  0.138369707E+01 -0.356809023E-01  0.448856265E-01
   H -0.734383932E+01  0.133072797E+00  0.902712222E+00
   H  0.741791269E+01  0.619331357E+00 -0.938492394E+00
     4
 # iter = 28500  time[fs]=28.50000
   C -0.138595463E+01  0.420283074E-01 -0.726892992E-01
   C  0.144652656E+01 -0.382584956E-01  0.489534156E-01
   H -0.770420742E+01  0.138369943E+00  0.949504037E+00
   H  0.776338788E+01  0.650062992E+00 -0.984761015E+00
     4
 # iter = 29000  time[fs]=29.00000
   C -0.145017921E+01  0.428374786E-01 -0.762803648E-01
   C  0.151103103E+01 -0.409039105E-01  0.531139965E-01
   H -0.806745590E+01  0.143707863E+00  0.996698811E+00
   H  0.811172957E+01  0.681058500E+00 -0.103143649E+01
     4
 # iter = 29500  time[fs]=29.50000
   C -0.151593565E+01  0.436853511E-01 -0.799571777E-01
   C  0.157706760E+01 -0.436113271E-01  0.573607899E-01
   H -0.843333104E+01  0.149082909E+00  0.104426173E+01
   H  0.846269498E+01  0.712296489E+00 -0.107848569E+01
     4
 # iter = 30000  time[fs]=30.00000
   C -0.158309636E+01  0.445685921E-01 -0.837135968E-01
   C  0.164450799E+01 -0.463755657E-01  0.616877584E-01
   H -0.880161000E+01  0.154491878E+00  0.109216219E+01
   H  0.881606969E+01  0.743757996E+00 -0.112587927E+01
     4
 # iter = 30500  time[fs]=30.50000
   C -0.165154669E+01  0.454842243E-01 -0.875440128E-01
   C  0.171323701E+01 -0.491920070E-01  0.660893679E-01
   H -0.917209618E+01  0.159931948E+00  0.114037317E+01
   H  0.917166353E+01  0.775426140E+00 -0.117359109E+01
     4
 # iter = 31000  time[fs]=31.00000
   C -0.172118356E+01  0.464295843E-01 -0.914433021E-01
   C  0.178315115E+01 -0.520565225E-01  0.705605482E-01
   H -0.954461534E+01  0.165400623E+00  0.118887071E+01
   H  0.952930717E+01  0.807285837E+00 -0.122159784E+01
     4
 # iter = 31500  time[fs]=31.50000
   C -0.179191419E+01  0.474022865E-01 -0.954067841E-01
   C  0.185415736E+01 -0.549654142E-01  0.750966549E-01
   H -0.991901244E+01  0.170895684E+00  0.123763346E+01
   H  0.988884929E+01  0.839323554E+00 -0.126987861E+01
     4
 # iter = 32000  time[fs]=32.00000
   C -0.186365503E+01  0.484001906E-01 -0.994301800E-01
   C  0.192617183E+01 -0.579153618E-01  0.796934328E-01
   H -0.102951490E+02  0.176415152E+00  0.128664231E+01
   H  0.102501542E+02  0.871527112E+00 -0.131841456E+01
     4
 # iter = 32500  time[fs]=32.50000
   C -0.193633066E+01  0.494213726E-01 -0.103509576E+00
   C  0.199911899E+01 -0.609033771E-01  0.843469813E-01
   H -0.106729008E+02  0.181957256E+00  0.133588012E+01
   H  0.106130996E+02  0.903885513E+00 -0.136718872E+01
     4
 # iter = 33000  time[fs]=33.00000
   C -0.200987297E+01  0.504640999E-01 -0.107641389E+00
   C  0.207293059E+01 -0.639267645E-01  0.890537223E-01
   H -0.110521563E+02  0.187520404E+00  0.138533145E+01
   H  0.109775755E+02  0.936388791E+00 -0.141618570E+01
     4
 # iter = 33500  time[fs]=33.50000
   C -0.208422029E+01  0.515268091E-01 -0.111822334E+00
   C  0.214754489E+01 -0.669830867E-01  0.938103707E-01
   H -0.114328145E+02  0.193103160E+00  0.143498233E+01
   H  0.113434818E+02  0.969027897E+00 -0.146539155E+01
     4
 # iter = 34000  time[fs]=34.00000
   C -0.215931671E+01  0.526080864E-01 -0.116049397E+00
   C  0.222290593E+01 -0.700701348E-01  0.986139076E-01
   H -0.118147843E+02  0.198704228E+00  0.148482011E+01
   H  0.117107280E+02  0.100179458E+01 -0.151479352E+01
     4
 # iter = 34500  time[fs]=34.50000
   C -0.223511144E+01  0.537066511E-01 -0.120319810E+00
   C  0.229896289E+01 -0.731859020E-01  0.103461555E+00
   H -0.121979827E+02  0.204322432E+00  0.153483327E+01
   H  0.120792316E+02  0.103468132E+01 -0.156438002E+01
     4
 # iter = 35000  time[fs]=35.00000
   C -0.231155827E+01  0.548213401E-01 -0.124631025E+00
   C  0.237566956E+01 -0.763285617E-01  0.108350755E+00
   H -0.125823344E+02  0.209956701E+00  0.158501132E+01
   H  0.124489171E+02  0.106768120E+01 -0.161414040E+01
     4
 # iter = 35500  time[fs]=35.50000
   C -0.238861506E+01  0.559510955E-01 -0.128980696E+00
   C  0.245298380E+01 -0.794964471E-01  0.113279147E+00
   H -0.129677704E+02  0.215606061E+00  0.163534466E+01
   H  0.128197156E+02  0.110078790E+01 -0.166406492E+01
     4
 # iter = 36000  time[fs]=36.00000
   C -0.246624333E+01  0.570949529E-01 -0.133366659E+00
   C  0.253086715E+01 -0.826880342E-01  0.118244552E+00
   H -0.133542278E+02  0.221269620E+00  0.168582451E+01
   H  0.131915639E+02  0.113399561E+01 -0.171414459E+01
     4
 # iter = 36500  time[fs]=36.50000
   C -0.254440787E+01  0.582520314E-01 -0.137786913E+00
   C  0.260928443E+01 -0.859019267E-01  0.123244954E+00
   H -0.137416488E+02  0.226946562E+00  0.173644278E+01
   H  0.135644039E+02  0.116729894E+01 -0.176437116E+01
     4
 # iter = 37000  time[fs]=37.00000
   C -0.262307641E+01  0.594215250E-01 -0.142239611E+00
   C  0.268820340E+01 -0.891368430E-01  0.128278489E+00
   H -0.141299802E+02  0.232636137E+00  0.178719204E+01
   H  0.139381820E+02  0.120069294E+01 -0.181473698E+01
     4
 # iter = 37500  time[fs]=37.50000
   C -0.270221930E+01  0.606026944E-01 -0.146723038E+00
   C  0.276759446E+01 -0.923916040E-01  0.133343426E+00
   H -0.145191731E+02  0.238337655E+00  0.183806542E+01
   H  0.143128488E+02  0.123417303E+01 -0.186523500E+01
     4
 # iter = 38000  time[fs]=38.00000
   C -0.278180929E+01  0.617948608E-01 -0.151235607E+00
   C  0.284743039E+01 -0.956651231E-01  0.138438159E+00
   H -0.149091824E+02  0.244050479E+00  0.188905659E+01
   H  0.146883586E+02  0.126773494E+01 -0.191585866E+01
     4
 # iter = 38500  time[fs]=38.50000
   C -0.286182124E+01  0.629973994E-01 -0.155775842E+00
   C  0.292768611E+01 -0.989563973E-01  0.143561197E+00
   H -0.152999661E+02  0.249774022E+00  0.194015966E+01
   H  0.150646690E+02  0.130137473E+01 -0.196660187E+01
     4
 # iter = 39000  time[fs]=39.00000
   C -0.294223198E+01  0.642097344E-01 -0.160342371E+00
   C  0.300833848E+01 -0.102264499E+00  0.148711148E+00
   H -0.156914857E+02  0.255507739E+00  0.199136918E+01
   H  0.154417408E+02  0.133508872E+01 -0.201745900E+01
     4
 # iter = 39500  time[fs]=39.50000
   C -0.302302007E+01  0.654313339E-01 -0.164933915E+00
   C  0.308936613E+01 -0.105588569E+00  0.153886720E+00
   H -0.160837051E+02  0.261251126E+00  0.204268010E+01
   H  0.158195375E+02  0.136887348E+01 -0.206842475E+01
     4
 # iter = 40000  time[fs]=40.00000
   C -0.310416567E+01  0.666617061E-01 -0.169549284E+00
   C  0.317074926E+01 -0.108927809E+00  0.159086704E+00
   H -0.164765909E+02  0.267003713E+00  0.209408767E+01
   H  0.161980249E+02  0.140272582E+01 -0.211949422E+01
     4
 # iter = 40500  time[fs]=40.50000
   C -0.318565038E+01  0.679003954E-01 -0.174187366E+00
   C  0.325246951E+01 -0.112281480E+00  0.164309970E+00
   H -0.168701121E+02  0.272765066E+00  0.214558752E+01
   H  0.165771714E+02  0.143664274E+01 -0.217066281E+01
     4
 # iter = 41000  time[fs]=41.00000
   C -0.326745710E+01  0.691469792E-01 -0.178847120E+00
   C  0.333450986E+01 -0.115648890E+00  0.169555465E+00
   H -0.172642396E+02  0.278534776E+00  0.219717552E+01
   H  0.169569473E+02  0.147062145E+01 -0.222192622E+01
     4
 # iter = 41500  time[fs]=41.50000
   C -0.334956995E+01  0.704010645E-01 -0.183527573E+00
   C  0.341685445E+01 -0.119029397E+00  0.174822198E+00
   H -0.176589463E+02  0.284312465E+00  0.224884784E+01
   H  0.173373250E+02  0.150465933E+01 -0.227328041E+01
     4
 # iter = 42000  time[fs]=42.00000
   C -0.343197413E+01  0.716622860E-01 -0.188227815E+00
   C  0.349948854E+01 -0.122422401E+00  0.180109244E+00
   H -0.180542068E+02  0.290097778E+00  0.230060086E+01
   H  0.177182784E+02  0.153875391E+01 -0.232472161E+01
     4
 # iter = 42500  time[fs]=42.50000
   C -0.351465583E+01  0.729303030E-01 -0.192946990E+00
   C  0.358239837E+01 -0.125827341E+00  0.185415733E+00
   H -0.184499973E+02  0.295890383E+00  0.235243122E+01
   H  0.180997833E+02  0.157290289E+01 -0.237624625E+01
     4
 # iter = 43000  time[fs]=43.00000
   C -0.359760217E+01  0.742047977E-01 -0.197684295E+00
   C  0.366557110E+01 -0.129243692E+00  0.190740847E+00
   H -0.188462956E+02  0.301689969E+00  0.240433573E+01
   H  0.184818167E+02  0.160710408E+01 -0.242785099E+01
     4
 # iter = 43500  time[fs]=43.50000
   C -0.368080109E+01  0.754854732E-01 -0.202438975E+00
   C  0.374899472E+01 -0.132670961E+00  0.196083818E+00
   H -0.192430806E+02  0.307496244E+00  0.245631143E+01
   H  0.188643572E+02  0.164135544E+01 -0.247953270E+01
     4
 # iter = 44000  time[fs]=44.00000
   C -0.376424131E+01  0.767720516E-01 -0.207210319E+00
   C  0.383265801E+01 -0.136108688E+00  0.201443921E+00
   H -0.196403328E+02  0.313308933E+00  0.250835549E+01
   H  0.192473845E+02  0.167565503E+01 -0.253128838E+01
     4
 # iter = 44500  time[fs]=44.50000
   C -0.384791227E+01  0.780642728E-01 -0.211997660E+00
   C  0.391655043E+01 -0.139556437E+00  0.206820476E+00
   H -0.200380336E+02  0.319127778E+00  0.256046527E+01
   H  0.196308796E+02  0.171000103E+01 -0.258311526E+01
     4
 # iter = 45000  time[fs]=45.00000
   C -0.393180403E+01  0.793618927E-01 -0.216800365E+00
   C  0.400066211E+01 -0.143013802E+00  0.212212838E+00
   H -0.204361656E+02  0.324952537E+00  0.261263827E+01
   H  0.200148245E+02  0.174439172E+01 -0.263501066E+01
     4
 # iter = 45500  time[fs]=45.50000
   C -0.401590729E+01  0.806646823E-01 -0.221617839E+00
   C  0.408498376E+01 -0.146480398E+00  0.217620399E+00
   H -0.208347121E+02  0.330782979E+00  0.266487214E+01
   H  0.203992022E+02  0.177882546E+01 -0.268697210E+01
     4
 # iter = 46000  time[fs]=46.00000
   C -0.410021327E+01  0.819724260E-01 -0.226449519E+00
   C  0.416950666E+01 -0.149955863E+00  0.223042586E+00
   H -0.212336578E+02  0.336618889E+00  0.271716464E+01
   H  0.207839967E+02  0.181330071E+01 -0.273899719E+01
     4
 # iter = 46500  time[fs]=46.50000
   C -0.418471373E+01  0.832849214E-01 -0.231294873E+00
   C  0.425422260E+01 -0.153439856E+00  0.228478854E+00
   H -0.216329878E+02  0.342460063E+00  0.276951366E+01
   H  0.211691928E+02  0.184781601E+01 -0.279108370E+01
     4
 # iter = 47000  time[fs]=47.00000
   C -0.426940089E+01  0.846019774E-01 -0.236153398E+00
   C  0.433912385E+01 -0.156932053E+00  0.233928689E+00
   H -0.220326882E+02  0.348306306E+00  0.282191720E+01
   H  0.215547760E+02  0.188236996E+01 -0.284322948E+01
     4
 # iter = 47500  time[fs]=47.50000
   C -0.435426740E+01  0.859234141E-01 -0.241024616E+00
   C  0.442420309E+01 -0.160432150E+00  0.239391604E+00
   H -0.224327458E+02  0.354157436E+00  0.287437336E+01
   H  0.219407328E+02  0.191696126E+01 -0.289543252E+01
     4
 # iter = 48000  time[fs]=48.00000
   C -0.443930636E+01  0.872490616E-01 -0.245908075E+00
   C  0.450945345E+01 -0.163939857E+00  0.244867135E+00
   H -0.228331481E+02  0.360013279E+00  0.292688035E+01
   H  0.223270502E+02  0.195158864E+01 -0.294769089E+01
     4
 # iter = 48500  time[fs]=48.50000
   C -0.452451121E+01  0.885787593E-01 -0.250803346E+00
   C  0.459486841E+01 -0.167454902E+00  0.250354844E+00
   H -0.232338833E+02  0.365873670E+00  0.297943644E+01
   H  0.227137159E+02  0.198625092E+01 -0.300000276E+01
     4
 # iter = 49000  time[fs]=49.00000
   C -0.460987575E+01  0.899123555E-01 -0.255710020E+00
   C  0.468044181E+01 -0.170977025E+00  0.255854313E+00
   H -0.236349401E+02  0.371738455E+00  0.303204002E+01
   H  0.231007182E+02  0.202094695E+01 -0.305236640E+01
     4
 # iter = 49500  time[fs]=49.50000
   C -0.469539412E+01  0.912497064E-01 -0.260627711E+00
   C  0.476616782E+01 -0.174505979E+00  0.261365146E+00
   H -0.240363076E+02  0.377607483E+00  0.308468953E+01
   H  0.234880461E+02  0.205567567E+01 -0.310478014E+01
     4
 # iter = 50000  time[fs]=50.00000
   C -0.478106077E+01  0.925906759E-01 -0.265556049E+00
   C  0.485204090E+01 -0.178041532E+00  0.266886965E+00
   H -0.244379758E+02  0.383480615E+00  0.313738351E+01
   H  0.238756889E+02  0.209043604E+01 -0.315724240E+01
     4
 # iter = 50500  time[fs]=50.50000
   C -0.486687042E+01  0.939351350E-01 -0.270494685E+00
   C  0.493805583E+01 -0.181583460E+00  0.272419411E+00
   H -0.248399349E+02  0.389357715E+00  0.319012055E+01
   H  0.242636366E+02  0.212522709E+01 -0.320975168E+01
     4
 # iter = 51000  time[fs]=51.00000
   C -0.495281807E+01  0.952829611E-01 -0.275443283E+00
   C  0.502420762E+01 -0.185131554E+00  0.277962142E+00
   H -0.252421757E+02  0.395238656E+00  0.324289930E+01
   H  0.246518795E+02  0.216004786E+01 -0.326230654E+01
     4
 # iter = 51500  time[fs]=51.50000
   C -0.503889897E+01  0.966340380E-01 -0.280401525E+00
   C  0.511049156E+01 -0.188685611E+00  0.283514830E+00
   H -0.256446893E+02  0.401123316E+00  0.329571849E+01
   H  0.250404086E+02  0.219489746E+01 -0.331490561E+01
     4
 # iter = 52000  time[fs]=52.00000
   C -0.512510859E+01  0.979882550E-01 -0.285369107E+00
   C  0.519690314E+01 -0.192245440E+00  0.289077164E+00
   H -0.260474673E+02  0.407011579E+00  0.334857690E+01
   H  0.254292149E+02  0.222977505E+01 -0.336754756E+01
     4
 # iter = 52500  time[fs]=52.50000
   C -0.521144264E+01  0.993455070E-01 -0.290345740E+00
   C  0.528343810E+01 -0.195810859E+00  0.294648848E+00
   H -0.264505017E+02  0.412903334E+00  0.340147336E+01
   H  0.258182903E+02  0.226467980E+01 -0.342023114E+01
     4
 # iter = 53000  time[fs]=53.00000
   C -0.529789702E+01  0.100705694E+00 -0.295331146E+00
   C  0.537009236E+01 -0.199381692E+00  0.300229595E+00
   H -0.268537848E+02  0.418798474E+00  0.345440676E+01
   H  0.262076267E+02  0.229961093E+01 -0.347295516E+01
     4
 # iter = 53500  time[fs]=53.50000
   C -0.538446783E+01  0.102068720E+00 -0.300325060E+00
   C  0.545686206E+01 -0.202957774E+00  0.305819136E+00
   H -0.272573092E+02  0.424696899E+00  0.350737602E+01
   H  0.265972164E+02  0.233456768E+01 -0.352571845E+01
     4
 # iter = 54000  time[fs]=54.00000
   C -0.547115136E+01  0.103434495E+00 -0.305327230E+00
   C  0.554374348E+01 -0.206538946E+00  0.311417209E+00
   H -0.276610679E+02  0.430598512E+00  0.356038013E+01
   H  0.269870521E+02  0.236954933E+01 -0.357851992E+01
     4
 # iter = 54500  time[fs]=54.50000
   C -0.555794404E+01  0.104802932E+00 -0.310337412E+00
   C  0.563073312E+01 -0.210125056E+00  0.317023566E+00
   H -0.280650541E+02  0.436503219E+00  0.361341810E+01
   H  0.273771268E+02  0.240455521E+01 -0.363135851E+01
     4
 # iter = 55000  time[fs]=55.00000
   C -0.564484250E+01  0.106173947E+00 -0.315355376E+00
   C  0.571782760E+01 -0.213715958E+00  0.322637969E+00
   H -0.284692615E+02  0.442410933E+00  0.366648899E+01
   H  0.277674339E+02  0.243958463E+01 -0.368423320E+01
     4
 # iter = 55500  time[fs]=55.50000
   C -0.573184350E+01  0.107547463E+00 -0.320380898E+00
   C  0.580502371E+01 -0.217311513E+00  0.328260189E+00
   H -0.288736838E+02  0.448321568E+00  0.371959191E+01
   H  0.281579668E+02  0.247463698E+01 -0.373714301E+01
     4
 # iter = 56000  time[fs]=56.00000
   C -0.581894394E+01  0.108923403E+00 -0.325413765E+00
   C  0.589231837E+01 -0.220911589E+00  0.333890007E+00
   H -0.292783151E+02  0.454235043E+00  0.377272598E+01
   H  0.285487193E+02  0.250971164E+01 -0.379008701E+01
     4
 # iter = 56500  time[fs]=56.50000
   C -0.590614086E+01  0.110301695E+00 -0.330453774E+00
   C  0.597970865E+01 -0.224516057E+00  0.339527214E+00
   H -0.296831498E+02  0.460151279E+00  0.382589039E+01
   H  0.289396856E+02  0.254480802E+01 -0.384306431E+01
     4
 # iter = 57000  time[fs]=57.00000
   C -0.599343144E+01  0.111682270E+00 -0.335500728E+00
   C  0.606719172E+01 -0.228124795E+00  0.345171607E+00
   H -0.300881823E+02  0.466070201E+00  0.387908432E+01
   H  0.293308599E+02  0.257992555E+01 -0.389607403E+01
     4
 # iter = 57500  time[fs]=57.50000
   C -0.608081294E+01  0.113065062E+00 -0.340554439E+00
   C  0.615476490E+01 -0.231737685E+00  0.350822993E+00
   H -0.304934074E+02  0.471991738E+00  0.393230701E+01
   H  0.297222368E+02  0.261506371E+01 -0.394911535E+01
     4
 # iter = 58000  time[fs]=58.00000
   C -0.616828278E+01  0.114450007E+00 -0.345614726E+00
   C  0.624242561E+01 -0.235354616E+00  0.356481186E+00
   H -0.308988201E+02  0.477915820E+00  0.398555773E+01
   H  0.301138110E+02  0.265022196E+01 -0.400218746E+01
     4
 # iter = 58500  time[fs]=58.50000
   C -0.625583847E+01  0.115837044E+00 -0.350681415E+00
   C  0.633017136E+01 -0.238975478E+00  0.362146008E+00
   H -0.313044155E+02  0.483842380E+00  0.403883576E+01
   H  0.305055775E+02  0.268539980E+01 -0.405528960E+01
     4
 # iter = 59000  time[fs]=59.00000
   C -0.634347760E+01  0.117226115E+00 -0.355754339E+00
   C  0.641799980E+01 -0.242600167E+00  0.367817285E+00
   H -0.317101889E+02  0.489771355E+00  0.409214043E+01
   H  0.308975313E+02  0.272059675E+01 -0.410842102E+01
     4
 # iter = 59500  time[fs]=59.50000
   C -0.643119790E+01  0.118617165E+00 -0.360833337E+00
   C  0.650590863E+01 -0.246228585E+00  0.373494853E+00
   H -0.321161360E+02  0.495702684E+00  0.414547106E+01
   H  0.312896677E+02  0.275581234E+01 -0.416158101E+01
     4
 # iter = 60000  time[fs]=60.00000
   C -0.651899714E+01  0.120010138E+00 -0.365918255E+00
   C  0.659389567E+01 -0.249860633E+00  0.379178552E+00
   H -0.325222522E+02  0.501636305E+00  0.419882703E+01
   H  0.316819823E+02  0.279104613E+01 -0.421476888E+01
     4
 # iter = 60500  time[fs]=60.50000
   C -0.660687323E+01  0.121404984E+00 -0.371008944E+00
   C  0.668195882E+01 -0.253496221E+00  0.384868229E+00
   H -0.329285335E+02  0.507572164E+00  0.425220773E+01
   H  0.320744707E+02  0.282629767E+01 -0.426798396E+01
     4
 # iter = 61000  time[fs]=61.00000
   C -0.669482411E+01  0.122801653E+00 -0.376105259E+00
   C  0.677009606E+01 -0.257135258E+00  0.390563736E+00
   H -0.333349759E+02  0.513510204E+00  0.430561257E+01
   H  0.324671286E+02  0.286156656E+01 -0.432122561E+01
     4
 # iter = 61500  time[fs]=61.50000
   C -0.678284784E+01  0.124200098E+00 -0.381207063E+00
   C  0.685830546E+01 -0.260777660E+00  0.396264930E+00
   H -0.337415755E+02  0.519450372E+00  0.435904097E+01
   H  0.328599521E+02  0.289685238E+01 -0.437449321E+01
     4
 # iter = 62000  time[fs]=62.00000
   C -0.687094253E+01  0.125600271E+00 -0.386314223E+00
   C  0.694658513E+01 -0.264423342E+00  0.401971675E+00
   H -0.341483285E+02  0.525392618E+00  0.441249239E+01
   H  0.332529372E+02  0.293215474E+01 -0.442778616E+01
     4
 # iter = 62500  time[fs]=62.50000
   C -0.695910636E+01  0.127002130E+00 -0.391426610E+00
   C  0.703493328E+01 -0.268072226E+00  0.407683837E+00
   H -0.345552313E+02  0.531336893E+00  0.446596629E+01
   H  0.336460802E+02  0.296747328E+01 -0.448110389E+01
     4
 # iter = 63000  time[fs]=63.00000
   C -0.704733761E+01  0.128405631E+00 -0.396544099E+00
   C  0.712334818E+01 -0.271724235E+00  0.413401288E+00
   H -0.349622806E+02  0.537283147E+00  0.451946217E+01
   H  0.340393774E+02  0.300280762E+01 -0.453444584E+01
     4
 # iter = 63500  time[fs]=63.50000
   C -0.713563457E+01  0.129810734E+00 -0.401666571E+00
   C  0.721182817E+01 -0.275379295E+00  0.419123906E+00
   H -0.353694728E+02  0.543231336E+00  0.457297953E+01
   H  0.344328252E+02  0.303815741E+01 -0.458781147E+01
     4
 # iter = 64000  time[fs]=64.00000
   C -0.722399564E+01  0.131217400E+00 -0.406793910E+00
   C  0.730037163E+01 -0.279037333E+00  0.424851570E+00
   H -0.357768047E+02  0.549181416E+00  0.462651789E+01
   H  0.348264204E+02  0.307352232E+01 -0.464120025E+01
     4
 # iter = 64500  time[fs]=64.50000
   C -0.731241925E+01  0.132625589E+00 -0.411926004E+00
   C  0.738897702E+01 -0.282698281E+00  0.430584165E+00
   H -0.361842733E+02  0.555133342E+00  0.468007679E+01
   H  0.352201595E+02  0.310890200E+01 -0.469461168E+01
     4
 # iter = 65000  time[fs]=65.00000
   C -0.740090389E+01  0.134035265E+00 -0.417062746E+00
   C  0.747764284E+01 -0.286362072E+00  0.436321581E+00
   H -0.365918755E+02  0.561087075E+00  0.473365577E+01
   H  0.356140394E+02  0.314429615E+01 -0.474804527E+01
     4
 # iter = 65500  time[fs]=65.50000
   C -0.748944811E+01  0.135446393E+00 -0.422204030E+00
   C  0.756636764E+01 -0.290028642E+00  0.442063709E+00
   H -0.369996083E+02  0.567042573E+00  0.478725442E+01
   H  0.360080571E+02  0.317970446E+01 -0.480150055E+01
     4
 # iter = 66000  time[fs]=66.00000
   C -0.757805051E+01  0.136858939E+00 -0.427349757E+00
   C  0.765515004E+01 -0.293697928E+00  0.447810444E+00
   H -0.374074689E+02  0.572999797E+00  0.484087229E+01
   H  0.364022095E+02  0.321512662E+01 -0.485497705E+01
     4
 # iter = 66500  time[fs]=66.50000
   C -0.766670972E+01  0.138272870E+00 -0.432499827E+00
   C  0.774398869E+01 -0.297369870E+00  0.453561687E+00
   H -0.378154545E+02  0.578958711E+00  0.489450900E+01
   H  0.367964938E+02  0.325056234E+01 -0.490847434E+01
     4
 # iter = 67000  time[fs]=67.00000
   C -0.775542444E+01  0.139688153E+00 -0.437654148E+00
   C  0.783288230E+01 -0.301044409E+00  0.459317339E+00
   H -0.382235625E+02  0.584919278E+00  0.494816414E+01
   H  0.371909071E+02  0.328601136E+01 -0.496199199E+01
     4
 # iter = 67500  time[fs]=67.50000
   C -0.784419341E+01  0.141104758E+00 -0.442812626E+00
   C  0.792182960E+01 -0.304721489E+00  0.465077307E+00
   H -0.386317904E+02  0.590881463E+00  0.500183734E+01
   H  0.375854468E+02  0.332147338E+01 -0.501552957E+01
     4
 # iter = 68000  time[fs]=68.00000
   C -0.793301539E+01  0.142522655E+00 -0.447975174E+00
   C  0.801082938E+01 -0.308401056E+00  0.470841497E+00
   H -0.390401355E+02  0.596845232E+00  0.505552822E+01
   H  0.379801103E+02  0.335694815E+01 -0.506908669E+01
     4
 # iter = 68500  time[fs]=68.50000
   C -0.802188921E+01  0.143941815E+00 -0.453141705E+00
   C  0.809988047E+01 -0.312083056E+00  0.476609823E+00
   H -0.394485955E+02  0.602810551E+00  0.510923642E+01
   H  0.383748949E+02  0.339243541E+01 -0.512266294E+01
     4
 # iter = 69000  time[fs]=69.00000
   C -0.811081373E+01  0.145362211E+00 -0.458312137E+00
   C  0.818898173E+01 -0.315767438E+00  0.482382197E+00
   H -0.398571680E+02  0.608777388E+00  0.516296160E+01
   H  0.387697983E+02  0.342793492E+01 -0.517625795E+01
     4
 # iter = 69500  time[fs]=69.50000
   C -0.819978782E+01  0.146783814E+00 -0.463486388E+00
   C  0.827813207E+01 -0.319454153E+00  0.488158537E+00
   H -0.402658508E+02  0.614745713E+00  0.521670342E+01
   H  0.391648180E+02  0.346344643E+01 -0.522987135E+01
     4
 # iter = 70000  time[fs]=70.00000
   C -0.828881042E+01  0.148206600E+00 -0.468664380E+00
   C  0.836733042E+01 -0.323143151E+00  0.493938761E+00
   H -0.406746417E+02  0.620715496E+00  0.527046155E+01
   H  0.395599517E+02  0.349896971E+01 -0.528350278E+01
     4
 # iter = 70500  time[fs]=70.50000
   C -0.837788049E+01  0.149630543E+00 -0.473846038E+00
   C  0.845657576E+01 -0.326834388E+00  0.499722791E+00
   H -0.410835384E+02  0.626686707E+00  0.532423568E+01
   H  0.399551972E+02  0.353450453E+01 -0.533715189E+01
     4
 # iter = 71000  time[fs]=71.00000
   C -0.846699702E+01  0.151055618E+00 -0.479031288E+00
   C  0.854586707E+01 -0.330527816E+00  0.505510551E+00
   H -0.414925390E+02  0.632659318E+00  0.537802549E+01
   H  0.403505523E+02  0.357005066E+01 -0.539081834E+01
     4
 # iter = 71500  time[fs]=71.50000
   C -0.855615904E+01  0.152481801E+00 -0.484220059E+00
   C  0.863520340E+01 -0.334223393E+00  0.511301968E+00
   H -0.419016413E+02  0.638633301E+00  0.543183068E+01
   H  0.407460148E+02  0.360560791E+01 -0.544450181E+01
     4
 # iter = 72000  time[fs]=72.00000
   C -0.864536561E+01  0.153909070E+00 -0.489412280E+00
   C  0.872458381E+01 -0.337921076E+00  0.517096969E+00
   H -0.423108435E+02  0.644608629E+00  0.548565096E+01
   H  0.411415827E+02  0.364117604E+01 -0.549820197E+01
     4
 # iter = 72500  time[fs]=72.50000
   C -0.873461580E+01  0.155337402E+00 -0.494607885E+00
   C  0.881400739E+01 -0.341620822E+00  0.522895485E+00
   H -0.427201436E+02  0.650585278E+00  0.553948605E+01
   H  0.415372540E+02  0.367675488E+01 -0.555191851E+01
     4
 # iter = 73000  time[fs]=73.00000
   C -0.882390872E+01  0.156766776E+00 -0.499806809E+00
   C  0.890347325E+01 -0.345322593E+00  0.528697448E+00
   H -0.431295397E+02  0.656563220E+00  0.559333568E+01
   H  0.419330267E+02  0.371234420E+01 -0.560565112E+01
     4
 # iter = 73500  time[fs]=73.50000
   C -0.891324351E+01  0.158197170E+00 -0.505008987E+00
   C  0.899298055E+01 -0.349026349E+00  0.534502793E+00
   H -0.435390302E+02  0.662542433E+00  0.564719957E+01
   H  0.423288990E+02  0.374794383E+01 -0.565939953E+01
     4
 # iter = 74000  time[fs]=74.00000
   C -0.900261934E+01  0.159628564E+00 -0.510214358E+00
   C  0.908252846E+01 -0.352732051E+00  0.540311455E+00
   H -0.439486131E+02  0.668522892E+00  0.570107746E+01
   H  0.427248690E+02  0.378355358E+01 -0.571316343E+01
     4
 # iter = 74500  time[fs]=74.50000
   C -0.909203540E+01  0.161060939E+00 -0.515422862E+00
   C  0.917211616E+01 -0.356439664E+00  0.546123372E+00
   H -0.443582868E+02  0.674504573E+00  0.575496910E+01
   H  0.431209348E+02  0.381917327E+01 -0.576694256E+01
     4
 # iter = 75000  time[fs]=75.00000
   C -0.918149088E+01  0.162494274E+00 -0.520634440E+00
   C  0.926174287E+01 -0.360149151E+00  0.551938485E+00
   H -0.447680497E+02  0.680487455E+00  0.580887424E+01
   H  0.435170948E+02  0.385480271E+01 -0.582073663E+01
     4
 # iter = 75500  time[fs]=75.50000
   C -0.927098503E+01  0.163928552E+00 -0.525849036E+00
   C  0.935140784E+01 -0.363860478E+00  0.557756734E+00
   H -0.451779002E+02  0.686471516E+00  0.586279265E+01
   H  0.439133473E+02  0.389044173E+01 -0.587454539E+01
     4
 # iter = 76000  time[fs]=76.00000
   C -0.936051710E+01  0.165363754E+00 -0.531066595E+00
   C  0.944111033E+01 -0.367573610E+00  0.563578062E+00
   H -0.455878366E+02  0.692456733E+00  0.591672408E+01
   H  0.443096906E+02  0.392609018E+01 -0.592836858E+01
     4
 # iter = 76500  time[fs]=76.50000
   C -0.945008637E+01  0.166799863E+00 -0.536287062E+00
   C  0.953084962E+01 -0.371288514E+00  0.569402413E+00
   H -0.459978574E+02  0.698443087E+00  0.597066832E+01
   H  0.447061231E+02  0.396174788E+01 -0.598220594E+01
     4
 # iter = 77000  time[fs]=77.00000
   C -0.953969214E+01  0.168236861E+00 -0.541510385E+00
   C  0.962062501E+01 -0.375005159E+00  0.575229734E+00
   H -0.464079612E+02  0.704430557E+00  0.602462513E+01
   H  0.451026432E+02  0.399741467E+01 -0.603605724E+01
     4
 # iter = 77500  time[fs]=77.50000
   C -0.962933371E+01  0.169674733E+00 -0.546736514E+00
   C  0.971043582E+01 -0.378723513E+00  0.581059971E+00
   H -0.468181465E+02  0.710419124E+00  0.607859431E+01
   H  0.454992495E+02  0.403309041E+01 -0.608992223E+01
     4
 # iter = 78000  time[fs]=78.00000
   C -0.971901042E+01  0.171113460E+00 -0.551965399E+00
   C  0.980028140E+01 -0.382443546E+00  0.586893073E+00
   H -0.472284118E+02  0.716408768E+00  0.613257563E+01
   H  0.458959403E+02  0.406877493E+01 -0.614380069E+01
     4
 # iter = 78500  time[fs]=78.50000
   C -0.980872163E+01  0.172553029E+00 -0.557196991E+00
   C  0.989016111E+01 -0.386165228E+00  0.592728990E+00
   H -0.476387559E+02  0.722399470E+00  0.618656891E+01
   H  0.462927143E+02  0.410446810E+01 -0.619769238E+01
     4
 # iter = 79000  time[fs]=79.00000
   C -0.989846671E+01  0.173993423E+00 -0.562431244E+00
   C  0.998007431E+01 -0.389888531E+00  0.598567674E+00
   H -0.480491774E+02  0.728391213E+00  0.624057392E+01
   H  0.466895701E+02  0.414016976E+01 -0.625159709E+01
     4
 # iter = 79500  time[fs]=79.50000
   C -0.998824503E+01  0.175434628E+00 -0.567668111E+00
   C  0.100700204E+02 -0.393613426E+00  0.604409077E+00
   H -0.484596749E+02  0.734383979E+00  0.629459049E+01
   H  0.470865063E+02  0.417587978E+01 -0.630551461E+01
     4
 # iter = 80000  time[fs]=80.00000
   C -0.100780560E+02  0.176876628E+00 -0.572907548E+00
   C  0.101599988E+02 -0.397339885E+00  0.610253153E+00
   H -0.488702472E+02  0.740377750E+00  0.634861842E+01
   H  0.474835215E+02  0.421159802E+01 -0.635944471E+01
