     4
 # iter = 25000  time[fs]=25.00000
   C -0.101183224E+01  0.396803343E-01 -0.517085695E-01
   C  0.995948442E+00 -0.266083629E-01 -0.420638516E-01
   H -0.527159977E+01 -0.356519842E+00  0.498885038E+00
   H  0.530521963E+01  0.522021562E+00  0.391532999E-02
     4
 # iter = 25500  time[fs]=25.50000
   C -0.105857301E+01  0.415539661E-01 -0.543517087E-01
   C  0.103810687E+01 -0.300455148E-01 -0.427983363E-01
   H -0.560551503E+01 -0.382680603E+00  0.532287397E+00
   H  0.562675559E+01  0.553689720E+00  0.484241761E-02
     4
 # iter = 26000  time[fs]=26.00000
   C -0.110814654E+01  0.435413664E-01 -0.570415690E-01
   C  0.108303311E+01 -0.336196383E-01 -0.435351085E-01
   H -0.594450230E+01 -0.409229233E+00  0.566234652E+00
   H  0.595414292E+01  0.586024183E+00  0.581271114E-02
     4
 # iter = 26500  time[fs]=26.50000
   C -0.116031879E+01  0.456353384E-01 -0.597749895E-01
   C  0.113049976E+01 -0.373209089E-01 -0.442717261E-01
   H -0.628799387E+01 -0.436123379E+00  0.600665327E+00
   H  0.628673432E+01  0.618951067E+00  0.682045336E-02
     4
 # iter = 27000  time[fs]=27.00000
   C -0.121487212E+01  0.478289585E-01 -0.625490690E-01
   C  0.118029493E+01 -0.411401860E-01 -0.450063615E-01
   H -0.663550730E+01 -0.463326997E+00  0.635527404E+00
   H  0.662397820E+01  0.652407723E+00  0.786091422E-02
     4
 # iter = 27500  time[fs]=27.50000
   C -0.127160593E+01  0.501156274E-01 -0.653611258E-01
   C  0.123222306E+01 -0.450689844E-01 -0.457376734E-01
   H -0.698662986E+01 -0.490809204E+00  0.670776534E+00
   H  0.696540166E+01  0.686340639E+00  0.893016809E-02
     4
 # iter = 28000  time[fs]=28.00000
   C -0.133033668E+01  0.524891047E-01 -0.682086727E-01
   C  0.128610496E+01 -0.490994481E-01 -0.464647020E-01
   H -0.734100634E+01 -0.518543362E+00  0.706374642E+00
   H  0.731059688E+01  0.720703790E+00  0.100249265E-01
     4
 # iter = 28500  time[fs]=28.50000
   C -0.139089720E+01  0.549435287E-01 -0.710894004E-01
   C  0.134177732E+01 -0.532243219E-01 -0.471867837E-01
   H -0.769832920E+01 -0.546506360E+00  0.742288829E+00
   H  0.765921024E+01  0.755457340E+00  0.111424115E-01
     4
 # iter = 29000  time[fs]=29.00000
   C -0.145313579E+01  0.574734229E-01 -0.740011649E-01
   C  0.139909181E+01 -0.574369195E-01 -0.479034822E-01
   H -0.805833073E+01 -0.574678030E+00  0.778490499E+00
   H  0.801093346E+01  0.790566606E+00  0.122802575E-01
     4
 # iter = 29500  time[fs]=29.50000
   C -0.151691509E+01  0.600736928E-01 -0.769419769E-01
   C  0.145791407E+01 -0.617310902E-01 -0.486145349E-01
   H -0.842077667E+01 -0.603040681E+00  0.814954655E+00
   H  0.836549648E+01  0.826001222E+00  0.134364363E-01
     4
 # iter = 30000  time[fs]=30.00000
   C -0.158211090E+01  0.627396147E-01 -0.799099919E-01
   C  0.151812255E+01 -0.661011825E-01 -0.493198101E-01
   H -0.878546110E+01 -0.631578722E+00  0.851659338E+00
   H  0.872266159E+01  0.861734463E+00  0.146091968E-01
     4
 # iter = 30500  time[fs]=30.50000
   C -0.164861099E+01  0.654668190E-01 -0.829035014E-01
   C  0.157960735E+01 -0.705420086E-01 -0.500192742E-01
   H -0.915220210E+01 -0.660278345E+00  0.888585159E+00
   H  0.908221863E+01  0.897742702E+00  0.157970187E-01
     4
 # iter = 31000  time[fs]=31.00000
   C -0.171631393E+01  0.682512712E-01 -0.859209236E-01
   C  0.164226916E+01 -0.750488081E-01 -0.507129655E-01
   H -0.952083832E+01 -0.689127272E+00  0.925714925E+00
   H  0.944398103E+01  0.934004951E+00  0.169985736E-01
     4
 # iter = 31500  time[fs]=31.50000
   C -0.178512805E+01  0.710892504E-01 -0.889607947E-01
   C  0.170601818E+01 -0.796172136E-01 -0.514009748E-01
   H -0.989122609E+01 -0.718114540E+00  0.963033326E+00
   H  0.980778249E+01  0.970502491E+00  0.182126959E-01
     4
 # iter = 32000  time[fs]=32.00000
   C -0.185497040E+01  0.739773269E-01 -0.920217603E-01
   C  0.177077318E+01 -0.842432175E-01 -0.520834299E-01
   H -0.102632369E+02 -0.747230325E+00  0.100052667E+01
   H  0.101734742E+02  0.100721856E+01  0.194383569E-01
     4
 # iter = 32500  time[fs]=32.50000
   C -0.192576588E+01  0.769123408E-01 -0.951025674E-01
   C  0.183646056E+01 -0.889231409E-01 -0.527604843E-01
   H -0.106367556E+02 -0.776465791E+00  0.103818268E+01
   H  0.105409227E+02  0.104413809E+01  0.206746451E-01
     4
 # iter = 33000  time[fs]=33.00000
   C -0.199744639E+01  0.798913804E-01 -0.982020566E-01
   C  0.190301361E+01 -0.936536045E-01 -0.534323081E-01
   H -0.110116784E+02 -0.805812962E+00  0.107599029E+01
   H  0.109100076E+02  0.108124751E+01  0.219207495E-01
     4
 # iter = 33500  time[fs]=33.50000
   C -0.206995012E+01  0.829117617E-01 -0.101319154E+00
   C  0.197037177E+01 -0.984315017E-01 -0.540990817E-01
   H -0.113879116E+02 -0.835264622E+00  0.111393951E+01
   H  0.112806201E+02  0.111853451E+01  0.231759454E-01
     4
 # iter = 34000  time[fs]=34.00000
   C -0.214322084E+01  0.859710100E-01 -0.104452866E+00
   C  0.203847996E+01 -0.103253974E+00 -0.547609905E-01
   H -0.117653703E+02 -0.864814215E+00  0.115202129E+01
   H  0.116526619E+02  0.115598795E+01  0.244395830E-01
     4
 # iter = 34500  time[fs]=34.50000
   C -0.221720737E+01  0.890668415E-01 -0.107602272E+00
   C  0.210728803E+01 -0.108118390E+00 -0.554182210E-01
   H -0.121439775E+02 -0.894455777E+00  0.119022738E+01
   H  0.120260432E+02  0.119359768E+01  0.257110776E-01
     4
 # iter = 35000  time[fs]=35.00000
   C -0.229186303E+01  0.921971469E-01 -0.110766515E+00
   C  0.217675025E+01 -0.113022321E+00 -0.560709590E-01
   H -0.125236630E+02 -0.924183858E+00  0.122855029E+01
   H  0.124006826E+02  0.123135443E+01  0.269899014E-01
     4
 # iter = 35500  time[fs]=35.50000
   C -0.236714516E+01  0.953599766E-01 -0.113944804E+00
   C  0.224682482E+01 -0.117963528E+00 -0.567193863E-01
   H -0.129043625E+02 -0.953993474E+00  0.126698318E+01
   H  0.127765055E+02  0.126924972E+01  0.282755765E-01
     4
 # iter = 36000  time[fs]=36.00000
   C -0.244301473E+01  0.985535268E-01 -0.117136402E+00
   C  0.231747351E+01 -0.122939939E+00 -0.573636807E-01
   H -0.132860175E+02 -0.983880051E+00  0.130551975E+01
   H  0.131534435E+02  0.130727579E+01  0.295676687E-01
     4
 # iter = 36500  time[fs]=36.50000
   C -0.251943596E+01  0.101776127E+00 -0.120340623E+00
   C  0.238866129E+01 -0.127949639E+00 -0.580040139E-01
   H -0.136685740E+02 -0.101383938E+01  0.134415424E+01
   H  0.135314341E+02  0.134542547E+01  0.308657829E-01
     4
 # iter = 37000  time[fs]=37.00000
   C -0.259637601E+01  0.105026227E+00 -0.123556829E+00
   C  0.246035598E+01 -0.132990852E+00 -0.586405516E-01
   H -0.140519825E+02 -0.104386760E+01  0.138288136E+01
   H  0.139104195E+02  0.138369220E+01  0.321695581E-01
     4
 # iter = 37500  time[fs]=37.50000
   C -0.267380466E+01  0.108302390E+00 -0.126784427E+00
   C  0.253252799E+01 -0.138061933E+00 -0.592734529E-01
   H -0.144361975E+02 -0.107396112E+01  0.142169620E+01
   H  0.142903467E+02  0.142206989E+01  0.334786641E-01
     4
 # iter = 38000  time[fs]=38.00000
   C -0.275169409E+01  0.111603278E+00 -0.130022862E+00
   C  0.260515009E+01 -0.143161352E+00 -0.599028700E-01
   H -0.148211766E+02 -0.110411663E+01  0.146059425E+01
   H  0.146711665E+02  0.146055291E+01  0.347927980E-01
     4
 # iter = 38500  time[fs]=38.50000
   C -0.283001864E+01  0.114927649E+00 -0.133271617E+00
   C  0.267819714E+01 -0.148287686E+00 -0.605289485E-01
   H -0.152068810E+02 -0.113433106E+01  0.149957133E+01
   H  0.150528334E+02  0.149913606E+01  0.361116811E-01
     4
 # iter = 39000  time[fs]=39.00000
   C -0.290875459E+01  0.118274345E+00 -0.136530208E+00
   C  0.275164592E+01 -0.153439613E+00 -0.611518270E-01
   H -0.155932745E+02 -0.116460157E+01  0.153862355E+01
   H  0.154353055E+02  0.153781450E+01  0.374350568E-01
     4
 # iter = 39500  time[fs]=39.50000
   C -0.298787999E+01  0.121642286E+00 -0.139798183E+00
   C  0.282547496E+01 -0.158615898E+00 -0.617716377E-01
   H -0.159803235E+02 -0.119492550E+01  0.157774730E+01
   H  0.158185435E+02  0.157658372E+01  0.387626882E-01
     4
 # iter = 40000  time[fs]=40.00000
   C -0.306737450E+01  0.125030463E+00 -0.143075118E+00
   C  0.289966433E+01 -0.163815389E+00 -0.623885064E-01
   H -0.163679969E+02 -0.122530039E+01  0.161693924E+01
   H  0.162025111E+02  0.161543953E+01  0.400943562E-01
     4
 # iter = 40500  time[fs]=40.50000
   C -0.314721925E+01  0.128437935E+00 -0.146360616E+00
   C  0.297419557E+01 -0.169037010E+00 -0.630025526E-01
   H -0.167562655E+02 -0.125572394E+01  0.165619623E+01
   H  0.165871744E+02  0.165437803E+01  0.414298577E-01
     4
 # iter = 41000  time[fs]=41.00000
   C -0.322739668E+01  0.131863820E+00 -0.149654304E+00
   C  0.304905151E+01 -0.174279755E+00 -0.636138899E-01
   H -0.171451023E+02 -0.128619398E+01  0.169551535E+01
   H  0.169725017E+02  0.169339554E+01  0.427690042E-01
     4
 # iter = 41500  time[fs]=41.50000
   C -0.330789048E+01  0.135307292E+00 -0.152955833E+00
   C  0.312421617E+01 -0.179542680E+00 -0.642226263E-01
   H -0.175344818E+02 -0.131670851E+01  0.173489387E+01
   H  0.173584635E+02  0.173248865E+01  0.441116204E-01
     4
 # iter = 42000  time[fs]=42.00000
   C -0.338868542E+01  0.138767577E+00 -0.156264872E+00
   C  0.319967466E+01 -0.184824900E+00 -0.648288643E-01
   H -0.179243805E+02 -0.134726564E+01  0.177432923E+01
   H  0.177450321E+02  0.177165416E+01  0.454575431E-01
     4
 # iter = 42500  time[fs]=42.50000
   C -0.346976730E+01  0.142243949E+00 -0.159581112E+00
   C  0.327541310E+01 -0.190125588E+00 -0.654327013E-01
   H -0.183147760E+02 -0.137786359E+01  0.181381904E+01
   H  0.181321815E+02  0.181088906E+01  0.468066201E-01
     4
 # iter = 43000  time[fs]=43.00000
   C -0.355112286E+01  0.145735724E+00 -0.162904262E+00
   C  0.335141851E+01 -0.195443962E+00 -0.660342297E-01
   H -0.187056475E+02 -0.140850070E+01  0.185336105E+01
   H  0.185198875E+02  0.185019051E+01  0.481587091E-01
     4
 # iter = 43500  time[fs]=43.50000
   C -0.363273968E+01  0.149242261E+00 -0.166234045E+00
   C  0.342767874E+01 -0.200779290E+00 -0.666335376E-01
   H -0.190969755E+02 -0.143917540E+01  0.189295313E+01
   H  0.189081271E+02  0.188955586E+01  0.495136773E-01
     4
 # iter = 44000  time[fs]=44.00000
   C -0.371460614E+01  0.152762955E+00 -0.169570203E+00
   C  0.350418244E+01 -0.206130880E+00 -0.672307084E-01
   H -0.194887415E+02 -0.146988623E+01  0.193259331E+01
   H  0.192968789E+02  0.192898260E+01  0.508713998E-01
     4
 # iter = 44500  time[fs]=44.50000
   C -0.379671135E+01  0.156297236E+00 -0.172912489E+00
   C  0.358091894E+01 -0.211498083E+00 -0.678258215E-01
   H -0.198809282E+02 -0.150063178E+01  0.197227970E+01
   H  0.196861226E+02  0.196846837E+01  0.522317600E-01
     4
 # iter = 45000  time[fs]=45.00000
   C -0.387904505E+01  0.159844566E+00 -0.176260672E+00
   C  0.365787824E+01 -0.216880284E+00 -0.684189523E-01
   H -0.202735192E+02 -0.153141076E+01  0.201201054E+01
   H  0.200758391E+02  0.200801094E+01  0.535946480E-01
     4
 # iter = 45500  time[fs]=45.50000
   C -0.396159765E+01  0.163404438E+00 -0.179614532E+00
   C  0.373505094E+01 -0.222276903E+00 -0.690101727E-01
   H -0.206664992E+02 -0.156222190E+01  0.205178415E+01
   H  0.204660105E+02  0.204760821E+01  0.549599608E-01
     4
 # iter = 46000  time[fs]=46.00000
   C -0.404436009E+01  0.166976373E+00 -0.182973860E+00
   C  0.381242819E+01 -0.227687393E+00 -0.695995509E-01
   H -0.210598535E+02 -0.159306405E+01  0.209159895E+01
   H  0.208566196E+02  0.208725818E+01  0.563276011E-01
     4
 # iter = 46500  time[fs]=46.50000
   C -0.412732386E+01  0.170559917E+00 -0.186338461E+00
   C  0.389000168E+01 -0.233111235E+00 -0.701871519E-01
   H -0.214535684E+02 -0.162393609E+01  0.213145345E+01
   H  0.212476505E+02  0.212695896E+01  0.576974774E-01
     4
 # iter = 47000  time[fs]=47.00000
   C -0.421048091E+01  0.174154640E+00 -0.189708147E+00
   C  0.396776355E+01 -0.238547939E+00 -0.707730378E-01
   H -0.218476309E+02 -0.165483698E+01  0.217134624E+01
   H  0.216390877E+02  0.216670877E+01  0.590695035E-01
     4
 # iter = 47500  time[fs]=47.50000
   C -0.429382368E+01  0.177760135E+00 -0.193082739E+00
   C  0.404570640E+01 -0.243997039E+00 -0.713572673E-01
   H -0.222420285E+02 -0.168576570E+01  0.221127598E+01
   H  0.220309170E+02  0.220650590E+01  0.604435978E-01
     4
 # iter = 48000  time[fs]=48.00000
   C -0.437734500E+01  0.181376017E+00 -0.196462071E+00
   C  0.412382323E+01 -0.249458095E+00 -0.719398968E-01
   H -0.226367496E+02 -0.171672131E+01  0.225124138E+01
   H  0.224231246E+02  0.224634876E+01  0.618196832E-01
     4
 # iter = 48500  time[fs]=48.50000
   C -0.446103811E+01  0.185001919E+00 -0.199845980E+00
   C  0.420210743E+01 -0.254930687E+00 -0.725209799E-01
   H -0.230317831E+02 -0.174770292E+01  0.229124125E+01
   H  0.228156976E+02  0.228623580E+01  0.631976868E-01
     4
 # iter = 49000  time[fs]=49.00000
   C -0.454489660E+01  0.188637494E+00 -0.203234315E+00
   C  0.428055274E+01 -0.260414419E+00 -0.731005676E-01
   H -0.234271183E+02 -0.177870966E+01  0.233127442E+01
   H  0.232086235E+02  0.232616557E+01  0.645775395E-01
     4
 # iter = 49500  time[fs]=49.50000
   C -0.462891440E+01  0.192282412E+00 -0.206626930E+00
   C  0.435915325E+01 -0.265908911E+00 -0.736787088E-01
   H -0.238227453E+02 -0.180974072E+01  0.237133982E+01
   H  0.236018906E+02  0.236613669E+01  0.659591759E-01
     4
 # iter = 50000  time[fs]=50.00000
   C -0.471308578E+01  0.195936357E+00 -0.210023687E+00
   C  0.443790334E+01 -0.271413805E+00 -0.742554501E-01
   H -0.242186544E+02 -0.184079532E+01  0.241143640E+01
   H  0.239954877E+02  0.240614783E+01  0.673425338E-01
     4
 # iter = 50500  time[fs]=50.50000
   C -0.479740526E+01  0.199599030E+00 -0.213424453E+00
   C  0.451679768E+01 -0.276928758E+00 -0.748308360E-01
   H -0.246148366E+02 -0.187187273E+01  0.245156317E+01
   H  0.243894043E+02  0.244619775E+01  0.687275542E-01
     4
 # iter = 51000  time[fs]=51.00000
   C -0.488186769E+01  0.203270147E+00 -0.216829103E+00
   C  0.459583122E+01 -0.282453444E+00 -0.754049091E-01
   H -0.250112833E+02 -0.190297223E+01  0.249171917E+01
   H  0.247836301E+02  0.248628523E+01  0.701141811E-01
     4
 # iter = 51500  time[fs]=51.50000
   C -0.496646813E+01  0.206949435E+00 -0.220237516E+00
   C  0.467499916E+01 -0.287987551E+00 -0.759777101E-01
   H -0.254079860E+02 -0.193409316E+01  0.253190352E+01
   H  0.251781556E+02  0.252640913E+01  0.715023612E-01
     4
 # iter = 52000  time[fs]=52.00000
   C -0.505120191E+01  0.210636637E+00 -0.223649577E+00
   C  0.475429692E+01 -0.293530783E+00 -0.765492779E-01
   H -0.258049370E+02 -0.196523486E+01  0.257211535E+01
   H  0.255729714E+02  0.256656836E+01  0.728920436E-01
     4
 # iter = 52500  time[fs]=52.50000
   C -0.513606457E+01  0.214331503E+00 -0.227065177E+00
   C  0.483372016E+01 -0.299082857E+00 -0.771196498E-01
   H -0.262021288E+02 -0.199639672E+01  0.261235383E+01
   H  0.259680687E+02  0.260676188E+01  0.742831800E-01
     4
 # iter = 53000  time[fs]=53.00000
   C -0.522105188E+01  0.218033798E+00 -0.230484210E+00
   C  0.491326475E+01 -0.304643502E+00 -0.776888616E-01
   H -0.265995540E+02 -0.202757816E+01  0.265261818E+01
   H  0.263634392E+02  0.264698867E+01  0.756757244E-01
     4
 # iter = 53500  time[fs]=53.50000
   C -0.530615980E+01  0.221743296E+00 -0.233906576E+00
   C  0.499292675E+01 -0.310212460E+00 -0.782569473E-01
   H -0.269972058E+02 -0.205877861E+01  0.269290765E+01
   H  0.267590747E+02  0.268724778E+01  0.770696326E-01
     4
 # iter = 54000  time[fs]=54.00000
   C -0.539138448E+01  0.225459782E+00 -0.237332178E+00
   C  0.507270239E+01 -0.315789483E+00 -0.788239399E-01
   H -0.273950777E+02 -0.208999752E+01  0.273322152E+01
   H  0.271549677E+02  0.272753830E+01  0.784648629E-01
     4
 # iter = 54500  time[fs]=54.50000
   C -0.547672223E+01  0.229183048E+00 -0.240760924E+00
   C  0.515258808E+01 -0.321374334E+00 -0.793898707E-01
   H -0.277931633E+02 -0.212123439E+01  0.277355909E+01
   H  0.275511105E+02  0.276785935E+01  0.798613749E-01
     4
 # iter = 55000  time[fs]=55.00000
   C -0.556216956E+01  0.232912897E+00 -0.244192726E+00
   C  0.523258041E+01 -0.326966787E+00 -0.799547699E-01
   H -0.281914565E+02 -0.215248871E+01  0.281391970E+01
   H  0.279474963E+02  0.280821007E+01  0.812591305E-01
     4
 # iter = 55500  time[fs]=55.50000
   C -0.564772310E+01  0.236649140E+00 -0.247627498E+00
   C  0.531267611E+01 -0.332566625E+00 -0.805186664E-01
   H -0.285899517E+02 -0.218376002E+01  0.285430273E+01
   H  0.283441182E+02  0.284858967E+01  0.826580928E-01
     4
 # iter = 56000  time[fs]=56.00000
   C -0.573337965E+01  0.240391594E+00 -0.251065160E+00
   C  0.539287203E+01 -0.338173638E+00 -0.810815882E-01
   H -0.289886431E+02 -0.221504785E+01  0.289470755E+01
   H  0.287409698E+02  0.288899737E+01  0.840582269E-01
     4
 # iter = 56500  time[fs]=56.50000
   C -0.581913614E+01  0.244140086E+00 -0.254505632E+00
   C  0.547316520E+01 -0.343787628E+00 -0.816435619E-01
   H -0.293875255E+02 -0.224635176E+01  0.293513359E+01
   H  0.291380447E+02  0.292943241E+01  0.854594991E-01
     4
 # iter = 57000  time[fs]=57.00000
   C -0.590498964E+01  0.247894448E+00 -0.257948841E+00
   C  0.555355275E+01 -0.349408403E+00 -0.822046131E-01
   H -0.297865938E+02 -0.227767134E+01  0.297558029E+01
   H  0.295353370E+02  0.296989409E+01  0.868618771E-01
     4
 # iter = 57500  time[fs]=57.50000
   C -0.599093734E+01  0.251654521E+00 -0.261394712E+00
   C  0.563403193E+01 -0.355035779E+00 -0.827647666E-01
   H -0.301858430E+02 -0.230900617E+01  0.301604710E+01
   H  0.299328409E+02  0.301038171E+01  0.882653302E-01
     4
 # iter = 58000  time[fs]=58.00000
   C -0.607697653E+01  0.255420150E+00 -0.264843178E+00
   C  0.571460013E+01 -0.360669579E+00 -0.833240462E-01
   H -0.305852685E+02 -0.234035587E+01  0.305653351E+01
   H  0.303305510E+02  0.305089461E+01  0.896698286E-01
     4
 # iter = 58500  time[fs]=58.50000
   C -0.616310465E+01  0.259191188E+00 -0.268294172E+00
   C  0.579525482E+01 -0.366309633E+00 -0.838824746E-01
   H -0.309848655E+02 -0.237172006E+01  0.309703901E+01
   H  0.307284618E+02  0.309143216E+01  0.910753440E-01
     4
 # iter = 59000  time[fs]=59.00000
   C -0.624931920E+01  0.262967491E+00 -0.271747628E+00
   C  0.587599358E+01 -0.371955777E+00 -0.844400740E-01
   H -0.313846299E+02 -0.240309838E+01  0.313756313E+01
   H  0.311265682E+02  0.313199373E+01  0.924818489E-01
     4
 # iter = 59500  time[fs]=59.50000
   C -0.633561782E+01  0.266748923E+00 -0.275203485E+00
   C  0.595681410E+01 -0.377607855E+00 -0.849968654E-01
   H -0.317845574E+02 -0.243449049E+01  0.317810541E+01
   H  0.315248654E+02  0.317257875E+01  0.938893173E-01
     4
 # iter = 60000  time[fs]=60.00000
   C -0.642199821E+01  0.270535353E+00 -0.278661683E+00
   C  0.603771414E+01 -0.383265716E+00 -0.855528694E-01
   H -0.321846438E+02 -0.246589604E+01  0.321866539E+01
   H  0.319233486E+02  0.321318662E+01  0.952977237E-01
     4
 # iter = 60500  time[fs]=60.50000
   C -0.650845818E+01  0.274326653E+00 -0.282122165E+00
   C  0.611869158E+01 -0.388929213E+00 -0.861081055E-01
   H -0.325848854E+02 -0.249731472E+01  0.325924265E+01
   H  0.323220131E+02  0.325381682E+01  0.967070441E-01
     4
 # iter = 61000  time[fs]=61.00000
   C -0.659499563E+01  0.278122701E+00 -0.285584876E+00
   C  0.619974436E+01 -0.394598206E+00 -0.866625929E-01
   H -0.329852783E+02 -0.252874620E+01  0.329983677E+01
   H  0.327208547E+02  0.329446880E+01  0.981172550E-01
     4
 # iter = 61500  time[fs]=61.50000
   C -0.668160852E+01  0.281923380E+00 -0.289049761E+00
   C  0.628087049E+01 -0.400272560E+00 -0.872163497E-01
   H -0.333858189E+02 -0.256019020E+01  0.334044735E+01
   H  0.331198690E+02  0.333514205E+01  0.995283339E-01
     4
 # iter = 62000  time[fs]=62.00000
   C -0.676829491E+01  0.285728577E+00 -0.292516769E+00
   C  0.636206808E+01 -0.405952144E+00 -0.877693938E-01
   H -0.337865037E+02 -0.259164642E+01  0.338107402E+01
   H  0.335190520E+02  0.337583608E+01  0.100940259E+00
     4
 # iter = 62500  time[fs]=62.50000
   C -0.685505291E+01  0.289538181E+00 -0.295985851E+00
   C  0.644333530E+01 -0.411636834E+00 -0.883217420E-01
   H -0.341873293E+02 -0.262311458E+01  0.342171639E+01
   H  0.339183996E+02  0.341655042E+01  0.102353010E+00
     4
 # iter = 63000  time[fs]=63.00000
   C -0.694188071E+01  0.293352087E+00 -0.299456958E+00
   C  0.652467037E+01 -0.417326507E+00 -0.888734110E-01
   H -0.345882925E+02 -0.265459440E+01  0.346237410E+01
   H  0.343179081E+02  0.345728460E+01  0.103766566E+00
     4
 # iter = 63500  time[fs]=63.50000
   C -0.702877658E+01  0.297170194E+00 -0.302930044E+00
   C  0.660607161E+01 -0.423021046E+00 -0.894244165E-01
   H -0.349893900E+02 -0.268608564E+01  0.350304681E+01
   H  0.347175738E+02  0.349803817E+01  0.105180909E+00
     4
 # iter = 64000  time[fs]=64.00000
   C -0.711573883E+01  0.300992403E+00 -0.306405063E+00
   C  0.668753738E+01 -0.428720338E+00 -0.899747741E-01
   H -0.353906189E+02 -0.271758802E+01  0.354373418E+01
   H  0.351173931E+02  0.353881070E+01  0.106596019E+00
     4
 # iter = 64500  time[fs]=64.50000
   C -0.720276584E+01  0.304818619E+00 -0.309881973E+00
   C  0.676906610E+01 -0.434424274E+00 -0.905244985E-01
   H -0.357919763E+02 -0.274910131E+01  0.358443590E+01
   H  0.355173625E+02  0.357960179E+01  0.108011877E+00
     4
 # iter = 65000  time[fs]=65.00000
   C -0.728985606E+01  0.308648751E+00 -0.313360731E+00
   C  0.685065625E+01 -0.440132748E+00 -0.910736041E-01
   H -0.361934591E+02 -0.278062527E+01  0.362515163E+01
   H  0.359174787E+02  0.362041102E+01  0.109428468E+00
     4
 # iter = 65500  time[fs]=65.50000
   C -0.737700796E+01  0.312482709E+00 -0.316841297E+00
   C  0.693230636E+01 -0.445845658E+00 -0.916221049E-01
   H -0.365950648E+02 -0.281215968E+01  0.366588108E+01
   H  0.363177386E+02  0.366123800E+01  0.110845774E+00
     4
 # iter = 66000  time[fs]=66.00000
   C -0.746422011E+01  0.316320408E+00 -0.320323631E+00
   C  0.701401501E+01 -0.451562906E+00 -0.921700142E-01
   H -0.369967906E+02 -0.284370430E+01  0.370662396E+01
   H  0.367181389E+02  0.370208236E+01  0.112263779E+00
     4
 # iter = 66500  time[fs]=66.50000
   C -0.755149108E+01  0.320161764E+00 -0.323807695E+00
   C  0.709578083E+01 -0.457284395E+00 -0.927173452E-01
   H -0.373986339E+02 -0.287525892E+01  0.374737997E+01
   H  0.371186767E+02  0.374294373E+01  0.113682466E+00
     4
 # iter = 67000  time[fs]=67.00000
   C -0.763881953E+01  0.324006698E+00 -0.327293452E+00
   C  0.717760250E+01 -0.463010033E+00 -0.932641103E-01
   H -0.378005923E+02 -0.290682334E+01  0.378814885E+01
   H  0.375193490E+02  0.378382175E+01  0.115101821E+00
     4
 # iter = 67500  time[fs]=67.50000
   C -0.772620414E+01  0.327855132E+00 -0.330780868E+00
   C  0.725947875E+01 -0.468739731E+00 -0.938103219E-01
   H -0.382026633E+02 -0.293839735E+01  0.382893032E+01
   H  0.379201529E+02  0.382471609E+01  0.116521830E+00
     4
 # iter = 68000  time[fs]=68.00000
   C -0.781364364E+01  0.331706991E+00 -0.334269906E+00
   C  0.734140833E+01 -0.474473402E+00 -0.943559918E-01
   H -0.386048446E+02 -0.296998075E+01  0.386972413E+01
   H  0.383210859E+02  0.386562640E+01  0.117942477E+00
     4
 # iter = 68500  time[fs]=68.50000
   C -0.790113681E+01  0.335562201E+00 -0.337760533E+00
   C  0.742339005E+01 -0.480210963E+00 -0.949011314E-01
   H -0.390071338E+02 -0.300157337E+01  0.391053002E+01
   H  0.387221451E+02  0.390655237E+01  0.119363749E+00
     4
 # iter = 69000  time[fs]=69.00000
   C -0.798868245E+01  0.339420692E+00 -0.341252718E+00
   C  0.750542276E+01 -0.485952330E+00 -0.954457518E-01
   H -0.394095289E+02 -0.303317500E+01  0.395134776E+01
   H  0.391233280E+02  0.394749368E+01  0.120785632E+00
     4
 # iter = 69500  time[fs]=69.50000
   C -0.807627943E+01  0.343282396E+00 -0.344746427E+00
   C  0.758750533E+01 -0.491697427E+00 -0.959898638E-01
   H -0.398120277E+02 -0.306478548E+01  0.399217709E+01
   H  0.395246321E+02  0.398845002E+01  0.122208115E+00
     4
 # iter = 70000  time[fs]=70.00000
   C -0.816392662E+01  0.347147246E+00 -0.348241632E+00
   C  0.766963669E+01 -0.497446175E+00 -0.965334779E-01
   H -0.402146280E+02 -0.309640463E+01  0.403301780E+01
   H  0.399260550E+02  0.402942111E+01  0.123631184E+00
     4
 # iter = 70500  time[fs]=70.50000
   C -0.825162295E+01  0.351015177E+00 -0.351738301E+00
   C  0.775181579E+01 -0.503198502E+00 -0.970766042E-01
   H -0.406173279E+02 -0.312803227E+01  0.407386967E+01
   H  0.403275943E+02  0.407040665E+01  0.125054826E+00
     4
 # iter = 71000  time[fs]=71.00000
   C -0.833936737E+01  0.354886128E+00 -0.355236406E+00
   C  0.783404160E+01 -0.508954335E+00 -0.976192525E-01
   H -0.410201253E+02 -0.315966826E+01  0.411473246E+01
   H  0.407292477E+02  0.411140637E+01  0.126479031E+00
     4
 # iter = 71500  time[fs]=71.50000
   C -0.842715888E+01  0.358760039E+00 -0.358735919E+00
   C  0.791631315E+01 -0.514713604E+00 -0.981614325E-01
   H -0.414230186E+02 -0.319131242E+01  0.415560598E+01
   H  0.411310130E+02  0.415241999E+01  0.127903787E+00
     4
 # iter = 72000  time[fs]=72.00000
   C -0.851499649E+01  0.362636849E+00 -0.362236813E+00
   C  0.799862948E+01 -0.520476241E+00 -0.987031534E-01
   H -0.418260056E+02 -0.322296460E+01  0.419649002E+01
   H  0.415328881E+02  0.419344726E+01  0.129329083E+00
     4
 # iter = 72500  time[fs]=72.50000
   C -0.860287926E+01  0.366516502E+00 -0.365739061E+00
   C  0.808098967E+01 -0.526242181E+00 -0.992444241E-01
   H -0.422290848E+02 -0.325462466E+01  0.423738439E+01
   H  0.419348708E+02  0.423448791E+01  0.130754907E+00
     4
 # iter = 73000  time[fs]=73.00000
   C -0.869080626E+01  0.370398942E+00 -0.369242638E+00
   C  0.816339281E+01 -0.532011359E+00 -0.997852536E-01
   H -0.426322543E+02 -0.328629244E+01  0.427828888E+01
   H  0.423369591E+02  0.427554170E+01  0.132181250E+00
     4
 # iter = 73500  time[fs]=73.50000
   C -0.877877659E+01  0.374284117E+00 -0.372747518E+00
   C  0.824583805E+01 -0.537783714E+00 -0.100325650E+00
   H -0.430355124E+02 -0.331796781E+01  0.431920331E+01
   H  0.427391511E+02  0.431660838E+01  0.133608102E+00
     4
 # iter = 74000  time[fs]=74.00000
   C -0.886678940E+01  0.378171972E+00 -0.376253678E+00
   C  0.832832452E+01 -0.543559184E+00 -0.100865622E+00
   H -0.434388576E+02 -0.334965062E+01  0.436012750E+01
   H  0.431414447E+02  0.435768773E+01  0.135035452E+00
     4
 # iter = 74500  time[fs]=74.50000
   C -0.895484382E+01  0.382062459E+00 -0.379761093E+00
   C  0.841085142E+01 -0.549337712E+00 -0.101405178E+00
   H -0.438422881E+02 -0.338134075E+01  0.440106127E+01
   H  0.435438382E+02  0.439877951E+01  0.136463291E+00
     4
 # iter = 75000  time[fs]=75.00000
   C -0.904293906E+01  0.385955526E+00 -0.383269742E+00
   C  0.849341795E+01 -0.555119239E+00 -0.101944325E+00
   H -0.442458025E+02 -0.341303805E+01  0.444200445E+01
   H  0.439463297E+02  0.443988349E+01  0.137891610E+00
     4
 # iter = 75500  time[fs]=75.50000
   C -0.913107431E+01  0.389851126E+00 -0.386779600E+00
   C  0.857602333E+01 -0.560903712E+00 -0.102483070E+00
   H -0.446493991E+02 -0.344474241E+01  0.448295687E+01
   H  0.443489174E+02  0.448099947E+01  0.139320400E+00
     4
 # iter = 76000  time[fs]=76.00000
   C -0.921924880E+01  0.393749212E+00 -0.390290647E+00
   C  0.865866681E+01 -0.566691075E+00 -0.103021422E+00
   H -0.450530767E+02 -0.347645370E+01  0.452391836E+01
   H  0.447515996E+02  0.452212723E+01  0.140749651E+00
     4
 # iter = 76500  time[fs]=76.50000
   C -0.930746178E+01  0.397649740E+00 -0.393802861E+00
   C  0.874134767E+01 -0.572481276E+00 -0.103559388E+00
   H -0.454568336E+02 -0.350817179E+01  0.456488877E+01
   H  0.451543747E+02  0.456326657E+01  0.142179356E+00
     4
 # iter = 77000  time[fs]=77.00000
   C -0.939571252E+01  0.401552663E+00 -0.397316222E+00
   C  0.882406518E+01 -0.578274264E+00 -0.104096974E+00
   H -0.458606686E+02 -0.353989657E+01  0.460586795E+01
   H  0.455572409E+02  0.460441728E+01  0.143609505E+00
     4
 # iter = 77500  time[fs]=77.50000
   C -0.948400031E+01  0.405457940E+00 -0.400830709E+00
   C  0.890681867E+01 -0.584069989E+00 -0.104634187E+00
   H -0.462645802E+02 -0.357162793E+01  0.464685573E+01
   H  0.459601968E+02  0.464557917E+01  0.145040092E+00
     4
 # iter = 78000  time[fs]=78.00000
   C -0.957232447E+01  0.409365528E+00 -0.404346303E+00
   C  0.898960747E+01 -0.589868402E+00 -0.105171034E+00
   H -0.466685672E+02 -0.360336576E+01  0.468785197E+01
   H  0.463632407E+02  0.468675205E+01  0.146471108E+00
     4
 # iter = 78500  time[fs]=78.50000
   C -0.966068432E+01  0.413275387E+00 -0.407862986E+00
   C  0.907243091E+01 -0.595669457E+00 -0.105707522E+00
   H -0.470726282E+02 -0.363510994E+01  0.472885653E+01
   H  0.467663711E+02  0.472793574E+01  0.147902545E+00
     4
 # iter = 79000  time[fs]=79.00000
   C -0.974907920E+01  0.417187476E+00 -0.411380737E+00
   C  0.915528837E+01 -0.601473107E+00 -0.106243657E+00
   H -0.474767619E+02 -0.366686036E+01  0.476986928E+01
   H  0.471695866E+02  0.476913005E+01  0.149334396E+00
     4
 # iter = 79500  time[fs]=79.50000
   C -0.983750849E+01  0.421101758E+00 -0.414899540E+00
   C  0.923817922E+01 -0.607279308E+00 -0.106779444E+00
   H -0.478809672E+02 -0.369861693E+01  0.481089006E+01
   H  0.475728857E+02  0.481033480E+01  0.150766654E+00
     4
 # iter = 80000  time[fs]=80.00000
   C -0.992597156E+01  0.425018193E+00 -0.418419376E+00
   C  0.932110287E+01 -0.613088015E+00 -0.107314890E+00
   H -0.482852429E+02 -0.373037955E+01  0.485191875E+01
   H  0.479762670E+02  0.485154983E+01  0.152199311E+00
