     4
 # iter = 25000  time[fs]=25.00000
   C -0.101559739E+01 -0.384593046E-01 -0.161931029E-01
   C  0.952180949E+00 -0.336150971E-01 -0.838747543E-02
   H -0.520588782E+01  0.736663321E+00  0.528091664E+00
   H  0.519964418E+01 -0.442640133E+00 -0.442474003E+00
     4
 # iter = 25500  time[fs]=25.50000
   C -0.106318969E+01 -0.419118937E-01 -0.174803593E-01
   C  0.992608190E+00 -0.320007872E-01 -0.675243947E-02
   H -0.553313230E+01  0.784673828E+00  0.563149164E+00
   H  0.551359201E+01 -0.467548265E+00 -0.470597726E+00
     4
 # iter = 26000  time[fs]=26.00000
   C -0.111399979E+01 -0.454007512E-01 -0.187975933E-01
   C  0.103624954E+01 -0.303657490E-01 -0.509194527E-02
   H -0.586305484E+01  0.833112720E+00  0.598510969E+00
   H  0.583026233E+01 -0.492698301E+00 -0.498971523E+00
     4
 # iter = 26500  time[fs]=26.50000
   C -0.116775407E+01 -0.489286848E-01 -0.201452827E-01
   C  0.108283115E+01 -0.287053918E-01 -0.340490319E-02
   H -0.619535798E+01  0.881932190E+00  0.634143364E+00
   H  0.614936013E+01 -0.518063830E+00 -0.527569017E+00
     4
 # iter = 27000  time[fs]=27.00000
   C -0.122419765E+01 -0.524973840E-01 -0.215234281E-01
   C  0.113209808E+01 -0.270165336E-01 -0.169081358E-02
   H -0.652979038E+01  0.931092025E+00  0.670017952E+00
   H  0.647063501E+01 -0.543622547E+00 -0.556367803E+00
     4
 # iter = 27500  time[fs]=27.50000
   C -0.128309571E+01 -0.561076307E-01 -0.229316491E-01
   C  0.118381551E+01 -0.252971314E-01  0.503551296E-04
   H -0.686613785E+01  0.980558080E+00  0.706110594E+00
   H  0.679387278E+01 -0.569355444E+00 -0.585348686E+00
     4
 # iter = 28000  time[fs]=28.00000
   C -0.134423366E+01 -0.597594956E-01 -0.243692762E-01
   C  0.123776890E+01 -0.235460383E-01  0.181827701E-02
   H -0.720421646E+01  0.103030111E+01  0.742400597E+00
   H  0.711888886E+01 -0.595246192E+00 -0.614495096E+00
     4
 # iter = 28500  time[fs]=28.50000
   C -0.140741652E+01 -0.634525110E-01 -0.258354311E-01
   C  0.129376335E+01 -0.217627967E-01  0.361236336E-02
   H -0.754386719E+01  0.108029589E+01  0.778870086E+00
   H  0.744552315E+01 -0.621280660E+00 -0.643792629E+00
     4
 # iter = 29000  time[fs]=29.00000
   C -0.147246784E+01 -0.671858145E-01 -0.273290945E-01
   C  0.135162253E+01 -0.199474675E-01  0.543184051E-02
   H -0.788495162E+01  0.113052049E+01  0.815503512E+00
   H  0.777363591E+01 -0.647446540E+00 -0.673228689E+00
     4
 # iter = 29500  time[fs]=29.50000
   C -0.153922840E+01 -0.709582663E-01 -0.288491594E-01
   C  0.141118735E+01 -0.181004916E-01  0.727581179E-02
   H -0.822734861E+01  0.118095573E+01  0.852287270E+00
   H  0.810310449E+01 -0.673733045E+00 -0.702792192E+00
     4
 # iter = 30000  time[fs]=30.00000
   C -0.160755476E+01 -0.747685407E-01 -0.303944730E-01
   C  0.147231449E+01 -0.162225814E-01  0.914330571E-02
   H -0.857095153E+01  0.123158475E+01  0.889209383E+00
   H  0.843382069E+01 -0.700130667E+00 -0.732473337E+00
     4
 # iter = 30500  time[fs]=30.50000
   C -0.167731776E+01 -0.786151977E-01 -0.319638681E-01
   C  0.153487494E+01 -0.143146361E-01  0.110333125E-01
   H -0.891566608E+01  0.128239263E+01  0.926259253E+00
   H  0.876568860E+01 -0.726630986E+00 -0.762263415E+00
     4
 # iter = 31000  time[fs]=31.00000
   C -0.174840119E+01 -0.824967368E-01 -0.335561866E-01
   C  0.159875260E+01 -0.123776764E-01  0.129448111E-01
   H -0.926140846E+01  0.133336613E+01  0.963427459E+00
   H  0.909862282E+01 -0.753226504E+00 -0.792154651E+00
     4
 # iter = 31500  time[fs]=31.50000
   C -0.182070038E+01 -0.864116372E-01 -0.351702955E-01
   C  0.166384295E+01 -0.104127961E-01  0.148767891E-01
   H -0.960810389E+01  0.138449341E+01  0.100070558E+01
   H  0.943254699E+01 -0.779910522E+00 -0.822140074E+00
     4
 # iter = 32000  time[fs]=32.00000
   C -0.189412102E+01 -0.903583870E-01 -0.368050987E-01
   C  0.173005181E+01 -0.842112495E-02  0.168282566E-01
   H -0.995568537E+01  0.143576388E+01  0.103808608E+01
   H  0.976739257E+01 -0.806677025E+00 -0.852213413E+00
     4
 # iter = 32500  time[fs]=32.50000
   C -0.196857806E+01 -0.943355039E-01 -0.384595440E-01
   C  0.179729424E+01 -0.640380191E-02  0.187982555E-01
   H -0.103040926E+02  0.148716800E+01  0.107556216E+01
   H  0.101030978E+02 -0.833520592E+00 -0.882369004E+00
     4
 # iter = 33000  time[fs]=33.00000
   C -0.204399465E+01 -0.983415496E-01 -0.401326276E-01
   C  0.186549352E+01 -0.436195577E-02  0.207858658E-01
   H -0.106532713E+02  0.153869715E+01  0.111312768E+01
   H  0.104396070E+02 -0.860436325E+00 -0.912601713E+00
     4
 # iter = 33500  time[fs]=33.50000
   C -0.212030130E+01 -0.102375139E+00 -0.418233963E-01
   C  0.193458027E+01 -0.229669131E-02  0.227902090E-01
   H -0.110031722E+02  0.159034353E+01  0.115077708E+01
   H  0.107768694E+02 -0.887419777E+00 -0.942906874E+00
     4
 # iter = 34000  time[fs]=34.00000
   C -0.219743503E+01 -0.106434948E+00 -0.435309481E-01
   C  0.200449162E+01 -0.209079960E-03  0.248104504E-01
   H -0.113537506E+02  0.164210005E+01  0.118850530E+01
   H  0.111148390E+02 -0.914466902E+00 -0.973280233E+00
     4
 # iter = 34500  time[fs]=34.50000
   C -0.227533872E+01 -0.110519711E+00 -0.452544318E-01
   C  0.207517053E+01  0.189984647E-02  0.268457991E-01
   H -0.117049656E+02  0.169396022E+01  0.122630772E+01
   H  0.114534740E+02 -0.941574010E+00 -0.100371790E+01
     4
 # iter = 35000  time[fs]=35.00000
   C -0.235396040E+01 -0.114628231E+00 -0.469930456E-01
   C  0.214656518E+01  0.402909948E-02  0.288955079E-01
   H -0.120567803E+02  0.174591816E+01  0.126418012E+01
   H  0.117927358E+02 -0.968737720E+00 -0.103421631E+01
     4
 # iter = 35500  time[fs]=35.50000
   C -0.243325279E+01 -0.118759369E+00 -0.487460350E-01
   C  0.221862833E+01  0.617773586E-02  0.309588717E-01
   H -0.124091604E+02  0.179796842E+01  0.130211863E+01
   H  0.121325894E+02 -0.995954932E+00 -0.106477219E+01
     4
 # iter = 36000  time[fs]=36.00000
   C -0.251317272E+01 -0.122912052E+00 -0.505126912E-01
   C  0.229131693E+01  0.834485839E-02  0.330352267E-01
   H -0.127620747E+02  0.185010603E+01  0.134011970E+01
   H  0.124730024E+02 -0.102322280E+01 -0.109538251E+01
     4
 # iter = 36500  time[fs]=36.50000
   C -0.259368076E+01 -0.127085264E+00 -0.522923483E-01
   C  0.236459162E+01  0.105296155E-01  0.351239478E-01
   H -0.131154944E+02  0.190232640E+01  0.137818005E+01
   H  0.128139450E+02 -0.105053868E+01 -0.112604450E+01
     4
 # iter = 37000  time[fs]=37.00000
   C -0.267474080E+01 -0.131278049E+00 -0.540843812E-01
   C  0.243841638E+01  0.127312004E-01  0.372244474E-01
   H -0.134693931E+02  0.195462530E+01  0.141629665E+01
   H  0.131553898E+02 -0.107790016E+01 -0.115675557E+01
     4
 # iter = 37500  time[fs]=37.50000
   C -0.275631973E+01 -0.135489503E+00 -0.558882028E-01
   C  0.251275816E+01  0.149488497E-01  0.393361726E-01
   H -0.138237462E+02  0.200699881E+01  0.145446671E+01
   H  0.134973113E+02 -0.110530498E+01 -0.118751333E+01
     4
 # iter = 38000  time[fs]=38.00000
   C -0.283838712E+01 -0.139718777E+00 -0.577032620E-01
   C  0.258758663E+01  0.171818415E-01  0.414586037E-01
   H -0.141785310E+02  0.205944330E+01  0.149268762E+01
   H  0.138396860E+02 -0.113275107E+01 -0.121831558E+01
     4
 # iter = 38500  time[fs]=38.50000
   C -0.292091499E+01 -0.143965068E+00 -0.595290413E-01
   C  0.266287383E+01  0.194294940E-01  0.435912522E-01
   H -0.145337265E+02  0.211195539E+01  0.153095698E+01
   H  0.141824920E+02 -0.116023647E+01 -0.124916024E+01
     4
 # iter = 39000  time[fs]=39.00000
   C -0.300387751E+01 -0.148227621E+00 -0.613650544E-01
   C  0.273859405E+01  0.216911630E-01  0.457336584E-01
   H -0.148893131E+02  0.216453195E+01  0.156927255E+01
   H  0.145257090E+02 -0.118775939E+01 -0.128004539E+01
     4
 # iter = 39500  time[fs]=39.50000
   C -0.308725087E+01 -0.152505726E+00 -0.632108443E-01
   C  0.281472351E+01  0.239662402E-01  0.478853899E-01
   H -0.152452727E+02  0.221717006E+01  0.160763222E+01
   H  0.148693181E+02 -0.121531815E+01 -0.131096923E+01
     4
 # iter = 40000  time[fs]=40.00000
   C -0.317101304E+01 -0.156798710E+00 -0.650659812E-01
   C  0.289124023E+01  0.262541511E-01  0.500460397E-01
   H -0.156015881E+02  0.226986699E+01  0.164603406E+01
   H  0.152133015E+02 -0.124291117E+01 -0.134193009E+01
     4
 # iter = 40500  time[fs]=40.50000
   C -0.325514361E+01 -0.161105942E+00 -0.669300606E-01
   C  0.296812387E+01  0.285543533E-01  0.522152245E-01
   H -0.159582437E+02  0.232262018E+01  0.168447623E+01
   H  0.155576429E+02 -0.127053698E+01 -0.137292640E+01
     4
 # iter = 41000  time[fs]=41.00000
   C -0.333962364E+01 -0.165426825E+00 -0.688027019E-01
   C  0.304535556E+01  0.308663343E-01  0.543925834E-01
   H -0.163152246E+02  0.237542725E+01  0.172295703E+01
   H  0.159023267E+02 -0.129819421E+01 -0.140395667E+01
     4
 # iter = 41500  time[fs]=41.50000
   C -0.342443557E+01 -0.169760794E+00 -0.706835463E-01
   C  0.312291775E+01  0.331896095E-01  0.565777757E-01
   H -0.166725169E+02  0.242828595E+01  0.176147485E+01
   H  0.162473385E+02 -0.132588156E+01 -0.143501954E+01
     4
 # iter = 42000  time[fs]=42.00000
   C -0.350956304E+01 -0.174107320E+00 -0.725722557E-01
   C  0.320079416E+01  0.355237213E-01  0.587704805E-01
   H -0.170301075E+02  0.248119420E+01  0.180002820E+01
   H  0.165926646E+02 -0.135359782E+01 -0.146611370E+01
     4
 # iter = 42500  time[fs]=42.50000
   C -0.359499081E+01 -0.178465898E+00 -0.744685110E-01
   C  0.327896957E+01  0.378682366E-01  0.609703946E-01
   H -0.173879843E+02  0.253415000E+01  0.183861564E+01
   H  0.169382924E+02 -0.138134184E+01 -0.149723792E+01
     4
 # iter = 43000  time[fs]=43.00000
   C -0.368070467E+01 -0.182836053E+00 -0.763720111E-01
   C  0.335742984E+01  0.402227456E-01  0.631772316E-01
   H -0.177461359E+02  0.258715151E+01  0.187723586E+01
   H  0.172842097E+02 -0.140911256E+01 -0.152839105E+01
     4
 # iter = 43500  time[fs]=43.50000
   C -0.376669136E+01 -0.187217337E+00 -0.782824713E-01
   C  0.343616172E+01  0.425868605E-01  0.653907209E-01
   H -0.181045512E+02  0.264019696E+01  0.191588760E+01
   H  0.176304054E+02 -0.143690896E+01 -0.155957200E+01
     4
 # iter = 44000  time[fs]=44.00000
   C -0.385293845E+01 -0.191609324E+00 -0.801996226E-01
   C  0.351515285E+01  0.449602139E-01  0.676106065E-01
   H -0.184632202E+02  0.269328470E+01  0.195456966E+01
   H  0.179768687E+02 -0.146473007E+01 -0.159077974E+01
     4
 # iter = 44500  time[fs]=44.50000
   C -0.393943434E+01 -0.196011611E+00 -0.821232104E-01
   C  0.359439165E+01  0.473424575E-01  0.698366459E-01
   H -0.188221333E+02  0.274641317E+01  0.199328094E+01
   H  0.183235895E+02 -0.149257501E+01 -0.162201331E+01
     4
 # iter = 45000  time[fs]=45.00000
   C -0.402616813E+01 -0.200423815E+00 -0.840529936E-01
   C  0.367386725E+01  0.497332612E-01  0.720686097E-01
   H -0.191812814E+02  0.279958090E+01  0.203202038E+01
   H  0.186705585E+02 -0.152044290E+01 -0.165327178E+01
     4
 # iter = 45500  time[fs]=45.50000
   C -0.411312960E+01 -0.204845574E+00 -0.859887439E-01
   C  0.375356948E+01  0.521323116E-01  0.743062803E-01
   H -0.195406558E+02  0.285278647E+01  0.207078697E+01
   H  0.190177664E+02 -0.154833294E+01 -0.168455428E+01
     4
 # iter = 46000  time[fs]=46.00000
   C -0.420030914E+01 -0.209276545E+00 -0.879302446E-01
   C  0.383348876E+01  0.545393113E-01  0.765494513E-01
   H -0.199002484E+02  0.290602858E+01  0.210957976E+01
   H  0.193652049E+02 -0.157624437E+01 -0.171585998E+01
     4
 # iter = 46500  time[fs]=46.50000
   C -0.428769773E+01 -0.213716402E+00 -0.898772903E-01
   C  0.391361609E+01  0.569539777E-01  0.787979268E-01
   H -0.202600516E+02  0.295930596E+01  0.214839785E+01
   H  0.197128659E+02 -0.160417645E+01 -0.174718810E+01
     4
 # iter = 47000  time[fs]=47.00000
   C -0.437528685E+01 -0.218164832E+00 -0.918296857E-01
   C  0.399394299E+01  0.593760422E-01  0.810515207E-01
   H -0.206200580E+02  0.301261742E+01  0.218724039E+01
   H  0.200607417E+02 -0.163212849E+01 -0.177853790E+01
     4
 # iter = 47500  time[fs]=47.50000
   C -0.446306850E+01 -0.222621542E+00 -0.937872454E-01
   C  0.407446148E+01  0.618052493E-01  0.833100562E-01
   H -0.209802607E+02  0.306596183E+01  0.222610657E+01
   H  0.204088249E+02 -0.166009983E+01 -0.180990866E+01
     4
 # iter = 48000  time[fs]=48.00000
   C -0.455103511E+01 -0.227086251E+00 -0.957497931E-01
   C  0.415516403E+01  0.642413558E-01  0.855733649E-01
   H -0.213406531E+02  0.311933810E+01  0.226499562E+01
   H  0.207571088E+02 -0.168808985E+01 -0.184129970E+01
     4
 # iter = 48500  time[fs]=48.50000
   C -0.463917954E+01 -0.231558692E+00 -0.977171609E-01
   C  0.423604351E+01  0.666841303E-01  0.878412868E-01
   H -0.217012290E+02  0.317274522E+01  0.230390679E+01
   H  0.211055867E+02 -0.171609796E+01 -0.187271039E+01
     4
 # iter = 49000  time[fs]=49.00000
   C -0.472749504E+01 -0.236038609E+00 -0.996891891E-01
   C  0.431709321E+01  0.691333520E-01  0.901136694E-01
   H -0.220619823E+02  0.322618220E+01  0.234283940E+01
   H  0.214542524E+02 -0.174412357E+01 -0.190414012E+01
     4
 # iter = 49500  time[fs]=49.50000
   C -0.481597523E+01 -0.240525759E+00 -0.101665725E+00
   C  0.439830675E+01  0.715888106E-01  0.923903674E-01
   H -0.224229075E+02  0.327964812E+01  0.238179276E+01
   H  0.218030999E+02 -0.177216616E+01 -0.193558829E+01
     4
 # iter = 50000  time[fs]=50.00000
   C -0.490461405E+01 -0.245019912E+00 -0.103646625E+00
   C  0.447967813E+01  0.740503054E-01  0.946712421E-01
   H -0.227839990E+02  0.333314209E+01  0.242076625E+01
   H  0.221521236E+02 -0.180022521E+01 -0.196705435E+01
     4
 # iter = 50500  time[fs]=50.50000
   C -0.499340578E+01 -0.249520846E+00 -0.105631748E+00
   C  0.456120162E+01  0.765176450E-01  0.969561613E-01
   H -0.231452518E+02  0.338666325E+01  0.245975925E+01
   H  0.225013179E+02 -0.182830022E+01 -0.199853777E+01
     4
 # iter = 51000  time[fs]=51.00000
   C -0.508234497E+01 -0.254028350E+00 -0.107620964E+00
   C  0.464287182E+01  0.789906462E-01  0.992449988E-01
   H -0.235066610E+02  0.344021080E+01  0.249877120E+01
   H  0.228506777E+02 -0.185639071E+01 -0.203003804E+01
     4
 # iter = 51500  time[fs]=51.50000
   C -0.517142648E+01 -0.258542221E+00 -0.109614146E+00
   C  0.472468357E+01  0.814691344E-01  0.101537634E+00
   H -0.238682217E+02  0.349378397E+01  0.253780152E+01
   H  0.232001981E+02 -0.188449625E+01 -0.206155467E+01
     4
 # iter = 52000  time[fs]=52.00000
   C -0.526064540E+01 -0.263062268E+00 -0.111611174E+00
   C  0.480663202E+01  0.839529423E-01  0.103833951E+00
   H -0.242299296E+02  0.354738201E+01  0.257684969E+01
   H  0.235498744E+02 -0.191261640E+01 -0.209308719E+01
     4
 # iter = 52500  time[fs]=52.50000
   C -0.534999706E+01 -0.267588306E+00 -0.113611931E+00
   C  0.488871249E+01  0.864419101E-01  0.106133841E+00
   H -0.245917802E+02  0.360100421E+01  0.261591520E+01
   H  0.238997019E+02 -0.194075074E+01 -0.212463516E+01
     4
 # iter = 53000  time[fs]=53.00000
   C -0.543947703E+01 -0.272120157E+00 -0.115616308E+00
   C  0.497092059E+01  0.889358846E-01  0.108437197E+00
   H -0.249537696E+02  0.365464990E+01  0.265499757E+01
   H  0.242496765E+02 -0.196889888E+01 -0.215619814E+01
     4
 # iter = 53500  time[fs]=53.50000
   C -0.552908109E+01 -0.276657653E+00 -0.117624198E+00
   C  0.505325211E+01  0.914347193E-01  0.110743918E+00
   H -0.253158938E+02  0.370831842E+01  0.269409632E+01
   H  0.245997938E+02 -0.199706044E+01 -0.218777574E+01
     4
 # iter = 54000  time[fs]=54.00000
   C -0.561880521E+01 -0.281200632E+00 -0.119635501E+00
   C  0.513570303E+01  0.939382737E-01  0.113053908E+00
   H -0.256781489E+02  0.376200915E+01  0.273321101E+01
   H  0.249500501E+02 -0.202523506E+01 -0.221936754E+01
     4
 # iter = 54500  time[fs]=54.50000
   C -0.570864556E+01 -0.285748937E+00 -0.121650119E+00
   C  0.521826955E+01  0.964464132E-01  0.115367074E+00
   H -0.260405315E+02  0.381572149E+01  0.277234122E+01
   H  0.253004413E+02 -0.205342239E+01 -0.225097318E+01
     4
 # iter = 55000  time[fs]=55.00000
   C -0.579859848E+01 -0.290302421E+00 -0.123667960E+00
   C  0.530094800E+01  0.989590086E-01  0.117683327E+00
   H -0.264030379E+02  0.386945487E+01  0.281148652E+01
   H  0.256509640E+02 -0.208162208E+01 -0.228259230E+01
     4
 # iter = 55500  time[fs]=55.50000
   C -0.588866046E+01 -0.294860939E+00 -0.125688933E+00
   C  0.538373492E+01  0.101475936E+00  0.120002581E+00
   H -0.267656649E+02  0.392320872E+01  0.285064652E+01
   H  0.260016145E+02 -0.210983382E+01 -0.231422453E+01
     4
 # iter = 56000  time[fs]=56.00000
   C -0.597882818E+01 -0.299424355E+00 -0.127712954E+00
   C  0.546662697E+01  0.103997076E+00  0.122324754E+00
   H -0.271284092E+02  0.397698253E+01  0.288982084E+01
   H  0.263523895E+02 -0.213805730E+01 -0.234586955E+01
     4
 # iter = 56500  time[fs]=56.50000
   C -0.606909843E+01 -0.303992536E+00 -0.129739939E+00
   C  0.554962098E+01  0.106522315E+00  0.124649768E+00
   H -0.274912679E+02  0.403077578E+01  0.292900911E+01
   H  0.267032857E+02 -0.216629222E+01 -0.237752703E+01
     4
 # iter = 57000  time[fs]=57.00000
   C -0.615946817E+01 -0.308565355E+00 -0.131769811E+00
   C  0.563271391E+01  0.109051543E+00  0.126977547E+00
   H -0.278542379E+02  0.408458798E+01  0.296821098E+01
   H  0.270543001E+02 -0.219453829E+01 -0.240919666E+01
     4
 # iter = 57500  time[fs]=57.50000
   C -0.624993447E+01 -0.313142691E+00 -0.133802492E+00
   C  0.571590285E+01  0.111584654E+00  0.129308018E+00
   H -0.282173163E+02  0.413841866E+01  0.300742612E+01
   H  0.274054296E+02 -0.222279524E+01 -0.244087815E+01
     4
 # iter = 58000  time[fs]=58.00000
   C -0.634049453E+01 -0.317724427E+00 -0.135837909E+00
   C  0.579918501E+01  0.114121547E+00  0.131641111E+00
   H -0.285805006E+02  0.419226736E+01  0.304665419E+01
   H  0.277566713E+02 -0.225106280E+01 -0.247257120E+01
     4
 # iter = 58500  time[fs]=58.50000
   C -0.643114567E+01 -0.322310448E+00 -0.137875993E+00
   C  0.588255772E+01  0.116662123E+00  0.133976758E+00
   H -0.289437879E+02  0.424613364E+01  0.308589488E+01
   H  0.281080224E+02 -0.227934072E+01 -0.250427553E+01
     4
 # iter = 59000  time[fs]=59.00000
   C -0.652188532E+01 -0.326900647E+00 -0.139916674E+00
   C  0.596601842E+01  0.119206290E+00  0.136314896E+00
   H -0.293071758E+02  0.430001707E+01  0.312514789E+01
   H  0.284594804E+02 -0.230762874E+01 -0.253599088E+01
     4
 # iter = 59500  time[fs]=59.50000
   C -0.661271101E+01 -0.331494919E+00 -0.141959889E+00
   C  0.604956466E+01  0.121753955E+00  0.138655461E+00
   H -0.296706619E+02  0.435391726E+01  0.316441293E+01
   H  0.288110425E+02 -0.233592663E+01 -0.256771698E+01
     4
 # iter = 60000  time[fs]=60.00000
   C -0.670362037E+01 -0.336093163E+00 -0.144005574E+00
   C  0.613319408E+01  0.124305032E+00  0.140998394E+00
   H -0.300342437E+02  0.440783381E+01  0.320368970E+01
   H  0.291627063E+02 -0.236423415E+01 -0.259945359E+01
     4
 # iter = 60500  time[fs]=60.50000
   C -0.679461113E+01 -0.340695281E+00 -0.146053669E+00
   C  0.621690442E+01  0.126859437E+00  0.143343636E+00
   H -0.303979190E+02  0.446176634E+01  0.324297795E+01
   H  0.295144694E+02 -0.239255110E+01 -0.263120047E+01
     4
 # iter = 61000  time[fs]=61.00000
   C -0.688568111E+01 -0.345301180E+00 -0.148104115E+00
   C  0.630069350E+01  0.129417089E+00  0.145691131E+00
   H -0.307616856E+02  0.451571447E+01  0.328227740E+01
   H  0.298663295E+02 -0.242087724E+01 -0.266295738E+01
     4
 # iter = 61500  time[fs]=61.50000
   C -0.697682820E+01 -0.349910769E+00 -0.150156855E+00
   C  0.638455924E+01  0.131977908E+00  0.148040825E+00
   H -0.311255414E+02  0.456967787E+01  0.332158780E+01
   H  0.302182843E+02 -0.244921237E+01 -0.269472410E+01
     4
 # iter = 62000  time[fs]=62.00000
   C -0.706805039E+01 -0.354523961E+00 -0.152211836E+00
   C  0.646849962E+01  0.134541820E+00  0.150392667E+00
   H -0.314894844E+02  0.462365618E+01  0.336090891E+01
   H  0.305703317E+02 -0.247755630E+01 -0.272650041E+01
     4
 # iter = 62500  time[fs]=62.50000
   C -0.715934574E+01 -0.359140671E+00 -0.154269004E+00
   C  0.655251271E+01  0.137108752E+00  0.152746605E+00
   H -0.318535125E+02  0.467764907E+01  0.340024049E+01
   H  0.309224695E+02 -0.250590883E+01 -0.275828610E+01
     4
 # iter = 63000  time[fs]=63.00000
   C -0.725071237E+01 -0.363760817E+00 -0.156328310E+00
   C  0.663659665E+01  0.139678633E+00  0.155102592E+00
   H -0.322176238E+02  0.473165622E+01  0.343958231E+01
   H  0.312746959E+02 -0.253426977E+01 -0.279008096E+01
     4
 # iter = 63500  time[fs]=63.50000
   C -0.734214849E+01 -0.368384322E+00 -0.158389703E+00
   C  0.672074966E+01  0.142251395E+00  0.157460581E+00
   H -0.325818166E+02  0.478567733E+01  0.347893414E+01
   H  0.316270087E+02 -0.256263894E+01 -0.282188481E+01
     4
 # iter = 64000  time[fs]=64.00000
   C -0.743365236E+01 -0.373011109E+00 -0.160453138E+00
   C  0.680496999E+01  0.144826972E+00  0.159820525E+00
   H -0.329460890E+02  0.483971210E+01  0.351829578E+01
   H  0.319794061E+02 -0.259101617E+01 -0.285369744E+01
     4
 # iter = 64500  time[fs]=64.50000
   C -0.752522230E+01 -0.377641104E+00 -0.162518567E+00
   C  0.688925600E+01  0.147405301E+00  0.162182382E+00
   H -0.333104392E+02  0.489376022E+01  0.355766701E+01
   H  0.323318863E+02 -0.261940128E+01 -0.288551867E+01
     4
 # iter = 65000  time[fs]=65.00000
   C -0.761685672E+01 -0.382274236E+00 -0.164585946E+00
   C  0.697360608E+01  0.149986320E+00  0.164546108E+00
   H -0.336748657E+02  0.494782143E+01  0.359704763E+01
   H  0.326844475E+02 -0.264779411E+01 -0.291734832E+01
     4
 # iter = 65500  time[fs]=65.50000
   C -0.770855404E+01 -0.386910437E+00 -0.166655233E+00
   C  0.705801867E+01  0.152569970E+00  0.166911664E+00
   H -0.340393668E+02  0.500189545E+01  0.363643745E+01
   H  0.330370880E+02 -0.267619449E+01 -0.294918623E+01
     4
 # iter = 66000  time[fs]=66.00000
   C -0.780031278E+01 -0.391549639E+00 -0.168726387E+00
   C  0.714249229E+01  0.155156193E+00  0.169279008E+00
   H -0.344039409E+02  0.505598202E+01  0.367583628E+01
   H  0.333898062E+02 -0.270460229E+01 -0.298103221E+01
     4
 # iter = 66500  time[fs]=66.50000
   C -0.789213148E+01 -0.396191778E+00 -0.170799366E+00
   C  0.722702550E+01  0.157744934E+00  0.171648103E+00
   H -0.347685864E+02  0.511008088E+01  0.371524393E+01
   H  0.337426003E+02 -0.273301734E+01 -0.301288612E+01
     4
 # iter = 67000  time[fs]=67.00000
   C -0.798400874E+01 -0.400836791E+00 -0.172874132E+00
   C  0.731161690E+01  0.160336137E+00  0.174018911E+00
   H -0.351333021E+02  0.516419178E+01  0.375466023E+01
   H  0.340954690E+02 -0.276143950E+01 -0.304474779E+01
     4
 # iter = 67500  time[fs]=67.50000
   C -0.807594322E+01 -0.405484618E+00 -0.174950648E+00
   C  0.739626515E+01  0.162929752E+00  0.176391396E+00
   H -0.354980863E+02  0.521831448E+01  0.379408500E+01
   H  0.344484106E+02 -0.278986863E+01 -0.307661706E+01
     4
 # iter = 68000  time[fs]=68.00000
   C -0.816793360E+01 -0.410135200E+00 -0.177028876E+00
   C  0.748096896E+01  0.165525726E+00  0.178765523E+00
   H -0.358629377E+02  0.527244876E+01  0.383351808E+01
   H  0.348014237E+02 -0.281830459E+01 -0.310849379E+01
     4
 # iter = 68500  time[fs]=68.50000
   C -0.825997863E+01 -0.414788481E+00 -0.179108782E+00
   C  0.756572706E+01  0.168124012E+00  0.181141259E+00
   H -0.362278550E+02  0.532659437E+01  0.387295929E+01
   H  0.351545068E+02 -0.284674725E+01 -0.314037783E+01
     4
 # iter = 69000  time[fs]=69.00000
   C -0.835207708E+01 -0.419444404E+00 -0.181190331E+00
   C  0.765053824E+01  0.170724562E+00  0.183518569E+00
   H -0.365928369E+02  0.538075111E+01  0.391240850E+01
   H  0.355076586E+02 -0.287519647E+01 -0.317226904E+01
     4
 # iter = 69500  time[fs]=69.50000
   C -0.844422777E+01 -0.424102916E+00 -0.183273490E+00
   C  0.773540132E+01  0.173327329E+00  0.185897424E+00
   H -0.369578820E+02  0.543491876E+01  0.395186553E+01
   H  0.358608778E+02 -0.290365215E+01 -0.320416729E+01
     4
 # iter = 70000  time[fs]=70.00000
   C -0.853642956E+01 -0.428763966E+00 -0.185358227E+00
   C  0.782031517E+01  0.175932268E+00  0.188277790E+00
   H -0.373229893E+02  0.548909710E+01  0.399133025E+01
   H  0.362141629E+02 -0.293211414E+01 -0.323607244E+01
     4
 # iter = 70500  time[fs]=70.50000
   C -0.862868135E+01 -0.433427503E+00 -0.187444509E+00
   C  0.790527869E+01  0.178539336E+00  0.190659640E+00
   H -0.376881574E+02  0.554328595E+01  0.403080251E+01
   H  0.365675129E+02 -0.296058234E+01 -0.326798437E+01
     4
 # iter = 71000  time[fs]=71.00000
   C -0.872098205E+01 -0.438093477E+00 -0.189532307E+00
   C  0.799029081E+01  0.181148491E+00  0.193042942E+00
   H -0.380533852E+02  0.559748510E+01  0.407028216E+01
   H  0.369209264E+02 -0.298905662E+01 -0.329990295E+01
     4
 # iter = 71500  time[fs]=71.50000
   C -0.881333063E+01 -0.442761842E+00 -0.191621591E+00
   C  0.807535050E+01  0.183759691E+00  0.195427669E+00
   H -0.384186716E+02  0.565169436E+01  0.410976908E+01
   H  0.372744022E+02 -0.301753689E+01 -0.333182805E+01
     4
 # iter = 72000  time[fs]=72.00000
   C -0.890572609E+01 -0.447432552E+00 -0.193712332E+00
   C  0.816045676E+01  0.186372897E+00  0.197813794E+00
   H -0.387840155E+02  0.570591355E+01  0.414926312E+01
   H  0.376279392E+02 -0.304602302E+01 -0.336375956E+01
     4
 # iter = 72500  time[fs]=72.50000
   C -0.899816745E+01 -0.452105560E+00 -0.195804503E+00
   C  0.824560861E+01  0.188988071E+00  0.200201289E+00
   H -0.391494158E+02  0.576014249E+01  0.418876416E+01
   H  0.379815363E+02 -0.307451491E+01 -0.339569736E+01
     4
 # iter = 73000  time[fs]=73.00000
   C -0.909065376E+01 -0.456780824E+00 -0.197898077E+00
   C  0.833080512E+01  0.191605174E+00  0.202590130E+00
   H -0.395148715E+02  0.581438099E+01  0.422827207E+01
   H  0.383351923E+02 -0.310301246E+01 -0.342764134E+01
     4
 # iter = 73500  time[fs]=73.50000
   C -0.918318411E+01 -0.461458301E+00 -0.199993026E+00
   C  0.841604538E+01  0.194224170E+00  0.204980289E+00
   H -0.398803816E+02  0.586862890E+01  0.426778673E+01
   H  0.386889062E+02 -0.313151557E+01 -0.345959139E+01
     4
 # iter = 74000  time[fs]=74.00000
   C -0.927575761E+01 -0.466137951E+00 -0.202089325E+00
   C  0.850132849E+01  0.196845023E+00  0.207371743E+00
   H -0.402459451E+02  0.592288604E+01  0.430730802E+01
   H  0.390426770E+02 -0.316002414E+01 -0.349154741E+01
     4
 # iter = 74500  time[fs]=74.50000
   C -0.936837338E+01 -0.470819732E+00 -0.204186950E+00
   C  0.858665360E+01  0.199467699E+00  0.209764468E+00
   H -0.406115611E+02  0.597715226E+01  0.434683583E+01
   H  0.393965036E+02 -0.318853807E+01 -0.352350929E+01
     4
 # iter = 75000  time[fs]=75.00000
   C -0.946103060E+01 -0.475503605E+00 -0.206285876E+00
   C  0.867201988E+01  0.202092165E+00  0.212158441E+00
   H -0.409772285E+02  0.603142739E+01  0.438637003E+01
   H  0.397503850E+02 -0.321705727E+01 -0.355547692E+01
     4
 # iter = 75500  time[fs]=75.50000
   C -0.955372845E+01 -0.480189534E+00 -0.208386079E+00
   C  0.875742652E+01  0.204718387E+00  0.214553639E+00
   H -0.413429466E+02  0.608571128E+01  0.442591053E+01
   H  0.401043203E+02 -0.324558166E+01 -0.358745022E+01
     4
 # iter = 76000  time[fs]=76.00000
   C -0.964646614E+01 -0.484877481E+00 -0.210487537E+00
   C  0.884287273E+01  0.207346334E+00  0.216950040E+00
   H -0.417087144E+02  0.614000378E+01  0.446545721E+01
   H  0.404583086E+02 -0.327411114E+01 -0.361942908E+01
     4
 # iter = 76500  time[fs]=76.50000
   C -0.973924290E+01 -0.489567409E+00 -0.212590228E+00
   C  0.892835774E+01  0.209975974E+00  0.219347623E+00
   H -0.420745310E+02  0.619430475E+01  0.450500996E+01
   H  0.408123489E+02 -0.330264563E+01 -0.365141342E+01
     4
 # iter = 77000  time[fs]=77.00000
   C -0.983205798E+01 -0.494259284E+00 -0.214694128E+00
   C  0.901388082E+01  0.212607278E+00  0.221746366E+00
   H -0.424403957E+02  0.624861404E+01  0.454456870E+01
   H  0.411664403E+02 -0.333118504E+01 -0.368340313E+01
     4
 # iter = 77500  time[fs]=77.50000
   C -0.992491066E+01 -0.498953072E+00 -0.216799218E+00
   C  0.909944124E+01  0.215240216E+00  0.224146250E+00
   H -0.428063077E+02  0.630293151E+01  0.458413331E+01
   H  0.415205821E+02 -0.335972930E+01 -0.371539814E+01
     4
 # iter = 78000  time[fs]=78.00000
   C -0.100178002E+02 -0.503648739E+00 -0.218905476E+00
   C  0.918503829E+01  0.217874760E+00  0.226547254E+00
   H -0.431722660E+02  0.635725704E+01  0.462370369E+01
   H  0.418747733E+02 -0.338827832E+01 -0.374739835E+01
     4
 # iter = 78500  time[fs]=78.50000
   C -0.101107260E+02 -0.508346253E+00 -0.221012882E+00
   C  0.927067131E+01  0.220510882E+00  0.228949359E+00
   H -0.435382700E+02  0.641159048E+01  0.466327977E+01
   H  0.422290130E+02 -0.341683202E+01 -0.377940368E+01
     4
 # iter = 79000  time[fs]=79.00000
   C -0.102036873E+02 -0.513045583E+00 -0.223121418E+00
   C  0.935633962E+01  0.223148554E+00  0.231352547E+00
   H -0.439043189E+02  0.646593171E+01  0.470286143E+01
   H  0.425833007E+02 -0.344539034E+01 -0.381141404E+01
     4
 # iter = 79500  time[fs]=79.50000
   C -0.102966835E+02 -0.517746697E+00 -0.225231063E+00
   C  0.944204258E+01  0.225787749E+00  0.233756800E+00
   H -0.442704119E+02  0.652028061E+01  0.474244860E+01
   H  0.429376353E+02 -0.347395319E+01 -0.384342937E+01
     4
 # iter = 80000  time[fs]=80.00000
   C -0.103897140E+02 -0.522449566E+00 -0.227341798E+00
   C  0.952777957E+01  0.228428444E+00  0.236162098E+00
   H -0.446365484E+02  0.657463704E+01  0.478204119E+01
   H  0.432920162E+02 -0.350252050E+01 -0.387544957E+01
