     4
 # iter = 25000  time[fs]=25.00000
   C -0.978826448E+00 -0.586186854E-01 -0.563573283E-02
   C  0.100453050E+01  0.201101750E-01  0.433223435E-02
   H -0.524579114E+01 -0.532318968E+00  0.465703571E+00
   H  0.532316425E+01  0.745318342E+00 -0.412941225E+00
     4
 # iter = 25500  time[fs]=25.50000
   C -0.102416394E+01 -0.588367441E-01 -0.673240297E-02
   C  0.104850030E+01  0.175446502E-01  0.572535679E-02
   H -0.557985087E+01 -0.564279778E+00  0.496122874E+00
   H  0.564033928E+01  0.789340897E+00 -0.440173296E+00
     4
 # iter = 26000  time[fs]=26.00000
   C -0.107246545E+01 -0.591538405E-01 -0.787411246E-02
   C  0.109548328E+01  0.150640351E-01  0.715227401E-02
   H -0.591960533E+01 -0.596840703E+00  0.527109634E+00
   H  0.596261913E+01  0.834133101E+00 -0.467837888E+00
     4
 # iter = 26500  time[fs]=26.50000
   C -0.112348473E+01 -0.595547380E-01 -0.905863649E-02
   C  0.114522482E+01  0.126542244E-01  0.861243041E-02
   H -0.626440584E+01 -0.629932315E+00  0.558599020E+00
   H  0.628945558E+01  0.879611953E+00 -0.495890202E+00
     4
 # iter = 27000  time[fs]=27.00000
   C -0.117699182E+01 -0.600263904E-01 -0.102838217E-01
   C  0.119748828E+01  0.103031999E-01  0.101050217E-01
   H -0.661370295E+01 -0.663496093E+00  0.590536348E+00
   H  0.662037923E+01  0.925706597E+00 -0.524291744E+00
     4
 # iter = 27500  time[fs]=27.50000
   C -0.123277432E+01 -0.605577101E-01 -0.115475704E-01
   C  0.125205591E+01  0.800080544E-02  0.116290517E-01
   H -0.696702810E+01 -0.697482338E+00  0.622875132E+00
   H  0.695498588E+01  0.972356154E+00 -0.553009242E+00
     4
 # iter = 28000  time[fs]=28.00000
   C -0.129063763E+01 -0.611393224E-01 -0.128478417E-01
   C  0.130872876E+01  0.573850914E-02  0.131833872E-01
   H -0.732397912E+01 -0.731848541E+00  0.655575560E+00
   H  0.729292547E+01  0.101950800E+01 -0.582013781E+00
     4
 # iter = 28500  time[fs]=28.50000
   C -0.135040454E+01 -0.617633263E-01 -0.141826588E-01
   C  0.136732606E+01  0.350917226E-02  0.147668061E-01
   H -0.768420870E+01 -0.766558102E+00  0.688603311E+00
   H  0.763389328E+01  0.106711639E+01 -0.611280093E+00
     4
 # iter = 29000  time[fs]=29.00000
   C -0.141191426E+01 -0.624230758E-01 -0.155501183E-01
   C  0.142768413E+01  0.130683788E-02  0.163780379E-01
   H -0.804741521E+01 -0.801579309E+00  0.721928604E+00
   H  0.797762270E+01  0.111514135E+01 -0.640785993E+00
     4
 # iter = 29500  time[fs]=29.50000
   C -0.147502138E+01 -0.631129843E-01 -0.169483985E-01
   C  0.148965512E+01 -0.873456654E-03  0.180157953E-01
   H -0.841333528E+01 -0.836884533E+00  0.755525455E+00
   H  0.832387938E+01  0.116354775E+01 -0.670511911E+00
     4
 # iter = 30000  time[fs]=30.00000
   C -0.153959457E+01 -0.638283557E-01 -0.183757652E-01
   C  0.155310568E+01 -0.303584217E-02  0.196787992E-01
   H -0.878173778E+01 -0.872449567E+00  0.789371065E+00
   H  0.867245641E+01  0.121230461E+01 -0.700440506E+00
     4
 # iter = 30500  time[fs]=30.50000
   C -0.160551533E+01 -0.645652393E-01 -0.198305755E-01
   C  0.161791563E+01 -0.518375616E-02  0.213657960E-01
   H -0.915241892E+01 -0.908253097E+00  0.823445329E+00
   H  0.902317032E+01  0.126138445E+01 -0.730556349E+00
     4
 # iter = 31000  time[fs]=31.00000
   C -0.167267677E+01 -0.653203082E-01 -0.213112787E-01
   C  0.168397664E+01 -0.732005947E-02  0.230755711E-01
   H -0.952519821E+01 -0.944276269E+00  0.857730439E+00
   H  0.937585778E+01  0.131076283E+01 -0.760845661E+00
     4
 # iter = 31500  time[fs]=31.50000
   C -0.174098242E+01 -0.660907558E-01 -0.228164160E-01
   C  0.175119103E+01 -0.944713392E-02  0.248069567E-01
   H -0.989991516E+01 -0.980502330E+00  0.892210546E+00
   H  0.973037287E+01  0.136041790E+01 -0.791296088E+00
     4
 # iter = 32000  time[fs]=32.00000
   C -0.181034517E+01 -0.668742110E-01 -0.243446187E-01
   C  0.181947065E+01 -0.115669635E-01  0.265588380E-01
   H -0.102764265E+02 -0.101691633E+01  0.926871494E+00
   H  0.100865847E+02  0.141033006E+01 -0.821896519E+00
     4
 # iter = 32500  time[fs]=32.50000
   C -0.188068628E+01 -0.676686662E-01 -0.258946047E-01
   C  0.188873588E+01 -0.136812017E-01  0.283301553E-01
   H -0.106546037E+02 -0.105350489E+01  0.961700585E+00
   H  0.104443756E+02  0.146048169E+01 -0.852636925E+00
     4
 # iter = 33000  time[fs]=33.00000
   C -0.195193451E+01 -0.684724188E-01 -0.274651750E-01
   C  0.195891470E+01 -0.157912274E-01  0.301199053E-01
   H -0.110343313E+02 -0.109025597E+01  0.996686391E+00
   H  0.108036392E+02  0.151085685E+01 -0.883508227E+00
     4
 # iter = 33500  time[fs]=33.50000
   C -0.202402527E+01 -0.692840214E-01 -0.290552093E-01
   C  0.202994185E+01 -0.178981906E-01  0.319271409E-01
   H -0.114155052E+02 -0.112715873E+01  0.103181859E+01
   H  0.111642794E+02  0.156144113E+01 -0.914502183E+00
     4
 # iter = 34000  time[fs]=34.00000
   C -0.209689995E+01 -0.701022413E-01 -0.306636616E-01
   C  0.210175815E+01 -0.200030509E-01  0.337509697E-01
   H -0.117980310E+02 -0.116420333E+01  0.106708784E+01
   H  0.115262088E+02  0.161222144E+01 -0.945611287E+00
     4
 # iter = 34500  time[fs]=34.50000
   C -0.217050527E+01 -0.709260267E-01 -0.322895555E-01
   C  0.217430982E+01 -0.221066088E-01  0.355905524E-01
   H -0.121818232E+02 -0.120138087E+01  0.110248563E+01
   H  0.118893479E+02  0.166318585E+01 -0.976828690E+00
     4
 # iter = 35000  time[fs]=35.00000
   C -0.224479271E+01 -0.717544783E-01 -0.339319797E-01
   C  0.224754788E+01 -0.242095319E-01  0.374451005E-01
   H -0.125668039E+02 -0.123868324E+01  0.113800424E+01
   H  0.122536242E+02  0.171432345E+01 -0.100814812E+01
     4
 # iter = 35500  time[fs]=35.50000
   C -0.231971803E+01 -0.725868256E-01 -0.355900836E-01
   C  0.232142771E+01 -0.263123763E-01  0.393138735E-01
   H -0.129529020E+02 -0.127610303E+01  0.117363658E+01
   H  0.126189711E+02  0.176562429E+01 -0.103956383E+01
     4
 # iter = 36000  time[fs]=36.00000
   C -0.239524079E+01 -0.734224077E-01 -0.372630730E-01
   C  0.239590852E+01 -0.284156050E-01  0.411961763E-01
   H -0.133400524E+02 -0.131363347E+01  0.120937618E+01
   H  0.129853279E+02  0.181707920E+01 -0.107107053E+01
     4
 # iter = 36500  time[fs]=36.50000
   C -0.247132398E+01 -0.742606564E-01 -0.389502062E-01
   C  0.247095301E+01 -0.305196023E-01  0.430913569E-01
   H -0.137281955E+02 -0.135126835E+01  0.124521710E+01
   H  0.133526386E+02  0.186867977E+01 -0.110266336E+01
     4
 # iter = 37000  time[fs]=37.00000
   C -0.254793369E+01 -0.751010829E-01 -0.406507898E-01
   C  0.254652697E+01 -0.326246867E-01  0.449988034E-01
   H -0.141172765E+02 -0.138900195E+01  0.128115385E+01
   H  0.137208516E+02  0.192041825E+01 -0.113433781E+01
     4
 # iter = 37500  time[fs]=37.50000
   C -0.262503876E+01 -0.759432656E-01 -0.423641755E-01
   C  0.262259902E+01 -0.347311211E-01  0.469179413E-01
   H -0.145072450E+02 -0.142682902E+01  0.131718140E+01
   H  0.140899193E+02  0.197228746E+01 -0.116608972E+01
     4
 # iter = 38000  time[fs]=38.00000
   C -0.270261054E+01 -0.767868410E-01 -0.440897569E-01
   C  0.269914027E+01 -0.368391216E-01  0.488482316E-01
   H -0.148980542E+02 -0.146474469E+01  0.135329507E+01
   H  0.144597977E+02  0.202428078E+01 -0.119791524E+01
     4
 # iter = 38500  time[fs]=38.50000
   C -0.278062262E+01 -0.776314950E-01 -0.458269658E-01
   C  0.277612415E+01 -0.389488644E-01  0.507891676E-01
   H -0.152896611E+02 -0.150274447E+01  0.138949056E+01
   H  0.148304462E+02  0.207639207E+01 -0.122981080E+01
     4
 # iter = 39000  time[fs]=39.00000
   C -0.285905064E+01 -0.784769563E-01 -0.475752699E-01
   C  0.285352609E+01 -0.410604926E-01  0.527402735E-01
   H -0.156820259E+02 -0.154082420E+01  0.142576386E+01
   H  0.152018269E+02  0.212861561E+01 -0.126177306E+01
     4
 # iter = 39500  time[fs]=39.50000
   C -0.293787208E+01 -0.793229900E-01 -0.493341702E-01
   C  0.293132343E+01 -0.431741208E-01  0.547011019E-01
   H -0.160751113E+02 -0.157898001E+01  0.146211125E+01
   H  0.155739045E+02  0.218094611E+01 -0.129379892E+01
     4
 # iter = 40000  time[fs]=40.00000
   C -0.301706609E+01 -0.801693929E-01 -0.511031978E-01
   C  0.300949518E+01 -0.452898397E-01  0.566712319E-01
   H -0.164688831E+02 -0.161720830E+01  0.149852926E+01
   H  0.159466465E+02  0.223337860E+01 -0.132588550E+01
     4
 # iter = 40500  time[fs]=40.50000
   C -0.309661335E+01 -0.810159892E-01 -0.528819128E-01
   C  0.308802188E+01 -0.474077195E-01  0.586502670E-01
   H -0.168633090E+02 -0.165550573E+01  0.153501466E+01
   H  0.163200222E+02  0.228590848E+01 -0.135803008E+01
     4
 # iter = 41000  time[fs]=41.00000
   C -0.317649592E+01 -0.818626267E-01 -0.546699010E-01
   C  0.316688548E+01 -0.495278135E-01  0.606378340E-01
   H -0.172583593E+02 -0.169386916E+01  0.157156445E+01
   H  0.166940032E+02  0.233853143E+01 -0.139023015E+01
     4
 # iter = 41500  time[fs]=41.50000
   C -0.325669712E+01 -0.827091739E-01 -0.564667732E-01
   C  0.324606918E+01 -0.516501602E-01  0.626335811E-01
   H -0.176540059E+02 -0.173229568E+01  0.160817579E+01
   H  0.170685628E+02  0.239124342E+01 -0.142248333E+01
     4
 # iter = 42000  time[fs]=42.00000
   C -0.333720141E+01 -0.835555169E-01 -0.582721624E-01
   C  0.332555735E+01 -0.537747860E-01  0.646371761E-01
   H -0.180502226E+02 -0.177078254E+01  0.164484606E+01
   H  0.174436759E+02  0.244404066E+01 -0.145478741E+01
     4
 # iter = 42500  time[fs]=42.50000
   C -0.341799431E+01 -0.844015575E-01 -0.600857230E-01
   C  0.340533543E+01 -0.559017066E-01  0.666483057E-01
   H -0.184469851E+02 -0.180932720E+01  0.168157277E+01
   H  0.178193193E+02  0.249691959E+01 -0.148714029E+01
     4
 # iter = 43000  time[fs]=43.00000
   C -0.349906232E+01 -0.852472109E-01 -0.619071286E-01
   C  0.348538983E+01 -0.580309292E-01  0.686666738E-01
   H -0.188442704E+02 -0.184792725E+01  0.171835360E+01
   H  0.181954709E+02  0.254987689E+01 -0.151954001E+01
     4
 # iter = 43500  time[fs]=43.50000
   C -0.358039279E+01 -0.860924042E-01 -0.637360713E-01
   C  0.356570783E+01 -0.601624532E-01  0.706920004E-01
   H -0.192420568E+02 -0.188658042E+01  0.175518637E+01
   H  0.185721101E+02  0.260290941E+01 -0.155198473E+01
     4
 # iter = 44000  time[fs]=44.00000
   C -0.366197391E+01 -0.869370746E-01 -0.655722600E-01
   C  0.364627754E+01 -0.622962721E-01  0.727240206E-01
   H -0.196403241E+02 -0.192528459E+01  0.179206902E+01
   H  0.189492173E+02  0.265601420E+01 -0.158447269E+01
     4
 # iter = 44500  time[fs]=44.50000
   C -0.374379460E+01 -0.877811687E-01 -0.674154195E-01
   C  0.372708782E+01 -0.644323740E-01  0.747624835E-01
   H -0.200390532E+02 -0.196403777E+01  0.182899961E+01
   H  0.193267743E+02  0.270918847E+01 -0.161700226E+01
     4
 # iter = 45000  time[fs]=45.00000
   C -0.382584447E+01 -0.886246406E-01 -0.692652892E-01
   C  0.380812823E+01 -0.665707425E-01  0.768071517E-01
   H -0.204382261E+02 -0.200283806E+01  0.186597631E+01
   H  0.197047637E+02  0.276242959E+01 -0.164957189E+01
     4
 # iter = 45500  time[fs]=45.50000
   C -0.390811376E+01 -0.894674514E-01 -0.711216223E-01
   C  0.388938895E+01 -0.687113578E-01  0.788577996E-01
   H -0.208378258E+02 -0.204168369E+01  0.190299740E+01
   H  0.200831693E+02  0.281573507E+01 -0.168218010E+01
     4
 # iter = 46000  time[fs]=46.00000
   C -0.399059330E+01 -0.903095685E-01 -0.729841848E-01
   C  0.397086077E+01 -0.708541968E-01  0.809142135E-01
   H -0.212378363E+02 -0.208057297E+01  0.194006124E+01
   H  0.204619756E+02  0.286910257E+01 -0.171482550E+01
     4
 # iter = 46500  time[fs]=46.50000
   C -0.407327446E+01 -0.911509643E-01 -0.748527547E-01
   C  0.405253500E+01 -0.729992342E-01  0.829761903E-01
   H -0.216382425E+02 -0.211950431E+01  0.197716630E+01
   H  0.208411679E+02  0.292252985E+01 -0.174750677E+01
     4
 # iter = 47000  time[fs]=47.00000
   C -0.415614911E+01 -0.919916160E-01 -0.767271213E-01
   C  0.413440347E+01 -0.751464424E-01  0.850435370E-01
   H -0.220390299E+02 -0.215847620E+01  0.201431110E+01
   H  0.212207325E+02  0.297601480E+01 -0.178022267E+01
     4
 # iter = 47500  time[fs]=47.50000
   C -0.423920958E+01 -0.928315050E-01 -0.786070843E-01
   C  0.421645847E+01 -0.772957924E-01  0.871160702E-01
   H -0.224401850E+02 -0.219748722E+01  0.205149425E+01
   H  0.216006563E+02  0.302955543E+01 -0.181297201E+01
     4
 # iter = 48000  time[fs]=48.00000
   C -0.432244863E+01 -0.936706162E-01 -0.804924532E-01
   C  0.429869273E+01 -0.794472539E-01  0.891936152E-01
   H -0.228416950E+02 -0.223653601E+01  0.208871445E+01
   H  0.219809267E+02  0.308314983E+01 -0.184575366E+01
     4
 # iter = 48500  time[fs]=48.50000
   C -0.440585942E+01 -0.945089376E-01 -0.823830470E-01
   C  0.438109937E+01 -0.816007954E-01  0.912760057E-01
   H -0.232435475E+02 -0.227562128E+01  0.212597044E+01
   H  0.223615320E+02  0.313679620E+01 -0.187856656E+01
     4
 # iter = 49000  time[fs]=49.00000
   C -0.448943548E+01 -0.953464601E-01 -0.842786930E-01
   C  0.446367190E+01 -0.837563849E-01  0.933630835E-01
   H -0.236457310E+02 -0.231474182E+01  0.216326104E+01
   H  0.227424610E+02  0.319049282E+01 -0.191140967E+01
     4
 # iter = 49500  time[fs]=49.50000
   C -0.457317070E+01 -0.961831771E-01 -0.861792270E-01
   C  0.454640416E+01 -0.859139897E-01  0.954546973E-01
   H -0.240482344E+02 -0.235389645E+01  0.220058510E+01
   H  0.231237029E+02  0.324423806E+01 -0.194428203E+01
     4
 # iter = 50000  time[fs]=50.00000
   C -0.465705927E+01 -0.970190838E-01 -0.880844921E-01
   C  0.462929032E+01 -0.880735769E-01  0.975507032E-01
   H -0.244510472E+02 -0.239308408E+01  0.223794156E+01
   H  0.235052477E+02  0.329803036E+01 -0.197718272E+01
     4
 # iter = 50500  time[fs]=50.50000
   C -0.474109569E+01 -0.978541778E-01 -0.899943390E-01
   C  0.471232486E+01 -0.902351134E-01  0.996509636E-01
   H -0.248541595E+02 -0.243230365E+01  0.227532939E+01
   H  0.238870855E+02  0.335186824E+01 -0.201011085E+01
     4
 # iter = 51000  time[fs]=51.00000
   C -0.482527475E+01 -0.986884579E-01 -0.919086248E-01
   C  0.479550254E+01 -0.923985658E-01  0.101755347E+00
   H -0.252575616E+02 -0.247155416E+01  0.231274761E+01
   H  0.242692072E+02  0.340575027E+01 -0.204306558E+01
     4
 # iter = 51500  time[fs]=51.50000
   C -0.490959149E+01 -0.995219246E-01 -0.938272131E-01
   C  0.487881838E+01 -0.945639011E-01  0.103863728E+00
   H -0.256612445E+02 -0.251083464E+01  0.235019528E+01
   H  0.246516040E+02  0.345967512E+01 -0.207604610E+01
     4
 # iter = 52000  time[fs]=52.00000
   C -0.499404120E+01 -0.100354580E+00 -0.957499738E-01
   C  0.496226764E+01 -0.967310861E-01  0.105975986E+00
   H -0.260651996E+02 -0.255014418E+01  0.238767152E+01
   H  0.250342674E+02  0.351364149E+01 -0.210905165E+01
     4
 # iter = 52500  time[fs]=52.50000
   C -0.507861941E+01 -0.101186426E+00 -0.976767819E-01
   C  0.504584584E+01 -0.989000883E-01  0.108092007E+00
   H -0.264694185E+02 -0.258948191E+01  0.242517547E+01
   H  0.254171895E+02  0.356764814E+01 -0.214208150E+01
     4
 # iter = 53000  time[fs]=53.00000
   C -0.516332184E+01 -0.102017467E+00 -0.996075184E-01
   C  0.512954868E+01 -0.101070875E+00  0.110211681E+00
   H -0.268738933E+02 -0.262884700E+01  0.246270631E+01
   H  0.258003624E+02  0.362169390E+01 -0.217513492E+01
     4
 # iter = 53500  time[fs]=53.50000
   C -0.524814443E+01 -0.102847707E+00 -0.101542069E+00
   C  0.521337208E+01 -0.103243414E+00  0.112334901E+00
   H -0.272786165E+02 -0.266823864E+01  0.250026328E+01
   H  0.261837790E+02  0.367577764E+01 -0.220821127E+01
     4
 # iter = 54000  time[fs]=54.00000
   C -0.533308332E+01 -0.103677152E+00 -0.103480324E+00
   C  0.529731216E+01 -0.105417674E+00  0.114461567E+00
   H -0.276835809E+02 -0.270765607E+01  0.253784561E+01
   H  0.265674320E+02  0.372989827E+01 -0.224130988E+01
     4
 # iter = 54500  time[fs]=54.50000
   C -0.541813482E+01 -0.104505808E+00 -0.105422179E+00
   C  0.538136522E+01 -0.107593623E+00  0.116591583E+00
   H -0.280887794E+02 -0.274709856E+01  0.257545260E+01
   H  0.269513149E+02  0.378405476E+01 -0.227443013E+01
     4
 # iter = 55000  time[fs]=55.00000
   C -0.550329539E+01 -0.105333681E+00 -0.107367533E+00
   C  0.546552770E+01 -0.109771231E+00  0.118724855E+00
   H -0.284942055E+02 -0.278656540E+01  0.261308356E+01
   H  0.273354211E+02  0.383824612E+01 -0.230757145E+01
     4
 # iter = 55500  time[fs]=55.50000
   C -0.558856167E+01 -0.106160779E+00 -0.109316290E+00
   C  0.554979623E+01 -0.111950467E+00  0.120861293E+00
   H -0.288998528E+02 -0.282605593E+01  0.265073784E+01
   H  0.277197445E+02  0.389247138E+01 -0.234073324E+01
     4
 # iter = 56000  time[fs]=56.00000
   C -0.567393045E+01 -0.106987108E+00 -0.111268356E+00
   C  0.563416758E+01 -0.114131301E+00  0.123000813E+00
   H -0.293057152E+02 -0.286556949E+01  0.268841479E+01
   H  0.281042790E+02  0.394672965E+01 -0.237391498E+01
     4
 # iter = 56500  time[fs]=56.50000
   C -0.575939865E+01 -0.107812676E+00 -0.113223644E+00
   C  0.571863865E+01 -0.116313705E+00  0.125143333E+00
   H -0.297117868E+02 -0.290510547E+01  0.272611382E+01
   H  0.284890191E+02  0.400102003E+01 -0.240711612E+01
     4
 # iter = 57000  time[fs]=57.00000
   C -0.584496332E+01 -0.108637492E+00 -0.115182067E+00
   C  0.580320651E+01 -0.118497649E+00  0.127288771E+00
   H -0.301180620E+02 -0.294466326E+01  0.276383434E+01
   H  0.288739592E+02  0.405534169E+01 -0.244033618E+01
     4
 # iter = 57500  time[fs]=57.50000
   C -0.593062165E+01 -0.109461563E+00 -0.117143542E+00
   C  0.588786831E+01 -0.120683105E+00  0.129437054E+00
   H -0.305245355E+02 -0.298424231E+01  0.280157579E+01
   H  0.292590940E+02  0.410969381E+01 -0.247357465E+01
     4
 # iter = 58000  time[fs]=58.00000
   C -0.601637094E+01 -0.110284898E+00 -0.119107992E+00
   C  0.597262134E+01 -0.122870046E+00  0.131588107E+00
   H -0.309312020E+02 -0.302384206E+01  0.283933764E+01
   H  0.296444186E+02  0.416407561E+01 -0.250683108E+01
     4
 # iter = 58500  time[fs]=58.50000
   C -0.610220859E+01 -0.111107506E+00 -0.121075340E+00
   C  0.605746301E+01 -0.125058444E+00  0.133741860E+00
   H -0.313380565E+02 -0.306346198E+01  0.287711936E+01
   H  0.300299279E+02  0.421848634E+01 -0.254010501E+01
     4
 # iter = 59000  time[fs]=59.00000
   C -0.618813214E+01 -0.111929395E+00 -0.123045512E+00
   C  0.614239083E+01 -0.127248274E+00  0.135898244E+00
   H -0.317450942E+02 -0.310310156E+01  0.291492047E+01
   H  0.304156175E+02  0.427292528E+01 -0.257339600E+01
     4
 # iter = 59500  time[fs]=59.50000
   C -0.627413920E+01 -0.112750573E+00 -0.125018437E+00
   C  0.622740241E+01 -0.129439508E+00  0.138057196E+00
   H -0.321523106E+02 -0.314276030E+01  0.295274047E+01
   H  0.308014826E+02  0.432739172E+01 -0.260670365E+01
     4
 # iter = 60000  time[fs]=60.00000
   C -0.636022748E+01 -0.113571050E+00 -0.126994049E+00
   C  0.631249544E+01 -0.131632122E+00  0.140218650E+00
   H -0.325597011E+02 -0.318243775E+01  0.299057891E+01
   H  0.311875190E+02  0.438188501E+01 -0.264002755E+01
     4
 # iter = 60500  time[fs]=60.50000
   C -0.644639478E+01 -0.114390835E+00 -0.128972281E+00
   C  0.639766774E+01 -0.133826091E+00  0.142382548E+00
   H -0.329672615E+02 -0.322213344E+01  0.302843534E+01
   H  0.315737226E+02  0.443640448E+01 -0.267336730E+01
     4
 # iter = 61000  time[fs]=61.00000
   C -0.653263901E+01 -0.115209936E+00 -0.130953070E+00
   C  0.648291718E+01 -0.136021389E+00  0.144548829E+00
   H -0.333749876E+02 -0.326184693E+01  0.306630933E+01
   H  0.319600891E+02  0.449094952E+01 -0.270672254E+01
     4
 # iter = 61500  time[fs]=61.50000
   C -0.661895812E+01 -0.116028363E+00 -0.132936354E+00
   C  0.656824172E+01 -0.138217995E+00  0.146717438E+00
   H -0.337828754E+02 -0.330157781E+01  0.310420046E+01
   H  0.323466149E+02  0.454551952E+01 -0.274009291E+01
     4
 # iter = 62000  time[fs]=62.00000
   C -0.670535018E+01 -0.116846123E+00 -0.134922076E+00
   C  0.665363941E+01 -0.140415884E+00  0.148888319E+00
   H -0.341909212E+02 -0.334132565E+01  0.314210834E+01
   H  0.327332961E+02  0.460011390E+01 -0.277347804E+01
     4
 # iter = 62500  time[fs]=62.50000
   C -0.679181330E+01 -0.117663227E+00 -0.136910177E+00
   C  0.673910837E+01 -0.142615033E+00  0.151061421E+00
   H -0.345991212E+02 -0.338109008E+01  0.318003257E+01
   H  0.331201290E+02  0.465473210E+01 -0.280687762E+01
     4
 # iter = 63000  time[fs]=63.00000
   C -0.687834567E+01 -0.118479682E+00 -0.138900604E+00
   C  0.682464677E+01 -0.144815421E+00  0.153236691E+00
   H -0.350074717E+02 -0.342087070E+01  0.321797279E+01
   H  0.335071102E+02  0.470937358E+01 -0.284029130E+01
     4
 # iter = 63500  time[fs]=63.50000
   C -0.696494556E+01 -0.119295498E+00 -0.140893302E+00
   C  0.691025288E+01 -0.147017025E+00  0.155414081E+00
   H -0.354159695E+02 -0.346066715E+01  0.325592863E+01
   H  0.338942363E+02  0.476403781E+01 -0.287371877E+01
     4
 # iter = 64000  time[fs]=64.00000
   C -0.705161128E+01 -0.120110683E+00 -0.142888222E+00
   C  0.699592501E+01 -0.149219824E+00  0.157593542E+00
   H -0.358246110E+02 -0.350047907E+01  0.329389975E+01
   H  0.342815040E+02  0.481872428E+01 -0.290715974E+01
     4
 # iter = 64500  time[fs]=64.50000
   C -0.713834123E+01 -0.120925246E+00 -0.144885312E+00
   C  0.708166153E+01 -0.151423797E+00  0.159775030E+00
   H -0.362333931E+02 -0.354030612E+01  0.333188581E+01
   H  0.346689102E+02  0.487343251E+01 -0.294061390E+01
     4
 # iter = 65000  time[fs]=65.00000
   C -0.722513384E+01 -0.121739195E+00 -0.146884525E+00
   C  0.716746089E+01 -0.153628925E+00  0.161958499E+00
   H -0.366423127E+02 -0.358014797E+01  0.336988647E+01
   H  0.350564518E+02  0.492816202E+01 -0.297408097E+01
     4
 # iter = 65500  time[fs]=65.50000
   C -0.731198760E+01 -0.122552538E+00 -0.148885815E+00
   C  0.725332157E+01 -0.155835187E+00  0.164143905E+00
   H -0.370513667E+02 -0.362000430E+01  0.340790143E+01
   H  0.354441258E+02  0.498291235E+01 -0.300756068E+01
     4
 # iter = 66000  time[fs]=66.00000
   C -0.739890107E+01 -0.123365284E+00 -0.150889136E+00
   C  0.733924212E+01 -0.158042564E+00  0.166331209E+00
   H -0.374605522E+02 -0.365987479E+01  0.344593038E+01
   H  0.358319294E+02  0.503768305E+01 -0.304105275E+01
     4
 # iter = 66500  time[fs]=66.50000
   C -0.748587284E+01 -0.124177442E+00 -0.152894446E+00
   C  0.742522113E+01 -0.160251036E+00  0.168520367E+00
   H -0.378698663E+02 -0.369975914E+01  0.348397302E+01
   H  0.362198598E+02  0.509247370E+01 -0.307455692E+01
     4
 # iter = 67000  time[fs]=67.00000
   C -0.757290157E+01 -0.124989019E+00 -0.154901701E+00
   C  0.751125724E+01 -0.162460586E+00  0.170711343E+00
   H -0.382793065E+02 -0.373965706E+01  0.352202907E+01
   H  0.366079143E+02  0.514728388E+01 -0.310807295E+01
     4
 # iter = 67500  time[fs]=67.50000
   C -0.765998593E+01 -0.125800023E+00 -0.156910861E+00
   C  0.759734913E+01 -0.164671194E+00  0.172904097E+00
   H -0.386888698E+02 -0.377956826E+01  0.356009824E+01
   H  0.369960904E+02  0.520211319E+01 -0.314160059E+01
     4
 # iter = 68000  time[fs]=68.00000
   C -0.774712467E+01 -0.126610462E+00 -0.158921886E+00
   C  0.768349555E+01 -0.166882845E+00  0.175098592E+00
   H -0.390985539E+02 -0.381949248E+01  0.359818027E+01
   H  0.373843854E+02  0.525696122E+01 -0.317513960E+01
     4
 # iter = 68500  time[fs]=68.50000
   C -0.783431657E+01 -0.127420344E+00 -0.160934739E+00
   C  0.776969526E+01 -0.169095519E+00  0.177294794E+00
   H -0.395083563E+02 -0.385942945E+01  0.363627490E+01
   H  0.377727969E+02  0.531182761E+01 -0.320868977E+01
     4
 # iter = 69000  time[fs]=69.00000
   C -0.792156043E+01 -0.128229677E+00 -0.162949381E+00
   C  0.785594707E+01 -0.171309200E+00  0.179492667E+00
   H -0.399182744E+02 -0.389937890E+01  0.367438188E+01
   H  0.381613227E+02  0.536671198E+01 -0.324225085E+01
     4
 # iter = 69500  time[fs]=69.50000
   C -0.800885512E+01 -0.129038469E+00 -0.164965776E+00
   C  0.794224985E+01 -0.173523872E+00  0.181692178E+00
   H -0.403283059E+02 -0.393934059E+01  0.371250095E+01
   H  0.385499603E+02  0.542161397E+01 -0.327582264E+01
     4
 # iter = 70000  time[fs]=70.00000
   C -0.809619954E+01 -0.129846726E+00 -0.166983890E+00
   C  0.802860247E+01 -0.175739519E+00  0.183893293E+00
   H -0.407384487E+02 -0.397931428E+01  0.375063187E+01
   H  0.389387076E+02  0.547653324E+01 -0.330940493E+01
     4
 # iter = 70500  time[fs]=70.50000
   C -0.818359259E+01 -0.130654456E+00 -0.169003688E+00
   C  0.811500385E+01 -0.177956123E+00  0.186095983E+00
   H -0.411487004E+02 -0.401929973E+01  0.378877443E+01
   H  0.393275623E+02  0.553146946E+01 -0.334299752E+01
     4
 # iter = 71000  time[fs]=71.00000
   C -0.827103326E+01 -0.131461667E+00 -0.171025138E+00
   C  0.820145297E+01 -0.180173671E+00  0.188300215E+00
   H -0.415590589E+02 -0.405929671E+01  0.382692839E+01
   H  0.397165224E+02  0.558642228E+01 -0.337660020E+01
     4
 # iter = 71500  time[fs]=71.50000
   C -0.835852052E+01 -0.132268365E+00 -0.173048207E+00
   C  0.828794881E+01 -0.182392147E+00  0.190505959E+00
   H -0.419695221E+02 -0.409930500E+01  0.386509353E+01
   H  0.401055859E+02  0.564139140E+01 -0.341021279E+01
     4
 # iter = 72000  time[fs]=72.00000
   C -0.844605341E+01 -0.133074558E+00 -0.175072864E+00
   C  0.837449038E+01 -0.184611536E+00  0.192713188E+00
   H -0.423800881E+02 -0.413932438E+01  0.390326964E+01
   H  0.404947507E+02  0.569637651E+01 -0.344383510E+01
     4
 # iter = 72500  time[fs]=72.50000
   C -0.853363098E+01 -0.133880252E+00 -0.177099079E+00
   C  0.846107675E+01 -0.186831824E+00  0.194921872E+00
   H -0.427907549E+02 -0.417935464E+01  0.394145651E+01
   H  0.408840149E+02  0.575137730E+01 -0.347746694E+01
     4
 # iter = 73000  time[fs]=73.00000
   C -0.862125232E+01 -0.134685455E+00 -0.179126822E+00
   C  0.854770698E+01 -0.189052996E+00  0.197131984E+00
   H -0.432015205E+02 -0.421939558E+01  0.397965395E+01
   H  0.412733767E+02  0.580639348E+01 -0.351110815E+01
     4
 # iter = 73500  time[fs]=73.50000
   C -0.870891652E+01 -0.135490173E+00 -0.181156065E+00
   C  0.863438020E+01 -0.191275039E+00  0.199343497E+00
   H -0.436123831E+02 -0.425944700E+01  0.401786176E+01
   H  0.416628342E+02  0.586142477E+01 -0.354475854E+01
     4
 # iter = 74000  time[fs]=74.00000
   C -0.879662273E+01 -0.136294412E+00 -0.183186780E+00
   C  0.872109552E+01 -0.193497939E+00  0.201556386E+00
   H -0.440233409E+02 -0.429950871E+01  0.405607974E+01
   H  0.420523857E+02  0.591647090E+01 -0.357841796E+01
     4
 # iter = 74500  time[fs]=74.50000
   C -0.888437012E+01 -0.137098180E+00 -0.185218939E+00
   C  0.880785212E+01 -0.195721683E+00  0.203770626E+00
   H -0.444343921E+02 -0.433958052E+01  0.409430772E+01
   H  0.424420293E+02  0.597153159E+01 -0.361208623E+01
     4
 # iter = 75000  time[fs]=75.00000
   C -0.897215786E+01 -0.137901482E+00 -0.187252517E+00
   C  0.889464918E+01 -0.197946258E+00  0.205986191E+00
   H -0.448455351E+02 -0.437966225E+01  0.413254552E+01
   H  0.428317636E+02  0.602660658E+01 -0.364576321E+01
     4
 # iter = 75500  time[fs]=75.50000
   C -0.905998517E+01 -0.138704324E+00 -0.189287488E+00
   C  0.898148590E+01 -0.200171651E+00  0.208203057E+00
   H -0.452567681E+02 -0.441975372E+01  0.417079295E+01
   H  0.432215868E+02  0.608169562E+01 -0.367944874E+01
     4
 # iter = 76000  time[fs]=76.00000
   C -0.914785128E+01 -0.139506714E+00 -0.191323826E+00
   C  0.906836151E+01 -0.202397850E+00  0.210421203E+00
   H -0.456680896E+02 -0.445985475E+01  0.420904985E+01
   H  0.436114973E+02  0.613679845E+01 -0.371314266E+01
     4
 # iter = 76500  time[fs]=76.50000
   C -0.923575545E+01 -0.140308656E+00 -0.193361508E+00
   C  0.915527527E+01 -0.204624843E+00  0.212640604E+00
   H -0.460794980E+02 -0.449996519E+01  0.424731605E+01
   H  0.440014936E+02  0.619191485E+01 -0.374684484E+01
     4
 # iter = 77000  time[fs]=77.00000
   C -0.932369694E+01 -0.141110157E+00 -0.195400510E+00
   C  0.924222644E+01 -0.206852617E+00  0.214861240E+00
   H -0.464909917E+02 -0.454008485E+01  0.428559139E+01
   H  0.443915741E+02  0.624704457E+01 -0.378055512E+01
     4
 # iter = 77500  time[fs]=77.50000
   C -0.941167507E+01 -0.141911223E+00 -0.197440809E+00
   C  0.932921433E+01 -0.209081162E+00  0.217083087E+00
   H -0.469025693E+02 -0.458021359E+01  0.432387572E+01
   H  0.447817375E+02  0.630218738E+01 -0.381427338E+01
     4
 # iter = 78000  time[fs]=78.00000
   C -0.949968913E+01 -0.142711860E+00 -0.199482382E+00
   C  0.941623825E+01 -0.211310465E+00  0.219306126E+00
   H -0.473142293E+02 -0.462035125E+01  0.436216888E+01
   H  0.451719823E+02  0.635734305E+01 -0.384799947E+01
     4
 # iter = 78500  time[fs]=78.50000
   C -0.958773846E+01 -0.143512073E+00 -0.201525207E+00
   C  0.950329752E+01 -0.213540516E+00  0.221530336E+00
   H -0.477259702E+02 -0.466049768E+01  0.440047072E+01
   H  0.455623071E+02  0.641251139E+01 -0.388173327E+01
     4
 # iter = 79000  time[fs]=79.00000
   C -0.967582242E+01 -0.144311867E+00 -0.203569263E+00
   C  0.959039149E+01 -0.215771303E+00  0.223755698E+00
   H -0.481377908E+02 -0.470065273E+01  0.443878109E+01
   H  0.459527105E+02  0.646769216E+01 -0.391547464E+01
     4
 # iter = 79500  time[fs]=79.50000
   C -0.976394038E+01 -0.145111249E+00 -0.205614530E+00
   C  0.967751955E+01 -0.218002817E+00  0.225982190E+00
   H -0.485496897E+02 -0.474081625E+01  0.447709986E+01
   H  0.463431913E+02  0.652288516E+01 -0.394922346E+01
     4
 # iter = 80000  time[fs]=80.00000
   C -0.985209172E+01 -0.145910223E+00 -0.207660986E+00
   C  0.976468106E+01 -0.220235046E+00  0.228209796E+00
   H -0.489616655E+02 -0.478098810E+01  0.451542688E+01
   H  0.467337480E+02  0.657809019E+01 -0.398297961E+01
