     4
 # iter = 25000  time[fs]=25.00000
   C -0.983604437E+00  0.452744413E-01 -0.437991993E-01
   C  0.975791894E+00 -0.300612491E-01 -0.117798367E-01
   H -0.520881572E+01  0.402913760E+00  0.697723925E+00
   H  0.523682354E+01 -0.454156457E+00 -0.570475096E+00
     4
 # iter = 25500  time[fs]=25.50000
   C -0.102903418E+01  0.447252102E-01 -0.473788094E-01
   C  0.101746644E+01 -0.296956708E-01 -0.957755870E-02
   H -0.553691646E+01  0.424927076E+00  0.742543635E+00
   H  0.555062772E+01 -0.483010991E+00 -0.605737069E+00
     4
 # iter = 26000  time[fs]=26.00000
   C -0.107716748E+01  0.442708284E-01 -0.510275606E-01
   C  0.106184380E+01 -0.294220490E-01 -0.731389691E-02
   H -0.586769570E+01  0.447153870E+00  0.787770419E+00
   H  0.586711946E+01 -0.512113718E+00 -0.641313028E+00
     4
 # iter = 26500  time[fs]=26.50000
   C -0.112777884E+01  0.438986917E-01 -0.547439711E-01
   C  0.110869780E+01 -0.292279198E-01 -0.498929504E-02
   H -0.620085573E+01  0.469569544E+00  0.833358532E+00
   H  0.618600903E+01 -0.541438353E+00 -0.677169687E+00
     4
 # iter = 27000  time[fs]=27.00000
   C -0.118065925E+01  0.435978999E-01 -0.585260634E-01
   C  0.115781896E+01 -0.291025283E-01 -0.260488198E-02
   H -0.653614489E+01  0.492153467E+00  0.879269515E+00
   H  0.650705020E+01 -0.570962526E+00 -0.713278766E+00
     4
 # iter = 27500  time[fs]=27.50000
   C -0.123561657E+01  0.433590718E-01 -0.623715024E-01
   C  0.120901488E+01 -0.290366373E-01 -0.162291468E-03
   H -0.687334871E+01  0.514888179E+00  0.925470725E+00
   H  0.683003205E+01 -0.600667045E+00 -0.749616043E+00
     4
 # iter = 28000  time[fs]=28.00000
   C -0.129247535E+01  0.431741561E-01 -0.662777161E-01
   C  0.126210989E+01 -0.290223348E-01  0.233649075E-02
   H -0.721228297E+01  0.537758773E+00  0.971934224E+00
   H  0.715477263E+01 -0.630535332E+00 -0.786160612E+00
     4
 # iter = 28500  time[fs]=28.50000
   C -0.135107605E+01  0.430362529E-01 -0.702419970E-01
   C  0.131694436E+01 -0.290528540E-01  0.488925113E-02
   H -0.755278840E+01  0.560752430E+00  0.101863592E+01
   H  0.748111398E+01 -0.660552973E+00 -0.822894308E+00
     4
 # iter = 29000  time[fs]=29.00000
   C -0.141127405E+01  0.429394509E-01 -0.742615813E-01
   C  0.137337361E+01 -0.291224089E-01  0.749364611E-02
   H -0.789472638E+01  0.583858046E+00  0.106555488E+01
   H  0.780891814E+01 -0.690707359E+00 -0.859801249E+00
     4
 # iter = 29500  time[fs]=29.50000
   C -0.147293855E+01  0.428786826E-01 -0.783337100E-01
   C  0.143126682E+01 -0.292260498E-01  0.101472768E-01
   H -0.823797559E+01  0.607065946E+00  0.111267283E+01
   H  0.813806394E+01 -0.720987401E+00 -0.896867469E+00
     4
 # iter = 30000  time[fs]=30.00000
   C -0.153595133E+01  0.428495984E-01 -0.824556740E-01
   C  0.149050580E+01 -0.293595370E-01  0.128477447E-01
   H -0.858242925E+01  0.630367646E+00  0.115997369E+01
   H  0.846844444E+01 -0.751383296E+00 -0.934080625E+00
     4
 # iter = 30500  time[fs]=30.50000
   C -0.160020565E+01  0.428484582E-01 -0.866248451E-01
   C  0.155098383E+01 -0.295192329E-01  0.155926916E-01
   H -0.892799294E+01  0.653755667E+00  0.120744326E+01
   H  0.879996478E+01 -0.781886336E+00 -0.971429750E+00
     4
 # iter = 31000  time[fs]=31.00000
   C -0.166560508E+01  0.428720394E-01 -0.908386982E-01
   C  0.161260452E+01 -0.297020102E-01  0.183798278E-01
   H -0.927458277E+01  0.677223387E+00  0.125506892E+01
   H  0.913254048E+01 -0.812488754E+00 -0.100890506E+01
     4
 # iter = 31500  time[fs]=31.50000
   C -0.173206245E+01  0.429175580E-01 -0.950948234E-01
   C  0.167528080E+01 -0.299051737E-01  0.212069508E-01
   H -0.962212388E+01  0.700764913E+00  0.130283944E+01
   H  0.946609598E+01 -0.843183593E+00 -0.104649780E+01
     4
 # iter = 32000  time[fs]=32.00000
   C -0.179949896E+01  0.429826029E-01 -0.993909342E-01
   C  0.173893389E+01 -0.301263946E-01  0.240719564E-01
   H -0.997054922E+01  0.724374976E+00  0.135074472E+01
   H  0.980056344E+01 -0.873964597E+00 -0.108420007E+01
     4
 # iter = 32500  time[fs]=32.50000
   C -0.186784323E+01  0.430650803E-01 -0.103724869E+00
   C  0.180349250E+01 -0.303636557E-01  0.269728457E-01
   H -0.103197985E+02  0.748048852E+00  0.139877573E+01
   H  0.101358817E+02 -0.904826121E+00 -0.112200477E+01
     4
 # iter = 33000  time[fs]=33.00000
   C -0.193703056E+01  0.431631664E-01 -0.108094593E+00
   C  0.186889200E+01 -0.306152045E-01  0.299077270E-01
   H -0.106698173E+02  0.771782285E+00  0.144692426E+01
   H  0.104719956E+02 -0.935763054E+00 -0.115990545E+01
     4
 # iter = 33500  time[fs]=33.50000
   C -0.200700219E+01  0.432752683E-01 -0.112498191E+00
   C  0.193507370E+01 -0.308795144E-01  0.328748157E-01
   H -0.110205563E+02  0.795571429E+00  0.149518293E+01
   H  0.108088550E+02 -0.966770755E+00 -0.119789625E+01
     4
 # iter = 34000  time[fs]=34.00000
   C -0.207770472E+01  0.433999906E-01 -0.116933868E+00
   C  0.200198427E+01 -0.311552516E-01  0.358724320E-01
   H -0.113719709E+02  0.819412798E+00  0.154354500E+01
   H  0.111464142E+02 -0.997844996E+00 -0.123597185E+01
     4
 # iter = 34500  time[fs]=34.50000
   C -0.214908950E+01  0.435361073E-01 -0.121399940E+00
   C  0.206957513E+01 -0.314412481E-01  0.388989972E-01
   H -0.117240203E+02  0.843303221E+00  0.159200435E+01
   H  0.114846317E+02 -0.102898192E+01 -0.127412735E+01
     4
 # iter = 35000  time[fs]=35.00000
   C -0.222111215E+01  0.436825385E-01 -0.125894833E+00
   C  0.213780198E+01 -0.317364773E-01  0.419530298E-01
   H -0.120766673E+02  0.867239807E+00  0.164055537E+01
   H  0.118234696E+02 -0.106017798E+01 -0.131235830E+01
     4
 # iter = 35500  time[fs]=35.50000
   C -0.229373214E+01  0.438383299E-01 -0.130417070E+00
   C  0.220662434E+01 -0.320400353E-01  0.450331400E-01
   H -0.124298779E+02  0.891219912E+00  0.168919294E+01
   H  0.121628929E+02 -0.109142993E+01 -0.135066060E+01
     4
 # iter = 36000  time[fs]=36.00000
   C -0.236691235E+01  0.440026361E-01 -0.134965271E+00
   C  0.227600516E+01 -0.323511236E-01  0.481380248E-01
   H -0.127836208E+02  0.915241111E+00  0.173791235E+01
   H  0.125028696E+02 -0.112273480E+01 -0.138903046E+01
     4
 # iter = 36500  time[fs]=36.50000
   C -0.244061877E+01  0.441747063E-01 -0.139538144E+00
   C  0.234591050E+01 -0.326690353E-01  0.512664630E-01
   H -0.131378673E+02  0.939301176E+00  0.178670926E+01
   H  0.128433703E+02 -0.115408982E+01 -0.142746440E+01
     4
 # iter = 37000  time[fs]=37.00000
   C -0.251482017E+01  0.443538715E-01 -0.144134478E+00
   C  0.241630917E+01 -0.329931426E-01  0.544173100E-01
   H -0.134925908E+02  0.963398055E+00  0.183557966E+01
   H  0.131843677E+02 -0.118549245E+01 -0.146595921E+01
     4
 # iter = 37500  time[fs]=37.50000
   C -0.258948781E+01  0.445395345E-01 -0.148753142E+00
   C  0.248717251E+01 -0.333228869E-01  0.575894925E-01
   H -0.138477670E+02  0.987529854E+00  0.188451986E+01
   H  0.135258365E+02 -0.121694032E+01 -0.150451188E+01
     4
 # iter = 38000  time[fs]=38.00000
   C -0.266459522E+01  0.447311608E-01 -0.153393074E+00
   C  0.255847410E+01 -0.336577701E-01  0.607820043E-01
   H -0.142033730E+02  0.101169482E+01  0.193352643E+01
   H  0.138677536E+02 -0.124843126E+01 -0.154311966E+01
     4
 # iter = 38500  time[fs]=38.50000
   C -0.274011799E+01  0.449282706E-01 -0.158053280E+00
   C  0.263018957E+01 -0.339973464E-01  0.639939011E-01
   H -0.145593880E+02  0.103589133E+01  0.198259619E+01
   H  0.142100972E+02 -0.127996322E+01 -0.158177996E+01
     4
 # iter = 39000  time[fs]=39.00000
   C -0.281603354E+01  0.451304327E-01 -0.162732827E+00
   C  0.270229641E+01 -0.343412165E-01  0.672242968E-01
   H -0.149157923E+02  0.106011788E+01  0.203172619E+01
   H  0.145528472E+02 -0.131153432E+01 -0.162049039E+01
     4
 # iter = 39500  time[fs]=39.50000
   C -0.289232098E+01  0.453372581E-01 -0.167430841E+00
   C  0.277477378E+01 -0.346890219E-01  0.704723590E-01
   H -0.152725679E+02  0.108437306E+01  0.208091367E+01
   H  0.148959848E+02 -0.134314280E+01 -0.165924870E+01
     4
 # iter = 40000  time[fs]=40.00000
   C -0.296896096E+01  0.455483955E-01 -0.172146498E+00
   C  0.284760236E+01 -0.350404397E-01  0.737373055E-01
   H -0.156296977E+02  0.110865556E+01  0.213015605E+01
   H  0.152394926E+02 -0.137478699E+01 -0.169805280E+01
     4
 # iter = 40500  time[fs]=40.50000
   C -0.304593550E+01  0.457635269E-01 -0.176879027E+00
   C  0.292076422E+01 -0.353951787E-01  0.770184008E-01
   H -0.159871659E+02  0.113296417E+01  0.217945094E+01
   H  0.155833542E+02 -0.140646536E+01 -0.173690074E+01
     4
 # iter = 41000  time[fs]=41.00000
   C -0.312322789E+01  0.459823639E-01 -0.181627701E+00
   C  0.299424269E+01 -0.357529761E-01  0.803149529E-01
   H -0.163449578E+02  0.115729775E+01  0.222879610E+01
   H  0.159275542E+02 -0.143817647E+01 -0.177579067E+01
     4
 # iter = 41500  time[fs]=41.50000
   C -0.320082258E+01  0.462046443E-01 -0.186391837E+00
   C  0.306802227E+01 -0.361135935E-01  0.836263098E-01
   H -0.167030595E+02  0.118165523E+01  0.227818940E+01
   H  0.162720784E+02 -0.146991895E+01 -0.181472088E+01
     4
 # iter = 42000  time[fs]=42.00000
   C -0.327870508E+01  0.464301292E-01 -0.191170790E+00
   C  0.314208850E+01 -0.364768149E-01  0.869518574E-01
   H -0.170614581E+02  0.120603560E+01  0.232762889E+01
   H  0.166169133E+02 -0.150169154E+01 -0.185368975E+01
     4
 # iter = 42500  time[fs]=42.50000
   C -0.335686184E+01  0.466586008E-01 -0.195963953E+00
   C  0.321642789E+01 -0.368424441E-01  0.902910164E-01
   H -0.174201413E+02  0.123043794E+01  0.237711269E+01
   H  0.169620462E+02 -0.153349303E+01 -0.189269575E+01
     4
 # iter = 43000  time[fs]=43.00000
   C -0.343528024E+01  0.468898601E-01 -0.200770754E+00
   C  0.329102782E+01 -0.372103024E-01  0.936432400E-01
   H -0.177790977E+02  0.125486135E+01  0.242663906E+01
   H  0.173074653E+02 -0.156532231E+01 -0.193173744E+01
     4
 # iter = 43500  time[fs]=43.50000
   C -0.351394844E+01  0.471237248E-01 -0.205590652E+00
   C  0.336587650E+01 -0.375802268E-01  0.970080119E-01
   H -0.181383164E+02  0.127930500E+01  0.247620636E+01
   H  0.176531594E+02 -0.159717830E+01 -0.197081348E+01
     4
 # iter = 44000  time[fs]=44.00000
   C -0.359285535E+01  0.473600276E-01 -0.210423135E+00
   C  0.344096289E+01 -0.379520687E-01  0.100384844E+00
   H -0.184977874E+02  0.130376812E+01  0.252581304E+01
   H  0.179991178E+02 -0.162906001E+01 -0.200992259E+01
     4
 # iter = 44500  time[fs]=44.50000
   C -0.367199060E+01  0.475986151E-01 -0.215267721E+00
   C  0.351627662E+01 -0.383256919E-01  0.103773274E+00
   H -0.188575010E+02  0.132824997E+01  0.257545762E+01
   H  0.183453307E+02 -0.166096647E+01 -0.204906355E+01
     4
 # iter = 45000  time[fs]=45.00000
   C -0.375134441E+01  0.478393459E-01 -0.220123953E+00
   C  0.359180797E+01 -0.387009719E-01  0.107172866E+00
   H -0.192174483E+02  0.135274985E+01  0.262513872E+01
   H  0.186917887E+02 -0.169289681E+01 -0.208823523E+01
     4
 # iter = 45500  time[fs]=45.50000
   C -0.383090762E+01  0.480820899E-01 -0.224991396E+00
   C  0.366754779E+01 -0.390777944E-01  0.110583205E+00
   H -0.195776205E+02  0.137726709E+01  0.267485504E+01
   H  0.190384827E+02 -0.172485017E+01 -0.212743654E+01
     4
 # iter = 46000  time[fs]=46.00000
   C -0.391067159E+01  0.483267270E-01 -0.229869642E+00
   C  0.374348748E+01 -0.394560542E-01  0.114003899E+00
   H -0.199380096E+02  0.140180108E+01  0.272460532E+01
   H  0.193854044E+02 -0.175682574E+01 -0.216666645E+01
     4
 # iter = 46500  time[fs]=46.50000
   C -0.399062821E+01  0.485731463E-01 -0.234758299E+00
   C  0.381961894E+01 -0.398356549E-01  0.117434575E+00
   H -0.202986080E+02  0.142635123E+01  0.277438839E+01
   H  0.197325458E+02 -0.178882276E+01 -0.220592399E+01
     4
 # iter = 47000  time[fs]=47.00000
   C -0.407076980E+01  0.488212450E-01 -0.239657000E+00
   C  0.389593453E+01 -0.402165075E-01  0.120874880E+00
   H -0.206594083E+02  0.145091697E+01  0.282420314E+01
   H  0.200798993E+02 -0.182084050E+01 -0.224520824E+01
     4
 # iter = 47500  time[fs]=47.50000
   C -0.415108913E+01  0.490709279E-01 -0.244565392E+00
   C  0.397242704E+01 -0.405985299E-01  0.124324478E+00
   H -0.210204037E+02  0.147549777E+01  0.287404850E+01
   H  0.204274577E+02 -0.185287829E+01 -0.228451832E+01
     4
 # iter = 48000  time[fs]=48.00000
   C -0.423157937E+01  0.493221069E-01 -0.249483142E+00
   C  0.404908966E+01 -0.409816464E-01  0.127783049E+00
   H -0.213815876E+02  0.150009313E+01  0.292392346E+01
   H  0.207752142E+02 -0.188493545E+01 -0.232385338E+01
     4
 # iter = 48500  time[fs]=48.50000
   C -0.431223407E+01  0.495746999E-01 -0.254409932E+00
   C  0.412591596E+01 -0.413657869E-01  0.131250289E+00
   H -0.217429537E+02  0.152470258E+01  0.297382707E+01
   H  0.211231622E+02 -0.191701138E+01 -0.236321264E+01
     4
 # iter = 49000  time[fs]=49.00000
   C -0.439304709E+01  0.498286307E-01 -0.259345462E+00
   C  0.420289983E+01 -0.417508868E-01  0.134725910E+00
   H -0.221044961E+02  0.154932564E+01  0.302375841E+01
   H  0.214712956E+02 -0.194910547E+01 -0.240259533E+01
     4
 # iter = 49500  time[fs]=49.50000
   C -0.447401267E+01  0.500838282E-01 -0.264289441E+00
   C  0.428003553E+01 -0.421368858E-01  0.138209636E+00
   H -0.224662093E+02  0.157396190E+01  0.307371661E+01
   H  0.218196084E+02 -0.198121715E+01 -0.244200072E+01
     4
 # iter = 50000  time[fs]=50.00000
   C -0.455512530E+01  0.503402263E-01 -0.269241597E+00
   C  0.435731756E+01 -0.425237284E-01  0.141701203E+00
   H -0.228280876E+02  0.159861092E+01  0.312370084E+01
   H  0.221680951E+02 -0.201334590E+01 -0.248142814E+01
     4
 # iter = 50500  time[fs]=50.50000
   C -0.463637977E+01  0.505977632E-01 -0.274201668E+00
   C  0.443474074E+01 -0.429113628E-01  0.145200362E+00
   H -0.231901262E+02  0.162327233E+01  0.317371031E+01
   H  0.225167502E+02 -0.204549118E+01 -0.252087691E+01
     4
 # iter = 51000  time[fs]=51.00000
   C -0.471777114E+01  0.508563812E-01 -0.279169404E+00
   C  0.451230015E+01 -0.432997410E-01  0.148706873E+00
   H -0.235523200E+02  0.164794573E+01  0.322374426E+01
   H  0.228655687E+02 -0.207765252E+01 -0.256034641E+01
     4
 # iter = 51500  time[fs]=51.50000
   C -0.479929472E+01  0.511160264E-01 -0.284144566E+00
   C  0.458999111E+01 -0.436888182E-01  0.152220507E+00
   H -0.239146643E+02  0.167263078E+01  0.327380196E+01
   H  0.232145457E+02 -0.210982943E+01 -0.259983603E+01
     4
 # iter = 52000  time[fs]=52.00000
   C -0.488094602E+01  0.513766482E-01 -0.289126928E+00
   C  0.466780915E+01 -0.440785529E-01  0.155741048E+00
   H -0.242771547E+02  0.169732712E+01  0.332388273E+01
   H  0.235636764E+02 -0.214202147E+01 -0.263934519E+01
     4
 # iter = 52500  time[fs]=52.50000
   C -0.496272081E+01  0.516381993E-01 -0.294116270E+00
   C  0.474575005E+01 -0.444689061E-01  0.159268285E+00
   H -0.246397870E+02  0.172203443E+01  0.337398590E+01
   H  0.239129564E+02 -0.217422821E+01 -0.267887335E+01
     4
 # iter = 53000  time[fs]=53.00000
   C -0.504461502E+01  0.519006353E-01 -0.299112385E+00
   C  0.482380976E+01 -0.448598418E-01  0.162802018E+00
   H -0.250025569E+02  0.174675239E+01  0.342411085E+01
   H  0.242623814E+02 -0.220644923E+01 -0.271841997E+01
     4
 # iter = 53500  time[fs]=53.50000
   C -0.512662479E+01  0.521639146E-01 -0.304115073E+00
   C  0.490198444E+01 -0.452513261E-01  0.166342058E+00
   H -0.253654606E+02  0.177148071E+01  0.347425695E+01
   H  0.246119474E+02 -0.223868413E+01 -0.275798454E+01
     4
 # iter = 54000  time[fs]=54.00000
   C -0.520874645E+01  0.524279979E-01 -0.309124143E+00
   C  0.498027043E+01 -0.456433274E-01  0.169888221E+00
   H -0.257284944E+02  0.179621908E+01  0.352442363E+01
   H  0.249616503E+02 -0.227093255E+01 -0.279756658E+01
     4
 # iter = 54500  time[fs]=54.50000
   C -0.529097647E+01  0.526928485E-01 -0.314139412E+00
   C  0.505866423E+01 -0.460358161E-01  0.173440331E+00
   H -0.260916546E+02  0.182096724E+01  0.357461033E+01
   H  0.253114864E+02 -0.230319410E+01 -0.283716562E+01
     4
 # iter = 55000  time[fs]=55.00000
   C -0.537331151E+01  0.529584316E-01 -0.319160705E+00
   C  0.513716248E+01 -0.464287647E-01  0.176998220E+00
   H -0.264549378E+02  0.184572491E+01  0.362481652E+01
   H  0.256614522E+02 -0.233546844E+01 -0.287678121E+01
     4
 # iter = 55500  time[fs]=55.50000
   C -0.545574835E+01  0.532247146E-01 -0.324187853E+00
   C  0.521576201E+01 -0.468221472E-01  0.180561728E+00
   H -0.268183407E+02  0.187049185E+01  0.367504168E+01
   H  0.260115440E+02 -0.236775524E+01 -0.291641292E+01
     4
 # iter = 56000  time[fs]=56.00000
   C -0.553828394E+01  0.534916668E-01 -0.329220696E+00
   C  0.529445975E+01 -0.472159394E-01  0.184130698E+00
   H -0.271818600E+02  0.189526781E+01  0.372528531E+01
   H  0.263617586E+02 -0.240005417E+01 -0.295606033E+01
     4
 # iter = 56500  time[fs]=56.50000
   C -0.562091533E+01  0.537592590E-01 -0.334259077E+00
   C  0.537325279E+01 -0.476101184E-01  0.187704982E+00
   H -0.275454928E+02  0.192005255E+01  0.377554693E+01
   H  0.267120928E+02 -0.243236492E+01 -0.299572305E+01
     4
 # iter = 57000  time[fs]=57.00000
   C -0.570363972E+01  0.540274638E-01 -0.339302847E+00
   C  0.545213832E+01 -0.480046629E-01  0.191284437E+00
   H -0.279092360E+02  0.194484584E+01  0.382582610E+01
   H  0.270625435E+02 -0.246468719E+01 -0.303540068E+01
     4
 # iter = 57500  time[fs]=57.50000
   C -0.578645443E+01  0.542962552E-01 -0.344351865E+00
   C  0.553111368E+01 -0.483995528E-01  0.194868927E+00
   H -0.282730869E+02  0.196964748E+01  0.387612237E+01
   H  0.274131076E+02 -0.249702069E+01 -0.307509287E+01
     4
 # iter = 58000  time[fs]=58.00000
   C -0.586935686E+01  0.545656089E-01 -0.349405991E+00
   C  0.561017629E+01 -0.487947691E-01  0.198458318E+00
   H -0.286370427E+02  0.199445724E+01  0.392643532E+01
   H  0.277637825E+02 -0.252936515E+01 -0.311479924E+01
     4
 # iter = 58500  time[fs]=58.50000
   C -0.595234456E+01  0.548355015E-01 -0.354465093E+00
   C  0.568932370E+01 -0.491902942E-01  0.202052484E+00
   H -0.290011009E+02  0.201927493E+01  0.397676453E+01
   H  0.281145653E+02 -0.256172030E+01 -0.315451947E+01
     4
 # iter = 59000  time[fs]=59.00000
   C -0.603541515E+01  0.551059110E-01 -0.359529044E+00
   C  0.576855354E+01 -0.495861114E-01  0.205651303E+00
   H -0.293652588E+02  0.204410035E+01  0.402710962E+01
   H  0.284654533E+02 -0.259408588E+01 -0.319425322E+01
     4
 # iter = 59500  time[fs]=59.50000
   C -0.611856635E+01  0.553768167E-01 -0.364597721E+00
   C  0.584786355E+01 -0.499822048E-01  0.209254656E+00
   H -0.297295141E+02  0.206893331E+01  0.407747020E+01
   H  0.288164441E+02 -0.262646164E+01 -0.323400016E+01
     4
 # iter = 60000  time[fs]=60.00000
   C -0.620179598E+01  0.556481988E-01 -0.369671006E+00
   C  0.592725155E+01 -0.503785596E-01  0.212862431E+00
   H -0.300938644E+02  0.209377364E+01  0.412784591E+01
   H  0.291675351E+02 -0.265884735E+01 -0.327376000E+01
     4
 # iter = 60500  time[fs]=60.50000
   C -0.628510194E+01  0.559200385E-01 -0.374748785E+00
   C  0.600671545E+01 -0.507751619E-01  0.216474517E+00
   H -0.304583074E+02  0.211862116E+01  0.417823639E+01
   H  0.295187240E+02 -0.269124277E+01 -0.331353242E+01
     4
 # iter = 61000  time[fs]=61.00000
   C -0.636848220E+01  0.561923181E-01 -0.379830947E+00
   C  0.608625324E+01 -0.511719984E-01  0.220090811E+00
   H -0.308228410E+02  0.214347569E+01  0.422864131E+01
   H  0.298700084E+02 -0.272364768E+01 -0.335331716E+01
     4
 # iter = 61500  time[fs]=61.50000
   C -0.645193484E+01  0.564650205E-01 -0.384917388E+00
   C  0.616586299E+01 -0.515690567E-01  0.223711209E+00
   H -0.311874631E+02  0.216833709E+01  0.427906033E+01
   H  0.302213863E+02 -0.275606186E+01 -0.339311392E+01
     4
 # iter = 62000  time[fs]=62.00000
   C -0.653545798E+01  0.567381299E-01 -0.390008004E+00
   C  0.624554284E+01 -0.519663250E-01  0.227335613E+00
   H -0.315521716E+02  0.219320519E+01  0.432949314E+01
   H  0.305728554E+02 -0.278848511E+01 -0.343292244E+01
     4
 # iter = 62500  time[fs]=62.50000
   C -0.661904982E+01  0.570116308E-01 -0.395102697E+00
   C  0.632529100E+01 -0.523637922E-01  0.230963930E+00
   H -0.319169646E+02  0.221807985E+01  0.437993943E+01
   H  0.309244136E+02 -0.282091722E+01 -0.347274247E+01
     4
 # iter = 63000  time[fs]=63.00000
   C -0.670270862E+01  0.572855087E-01 -0.400201372E+00
   C  0.640510574E+01 -0.527614478E-01  0.234596068E+00
   H -0.322818401E+02  0.224296090E+01  0.443039890E+01
   H  0.312760591E+02 -0.285335799E+01 -0.351257374E+01
     4
 # iter = 63500  time[fs]=63.50000
   C -0.678643273E+01  0.575597498E-01 -0.405303936E+00
   C  0.648498541E+01 -0.531592818E-01  0.238231938E+00
   H -0.326467963E+02  0.226784822E+01  0.448087126E+01
   H  0.316277897E+02 -0.288580725E+01 -0.355241602E+01
     4
 # iter = 64000  time[fs]=64.00000
   C -0.687022053E+01  0.578343408E-01 -0.410410301E+00
   C  0.656492840E+01 -0.535572848E-01  0.241871455E+00
   H -0.330118316E+02  0.229274167E+01  0.453135624E+01
   H  0.319796038E+02 -0.291826480E+01 -0.359226906E+01
     4
 # iter = 64500  time[fs]=64.50000
   C -0.695407048E+01  0.581092692E-01 -0.415520380E+00
   C  0.664493318E+01 -0.539554479E-01  0.245514536E+00
   H -0.333769440E+02  0.231764111E+01  0.458185356E+01
   H  0.323314994E+02 -0.295073048E+01 -0.363213266E+01
     4
 # iter = 65000  time[fs]=65.00000
   C -0.703798106E+01  0.583845229E-01 -0.420634091E+00
   C  0.672499824E+01 -0.543537628E-01  0.249161102E+00
   H -0.337421320E+02  0.234254641E+01  0.463236296E+01
   H  0.326834749E+02 -0.298320410E+01 -0.367200657E+01
     4
 # iter = 65500  time[fs]=65.50000
   C -0.712195085E+01  0.586600905E-01 -0.425751353E+00
   C  0.680512215E+01 -0.547522212E-01  0.252811075E+00
   H -0.341073940E+02  0.236745746E+01  0.468288420E+01
   H  0.330355285E+02 -0.301568551E+01 -0.371189059E+01
     4
 # iter = 66000  time[fs]=66.00000
   C -0.720597845E+01  0.589359610E-01 -0.430872088E+00
   C  0.688530353E+01 -0.551508158E-01  0.256464381E+00
   H -0.344727284E+02  0.239237412E+01  0.473341702E+01
   H  0.333876586E+02 -0.304817454E+01 -0.375178452E+01
     4
 # iter = 66500  time[fs]=66.50000
   C -0.729006250E+01  0.592121240E-01 -0.435996220E+00
   C  0.696554104E+01 -0.555495393E-01  0.260120947E+00
   H -0.348381337E+02  0.241729629E+01  0.478396120E+01
   H  0.337398636E+02 -0.308067103E+01 -0.379168815E+01
     4
 # iter = 67000  time[fs]=67.00000
   C -0.737420172E+01  0.594885695E-01 -0.441123677E+00
   C  0.704583338E+01 -0.559483848E-01  0.263780704E+00
   H -0.352036084E+02  0.244222386E+01  0.483451649E+01
   H  0.340921420E+02 -0.311317485E+01 -0.383160128E+01
     4
 # iter = 67500  time[fs]=67.50000
   C -0.745839483E+01  0.597652879E-01 -0.446254389E+00
   C  0.712617930E+01 -0.563473460E-01  0.267443583E+00
   H -0.355691511E+02  0.246715670E+01  0.488508267E+01
   H  0.344444922E+02 -0.314568583E+01 -0.387152373E+01
     4
 # iter = 68000  time[fs]=68.00000
   C -0.754264064E+01  0.600422701E-01 -0.451388286E+00
   C  0.720657759E+01 -0.567464166E-01  0.271109519E+00
   H -0.359347604E+02  0.249209472E+01  0.493565954E+01
   H  0.347969128E+02 -0.317820384E+01 -0.391145531E+01
     4
 # iter = 68500  time[fs]=68.50000
   C -0.762693795E+01  0.603195073E-01 -0.456525302E+00
   C  0.728702709E+01 -0.571455908E-01  0.274778448E+00
   H -0.363004351E+02  0.251703781E+01  0.498624687E+01
   H  0.351494025E+02 -0.321072874E+01 -0.395139585E+01
     4
 # iter = 69000  time[fs]=69.00000
   C -0.771128564E+01  0.605969912E-01 -0.461665373E+00
   C  0.736752665E+01 -0.575448630E-01  0.278450309E+00
   H -0.366661737E+02  0.254198587E+01  0.503684447E+01
   H  0.355019598E+02 -0.324326040E+01 -0.399134517E+01
     4
 # iter = 69500  time[fs]=69.50000
   C -0.779568260E+01  0.608747138E-01 -0.466808436E+00
   C  0.744807519E+01 -0.579442281E-01  0.282125040E+00
   H -0.370319752E+02  0.256693881E+01  0.508745214E+01
   H  0.358545835E+02 -0.327579868E+01 -0.403130311E+01
     4
 # iter = 70000  time[fs]=70.00000
   C -0.788012777E+01  0.611526673E-01 -0.471954431E+00
   C  0.752867164E+01 -0.583436809E-01  0.285802585E+00
   H -0.373978381E+02  0.259189654E+01  0.513806968E+01
   H  0.362072721E+02 -0.330834346E+01 -0.407126950E+01
     4
 # iter = 70500  time[fs]=70.50000
   C -0.796462012E+01  0.614308443E-01 -0.477103299E+00
   C  0.760931497E+01 -0.587432167E-01  0.289482887E+00
   H -0.377637613E+02  0.261685895E+01  0.518869690E+01
   H  0.365600246E+02 -0.334089462E+01 -0.411124418E+01
     4
 # iter = 71000  time[fs]=71.00000
   C -0.804915863E+01  0.617092379E-01 -0.482254983E+00
   C  0.769000420E+01 -0.591428310E-01  0.293165891E+00
   H -0.381297438E+02  0.264182596E+01  0.523933364E+01
   H  0.369128397E+02 -0.337345203E+01 -0.415122700E+01
     4
 # iter = 71500  time[fs]=71.50000
   C -0.813374235E+01  0.619878412E-01 -0.487409428E+00
   C  0.777073836E+01 -0.595425194E-01  0.296851544E+00
   H -0.384957843E+02  0.266679748E+01  0.528997969E+01
   H  0.372657161E+02 -0.340601559E+01 -0.419121780E+01
     4
 # iter = 72000  time[fs]=72.00000
   C -0.821837034E+01  0.622666478E-01 -0.492566579E+00
   C  0.785151651E+01 -0.599422779E-01  0.300539795E+00
   H -0.388618818E+02  0.269177343E+01  0.534063491E+01
   H  0.376186529E+02 -0.343858517E+01 -0.423121646E+01
     4
 # iter = 72500  time[fs]=72.50000
   C -0.830304168E+01  0.625456512E-01 -0.497726385E+00
   C  0.793233774E+01 -0.603421024E-01  0.304230593E+00
   H -0.392280353E+02  0.271675374E+01  0.539129912E+01
   H  0.379716487E+02 -0.347116067E+01 -0.427122281E+01
     4
 # iter = 73000  time[fs]=73.00000
   C -0.838775549E+01  0.628248456E-01 -0.502888795E+00
   C  0.801320118E+01 -0.607419893E-01  0.307923889E+00
   H -0.395942436E+02  0.274173831E+01  0.544197215E+01
   H  0.383247026E+02 -0.350374199E+01 -0.431123672E+01
     4
 # iter = 73500  time[fs]=73.50000
   C -0.847251091E+01  0.631042252E-01 -0.508053760E+00
   C  0.809410597E+01 -0.611419350E-01  0.311619636E+00
   H -0.399605058E+02  0.276672707E+01  0.549265385E+01
   H  0.386778135E+02 -0.353632901E+01 -0.435125806E+01
     4
 # iter = 74000  time[fs]=74.00000
   C -0.855730712E+01  0.633837845E-01 -0.513221230E+00
   C  0.817505129E+01 -0.615419362E-01  0.315317788E+00
   H -0.403268209E+02  0.279171995E+01  0.554334406E+01
   H  0.390309804E+02 -0.356892164E+01 -0.439128670E+01
     4
 # iter = 74500  time[fs]=74.50000
   C -0.864214329E+01  0.636635180E-01 -0.518391161E+00
   C  0.825603634E+01 -0.619419895E-01  0.319018301E+00
   H -0.406931880E+02  0.281671687E+01  0.559404264E+01
   H  0.393842022E+02 -0.360151977E+01 -0.443132252E+01
     4
 # iter = 75000  time[fs]=75.00000
   C -0.872701866E+01  0.639434206E-01 -0.523563506E+00
   C  0.833706032E+01 -0.623420920E-01  0.322721130E+00
   H -0.410596062E+02  0.284171776E+01  0.564474944E+01
   H  0.397374781E+02 -0.363412332E+01 -0.447136537E+01
     4
 # iter = 75500  time[fs]=75.50000
   C -0.881193245E+01  0.642234875E-01 -0.528738222E+00
   C  0.841812249E+01 -0.627422406E-01  0.326426234E+00
   H -0.414260745E+02  0.286672256E+01  0.569546431E+01
   H  0.400908070E+02 -0.366673218E+01 -0.451141515E+01
     4
 # iter = 76000  time[fs]=76.00000
   C -0.889688392E+01  0.645037138E-01 -0.533915264E+00
   C  0.849922211E+01 -0.631424326E-01  0.330133571E+00
   H -0.417925921E+02  0.289173119E+01  0.574618712E+01
   H  0.404441881E+02 -0.369934628E+01 -0.455147174E+01
     4
 # iter = 76500  time[fs]=76.50000
   C -0.898187237E+01  0.647840950E-01 -0.539094593E+00
   C  0.858035846E+01 -0.635426653E-01  0.333843101E+00
   H -0.421591581E+02  0.291674359E+01  0.579691773E+01
   H  0.407976203E+02 -0.373196551E+01 -0.459153502E+01
     4
 # iter = 77000  time[fs]=77.00000
   C -0.906689707E+01  0.650646267E-01 -0.544276166E+00
   C  0.866153084E+01 -0.639429362E-01  0.337554784E+00
   H -0.425257717E+02  0.294175969E+01  0.584765602E+01
   H  0.411511030E+02 -0.376458979E+01 -0.463160488E+01
     4
 # iter = 77500  time[fs]=77.50000
   C -0.915195737E+01  0.653453046E-01 -0.549459944E+00
   C  0.874273859E+01 -0.643432427E-01  0.341268584E+00
   H -0.428924321E+02  0.296677943E+01  0.589840185E+01
   H  0.415046351E+02 -0.379721905E+01 -0.467168122E+01
     4
 # iter = 78000  time[fs]=78.00000
   C -0.923705259E+01  0.656261246E-01 -0.554645888E+00
   C  0.882398103E+01 -0.647435826E-01  0.344984462E+00
   H -0.432591384E+02  0.299180276E+01  0.594915509E+01
   H  0.418582159E+02 -0.382985318E+01 -0.471176391E+01
     4
 # iter = 78500  time[fs]=78.50000
   C -0.932218209E+01  0.659070827E-01 -0.559833962E+00
   C  0.890525754E+01 -0.651439536E-01  0.348702383E+00
   H -0.436258900E+02  0.301682960E+01  0.599991563E+01
   H  0.422118446E+02 -0.386249213E+01 -0.475185287E+01
     4
 # iter = 79000  time[fs]=79.00000
   C -0.940734525E+01  0.661881752E-01 -0.565024127E+00
   C  0.898656749E+01 -0.655443537E-01  0.352422312E+00
   H -0.439926861E+02  0.304185991E+01  0.605068334E+01
   H  0.425655203E+02 -0.389513580E+01 -0.479194799E+01
     4
 # iter = 79500  time[fs]=79.50000
   C -0.949254145E+01  0.664693984E-01 -0.570216349E+00
   C  0.906791027E+01 -0.659447808E-01  0.356144213E+00
   H -0.443595259E+02  0.306689362E+01  0.610145812E+01
   H  0.429192424E+02 -0.392778412E+01 -0.483204917E+01
     4
 # iter = 80000  time[fs]=80.00000
   C -0.957777011E+01  0.667507487E-01 -0.575410593E+00
   C  0.914928530E+01 -0.663452329E-01  0.359868054E+00
   H -0.447264088E+02  0.309193069E+01  0.615223984E+01
   H  0.432730100E+02 -0.396043701E+01 -0.487215631E+01
