     4
 # iter = 25000  time[fs]=25.00000
   C -0.101858378E+01  0.395115643E-03  0.123957197E-01
   C  0.948070683E+00  0.428523190E-01  0.278533050E-01
   H -0.535289451E+01 -0.174443594E+00  0.265699679E+00
   H  0.530490210E+01 -0.437721637E+00  0.144115536E+00
     4
 # iter = 25500  time[fs]=25.50000
   C -0.106544773E+01  0.902428795E-03  0.123124324E-01
   C  0.987547110E+00  0.454477293E-01  0.283673913E-01
   H -0.568769282E+01 -0.184965400E+00  0.282363395E+00
   H  0.561970097E+01 -0.465457023E+00  0.152288606E+00
     4
 # iter = 26000  time[fs]=26.00000
   C -0.111530744E+01  0.136069695E-02  0.121871226E-01
   C  0.102999083E+01  0.481513949E-01  0.288915688E-01
   H -0.602769960E+01 -0.195668408E+00  0.299280758E+00
   H  0.594004982E+01 -0.493721730E+00  0.160591205E+00
     4
 # iter = 26500  time[fs]=26.50000
   C -0.116791653E+01  0.177327216E-02  0.120239140E-01
   C  0.107515717E+01  0.509535281E-01  0.294251829E-01
   H -0.637233611E+01 -0.206532102E+00  0.316423832E+00
   H  0.626534954E+01 -0.522459049E+00  0.169009640E+00
     4
 # iter = 27000  time[fs]=27.00000
   C -0.122304462E+01  0.214344002E-02  0.118264454E-01
   C  0.112281743E+01  0.538453675E-01  0.299675481E-01
   H -0.672111008E+01 -0.217539122E+00  0.333768901E+00
   H  0.659508764E+01 -0.551620627E+00  0.177532186E+00
     4
 # iter = 27500  time[fs]=27.50000
   C -0.128047856E+01  0.247435277E-02  0.115979321E-01
   C  0.117276010E+01  0.568190682E-01  0.305179808E-01
   H -0.707360001E+01 -0.228674672E+00  0.351295687E+00
   H  0.692882315E+01 -0.581164950E+00  0.186148743E+00
     4
 # iter = 28000  time[fs]=28.00000
   C -0.134002282E+01  0.276898856E-02  0.113412193E-01
   C  0.122479115E+01  0.598676040E-01  0.310758202E-01
   H -0.742944277E+01 -0.239926051E+00  0.368986726E+00
   H  0.726617452E+01 -0.611056141E+00  0.194850558E+00
     4
 # iter = 28500  time[fs]=28.50000
   C -0.140149900E+01  0.303012980E-02  0.110588287E-01
   C  0.127873365E+01  0.629846789E-01  0.316404413E-01
   H -0.778832373E+01 -0.251282288E+00  0.386826889E+00
   H  0.760680986E+01 -0.641263008E+00  0.203630003E+00
     4
 # iter = 29000  time[fs]=29.00000
   C -0.146474507E+01  0.326035487E-02  0.107529991E-01
   C  0.133442690E+01  0.661646475E-01  0.322112614E-01
   H -0.814996879E+01 -0.262733851E+00  0.404802986E+00
   H  0.795043898E+01 -0.671758279E+00  0.212480395E+00
     4
 # iter = 29500  time[fs]=29.50000
   C -0.152961427E+01  0.346203905E-02  0.104257211E-01
   C  0.139172538E+01  0.694024430E-01  0.327877429E-01
   H -0.851413790E+01 -0.274272410E+00  0.422903460E+00
   H  0.829680698E+01 -0.702517988E+00  0.221395854E+00
     4
 # iter = 30000  time[fs]=30.00000
   C -0.159597389E+01  0.363736129E-02  0.100787688E-01
   C  0.145049752E+01  0.726935129E-01  0.333693934E-01
   H -0.888061987E+01 -0.285890649E+00  0.441118133E+00
   H  0.864568891E+01 -0.733520966E+00  0.230371177E+00
     4
 # iter = 30500  time[fs]=30.50000
   C -0.166370408E+01  0.378831466E-02  0.971372618E-02
   C  0.151062454E+01  0.760337612E-01  0.339557645E-01
   H -0.924922803E+01 -0.297582111E+00  0.459437995E+00
   H  0.899688541E+01 -0.764748435E+00  0.239401746E+00
     4
 # iter = 31000  time[fs]=31.00000
   C -0.173269660E+01  0.391671870E-02  0.933201077E-02
   C  0.157199915E+01  0.794194971E-01  0.345464492E-01
   H -0.961979669E+01 -0.309341073E+00  0.477855042E+00
   H  0.935021912E+01 -0.796183663E+00  0.248483442E+00
     4
 # iter = 31500  time[fs]=31.50000
   C -0.180285369E+01  0.402423272E-02  0.893489375E-02
   C  0.163452451E+01  0.828473896E-01  0.351410790E-01
   H -0.999217819E+01 -0.321162440E+00  0.496362128E+00
   H  0.970553161E+01 -0.827811685E+00  0.257612577E+00
     4
 # iter = 32000  time[fs]=32.00000
   C -0.187408700E+01  0.411236905E-02  0.852351777E-02
   C  0.169811309E+01  0.863144272E-01  0.357393206E-01
   H -0.103662404E+02 -0.333041660E+00  0.514952851E+00
   H  0.100626809E+02 -0.859619064E+00  0.266785841E+00
     4
 # iter = 32500  time[fs]=32.50000
   C -0.194631662E+01  0.418250609E-02  0.809891228E-02
   C  0.176268574E+01  0.898178824E-01  0.363408729E-01
   H -0.107418649E+02 -0.344974646E+00  0.533621456E+00
   H  0.104215392E+02 -0.891593695E+00  0.276000249E+00
     4
 # iter = 33000  time[fs]=33.00000
   C -0.201947019E+01  0.423590050E-02  0.766200686E-02
   C  0.182817080E+01  0.933552803E-01  0.369454640E-01
   H -0.111189447E+02 -0.356957723E+00  0.552362751E+00
   H  0.107819913E+02 -0.923724637E+00  0.285253100E+00
     4
 # iter = 33500  time[fs]=33.50000
   C -0.209348209E+01  0.427369873E-02  0.721364283E-02
   C  0.189450331E+01  0.969243708E-01  0.375528482E-01
   H -0.114973833E+02 -0.368987569E+00  0.571172035E+00
   H  0.111439328E+02 -0.956001967E+00  0.294541948E+00
     4
 # iter = 34000  time[fs]=34.00000
   C -0.216829272E+01  0.429694750E-02  0.675458332E-02
   C  0.196162426E+01  0.100523105E+00  0.381628034E-01
   H -0.118770934E+02 -0.381061177E+00  0.590045043E+00
   H  0.115072692E+02 -0.988416664E+00  0.303864567E+00
     4
 # iter = 34500  time[fs]=34.50000
   C -0.224384790E+01  0.430660349E-02  0.628552210E-02
   C  0.202948004E+01  0.104149612E+00  0.387751286E-01
   H -0.122579954E+02 -0.393175814E+00  0.608977892E+00
   H  0.118719143E+02 -0.102096050E+01  0.313218925E+00
     4
 # iter = 35000  time[fs]=35.00000
   C -0.232009827E+01  0.430354205E-02  0.580709124E-02
   C  0.209802179E+01  0.107802184E+00  0.393896419E-01
   H -0.126400168E+02 -0.405328990E+00  0.627967035E+00
   H  0.122377893E+02 -0.105362596E+01  0.322603167E+00
     4
 # iter = 35500  time[fs]=35.50000
   C -0.239699878E+01  0.428856511E-02  0.531986782E-02
   C  0.216720496E+01  0.111479254E+00  0.400061783E-01
   H -0.130230915E+02 -0.417518431E+00  0.647009229E+00
   H  0.126048224E+02 -0.108640614E+01  0.332015592E+00
     4
 # iter = 36000  time[fs]=36.00000
   C -0.247450826E+01  0.426240829E-02  0.482437980E-02
   C  0.223698881E+01  0.115179384E+00  0.406245880E-01
   H -0.134071589E+02 -0.429742054E+00  0.666101499E+00
   H  0.129729476E+02 -0.111929471E+01  0.341454636E+00
     4
 # iter = 36500  time[fs]=36.50000
   C -0.255258905E+01  0.422574730E-02  0.432111117E-02
   C  0.230733608E+01  0.118901255E+00  0.412447350E-01
   H -0.137921633E+02 -0.441997947E+00  0.685241107E+00
   H  0.133421044E+02 -0.115228585E+01  0.350918862E+00
     4
 # iter = 37000  time[fs]=37.00000
   C -0.263120657E+01  0.417920369E-02  0.381050652E-02
   C  0.237821260E+01  0.122643650E+00  0.418664954E-01
   H -0.141780535E+02 -0.454284353E+00  0.704425533E+00
   H  0.137122368E+02 -0.118537417E+01  0.360406941E+00
     4
 # iter = 37500  time[fs]=37.50000
   C -0.271032910E+01  0.412334996E-02  0.329297495E-02
   C  0.244958699E+01  0.126405447E+00  0.424897563E-01
   H -0.145647823E+02 -0.466599649E+00  0.723652449E+00
   H  0.140832935E+02 -0.121855471E+01  0.369917648E+00
     4
 # iter = 38000  time[fs]=38.00000
   C -0.278992742E+01  0.405871418E-02  0.276889366E-02
   C  0.252143038E+01  0.130185610E+00  0.431144146E-01
   H -0.149523061E+02 -0.478942340E+00  0.742919701E+00
   H  0.144552267E+02 -0.125182285E+01  0.379449846E+00
     4
 # iter = 38500  time[fs]=38.50000
   C -0.286997462E+01  0.398578415E-02  0.223861102E-02
   C  0.259371618E+01  0.133983178E+00  0.437403762E-01
   H -0.153405846E+02 -0.491311038E+00  0.762225293E+00
   H  0.148279923E+02 -0.128517432E+01  0.389002481E+00
     4
 # iter = 39000  time[fs]=39.00000
   C -0.295044589E+01  0.390501107E-02  0.170244936E-02
   C  0.266641984E+01  0.137797263E+00  0.443675548E-01
   H -0.157295804E+02 -0.503704459E+00  0.781567373E+00
   H  0.152015495E+02 -0.131860515E+01  0.398574573E+00
     4
 # iter = 39500  time[fs]=39.50000
   C -0.303131824E+01  0.381681285E-02  0.116070736E-02
   C  0.273951869E+01  0.141627039E+00  0.449958714E-01
   H -0.161192587E+02 -0.516121410E+00  0.800944214E+00
   H  0.155758601E+02 -0.135211165E+01  0.408165210E+00
     4
 # iter = 40000  time[fs]=40.00000
   C -0.311257044E+01  0.372157714E-02  0.613662295E-03
   C  0.281299171E+01  0.145471739E+00  0.456252535E-01
   H -0.165095871E+02 -0.528560780E+00  0.820354213E+00
   H  0.159508889E+02 -0.138569035E+01  0.417773541E+00
     4
 # iter = 40500  time[fs]=40.50000
   C -0.319418277E+01  0.361966397E-02  0.615719100E-04
   C  0.288681946E+01  0.149330646E+00  0.462556343E-01
   H -0.169005356E+02 -0.541021534E+00  0.839795869E+00
   H  0.163266026E+02 -0.141933805E+01  0.427398774E+00
     4
 # iter = 41000  time[fs]=41.00000
   C -0.327613694E+01  0.351140814E-02 -0.495323800E-03
   C  0.296098386E+01  0.153203096E+00  0.468869525E-01
   H -0.172920761E+02 -0.553502706E+00  0.859267783E+00
   H  0.167029705E+02 -0.145305171E+01  0.437040165E+00
     4
 # iter = 41500  time[fs]=41.50000
   C -0.335841594E+01  0.339712143E-02 -0.105680106E-02
   C  0.303546812E+01  0.157088466E+00  0.475191515E-01
   H -0.176841822E+02 -0.566003394E+00  0.878768643E+00
   H  0.170799638E+02 -0.148682853E+01  0.446697018E+00
     4
 # iter = 42000  time[fs]=42.00000
   C -0.344100393E+01  0.327709454E-02 -0.162265094E-02
   C  0.311025658E+01  0.160986174E+00  0.481521791E-01
   H -0.180768293E+02 -0.578522753E+00  0.898297222E+00
   H  0.174575553E+02 -0.152066586E+01  0.456368682E+00
     4
 # iter = 42500  time[fs]=42.50000
   C -0.352388613E+01  0.315159881E-02 -0.219267807E-02
   C  0.318533469E+01  0.164895676E+00  0.487859869E-01
   H -0.184699945E+02 -0.591059989E+00  0.917852366E+00
   H  0.178357199E+02 -0.155456120E+01  0.466054544E+00
     4
 # iter = 43000  time[fs]=43.00000
   C -0.360704877E+01  0.302088788E-02 -0.276669956E-02
   C  0.326068883E+01  0.168816460E+00  0.494205303E-01
   H -0.188636561E+02 -0.603614361E+00  0.937432992E+00
   H  0.182144336E+02 -0.158851223E+01  0.475754029E+00
     4
 # iter = 43500  time[fs]=43.50000
   C -0.369047895E+01  0.288519906E-02 -0.334454395E-02
   C  0.333630628E+01  0.172748049E+00  0.500557679E-01
   H -0.192577937E+02 -0.616185169E+00  0.957038082E+00
   H  0.185936742E+02 -0.162251673E+01  0.485466594E+00
     4
 # iter = 44000  time[fs]=44.00000
   C -0.377416463E+01  0.274475468E-02 -0.392605033E-02
   C  0.341217516E+01  0.176689992E+00  0.506916613E-01
   H -0.196523882E+02 -0.628771756E+00  0.976666677E+00
   H  0.189734207E+02 -0.165657264E+01  0.495191730E+00
     4
 # iter = 44500  time[fs]=44.50000
   C -0.385809449E+01  0.259976325E-02 -0.451106749E-02
   C  0.348828430E+01  0.180641866E+00  0.513281748E-01
   H -0.200474217E+02 -0.641373503E+00  0.996317870E+00
   H  0.193536530E+02 -0.169067799E+01  0.504928955E+00
     4
 # iter = 45000  time[fs]=45.00000
   C -0.394225796E+01  0.245042052E-02 -0.509945318E-02
   C  0.356462326E+01  0.184603272E+00  0.519652753E-01
   H -0.204428771E+02 -0.653989827E+00  0.101599081E+01
   H  0.197343527E+02 -0.172483094E+01  0.514677813E+00
     4
 # iter = 45500  time[fs]=45.50000
   C -0.402664506E+01  0.229691050E-02 -0.569107344E-02
   C  0.364118222E+01  0.188573836E+00  0.526029317E-01
   H -0.208387385E+02 -0.666620175E+00  0.103568469E+01
   H  0.201155020E+02 -0.175902974E+01  0.524437876E+00
     4
 # iter = 46000  time[fs]=46.00000
   C -0.411124645E+01  0.213940628E-02 -0.628580195E-02
   C  0.371795195E+01  0.192553201E+00  0.532411155E-01
   H -0.212349906E+02 -0.679264027E+00  0.105539874E+01
   H  0.204970842E+02 -0.179327274E+01  0.534208736E+00
     4
 # iter = 46500  time[fs]=46.50000
   C -0.419605331E+01  0.197807091E-02 -0.688351952E-02
   C  0.379492377E+01  0.196541035E+00  0.538797996E-01
   H -0.216316192E+02 -0.691920891E+00  0.107513224E+01
   H  0.208790836E+02 -0.182755836E+01  0.543990007E+00
     4
 # iter = 47000  time[fs]=47.00000
   C -0.428105737E+01  0.181305807E-02 -0.748411352E-02
   C  0.387208951E+01  0.200537019E+00  0.545189590E-01
   H -0.220286107E+02 -0.704590299E+00  0.109488451E+01
   H  0.212614851E+02 -0.186188512E+01  0.553781326E+00
     4
 # iter = 47500  time[fs]=47.50000
   C -0.436625078E+01  0.164451278E-02 -0.808747747E-02
   C  0.394944144E+01  0.204540855E+00  0.551585703E-01
   H -0.224259522E+02 -0.717271811E+00  0.111465490E+01
   H  0.216442746E+02 -0.189625161E+01  0.563582344E+00
     4
 # iter = 48000  time[fs]=48.00000
   C -0.445162618E+01  0.147257202E-02 -0.869351056E-02
   C  0.402697230E+01  0.208552260E+00  0.557986114E-01
   H -0.228236316E+02 -0.729965005E+00  0.113444279E+01
   H  0.220274386E+02 -0.193065650E+01  0.573392732E+00
     4
 # iter = 48500  time[fs]=48.50000
   C -0.453717657E+01  0.129736528E-02 -0.930211728E-02
   C  0.410467521E+01  0.212570964E+00  0.564390618E-01
   H -0.232216373E+02 -0.742669485E+00  0.115424759E+01
   H  0.224109644E+02 -0.196509849E+01  0.583212179E+00
     4
 # iter = 49000  time[fs]=49.00000
   C -0.462289538E+01  0.111901508E-02 -0.991320708E-02
   C  0.418254366E+01  0.216596712E+00  0.570799023E-01
   H -0.236199582E+02 -0.755384871E+00  0.117406875E+01
   H  0.227948399E+02 -0.199957639E+01  0.593040386E+00
     4
 # iter = 49500  time[fs]=49.50000
   C -0.470877634E+01  0.937637445E-03 -0.105266940E-01
   C  0.426057150E+01  0.220629262E+00  0.577211146E-01
   H -0.240185840E+02 -0.768110803E+00  0.119390574E+01
   H  0.231790534E+02 -0.203408904E+01  0.602877069E+00
     4
 # iter = 50000  time[fs]=50.00000
   C -0.479481356E+01  0.753342330E-03 -0.111424964E-01
   C  0.433875291E+01  0.224668384E+00  0.583626819E-01
   H -0.244175047E+02 -0.780846940E+00  0.121375805E+01
   H  0.235635939E+02 -0.206863533E+01  0.612721959E+00
     4
 # iter = 50500  time[fs]=50.50000
   C -0.488100141E+01  0.566234047E-03 -0.117605367E-01
   C  0.441708235E+01  0.228713858E+00  0.590045880E-01
   H -0.248167108E+02 -0.793592954E+00  0.123362519E+01
   H  0.239484511E+02 -0.210321423E+01  0.622574798E+00
     4
 # iter = 51000  time[fs]=51.00000
   C -0.496733457E+01  0.376411613E-03 -0.123807411E-01
   C  0.449555459E+01  0.232765478E+00  0.596468179E-01
   H -0.252161933E+02 -0.806348535E+00  0.125350672E+01
   H  0.243336150E+02 -0.213782472E+01  0.632435341E+00
     4
 # iter = 51500  time[fs]=51.50000
   C -0.505380800E+01  0.183969098E-03 -0.130030391E-01
   C  0.457416465E+01  0.236823043E+00  0.602893574E-01
   H -0.256159436E+02 -0.819113385E+00  0.127340218E+01
   H  0.247190759E+02 -0.217246585E+01  0.642303352E+00
     4
 # iter = 52000  time[fs]=52.00000
   C -0.514041689E+01 -0.110040617E-04 -0.136273640E-01
   C  0.465290780E+01  0.240886365E+00  0.609321932E-01
   H -0.260159534E+02 -0.831887222E+00  0.129331117E+01
   H  0.251048248E+02 -0.220713671E+01  0.652178609E+00
     4
 # iter = 52500  time[fs]=52.50000
   C -0.522715667E+01 -0.208422772E-03 -0.142536517E-01
   C  0.473177954E+01  0.244955263E+00  0.615753126E-01
   H -0.264162149E+02 -0.844669775E+00  0.131323328E+01
   H  0.254908530E+02 -0.224183642E+01  0.662060896E+00
     4
 # iter = 53000  time[fs]=53.00000
   C -0.531402299E+01 -0.408206013E-03 -0.148818414E-01
   C  0.481077558E+01  0.249029565E+00  0.622187038E-01
   H -0.268167206E+02 -0.857460785E+00  0.133316812E+01
   H  0.258771523E+02 -0.227656415E+01  0.671950009E+00
     4
 # iter = 53500  time[fs]=53.50000
   C -0.540101171E+01 -0.610276591E-03 -0.155118749E-01
   C  0.488989185E+01  0.253109106E+00  0.628623553E-01
   H -0.272174633E+02 -0.870260004E+00  0.135311534E+01
   H  0.262637146E+02 -0.231131909E+01  0.681845750E+00
     4
 # iter = 54000  time[fs]=54.00000
   C -0.548811889E+01 -0.814560908E-03 -0.161436965E-01
   C  0.496912446E+01  0.257193730E+00  0.635062567E-01
   H -0.276184361E+02 -0.883067197E+00  0.137307457E+01
   H  0.266505324E+02 -0.234610048E+01  0.691747934E+00
     4
 # iter = 54500  time[fs]=54.50000
   C -0.557534075E+01 -0.102098875E-02 -0.167772531E-01
   C  0.504846971E+01  0.261283286E+00  0.641503978E-01
   H -0.280196325E+02 -0.895882135E+00  0.139304549E+01
   H  0.270375983E+02 -0.238090759E+01  0.701656378E+00
     4
 # iter = 55000  time[fs]=55.00000
   C -0.566267370E+01 -0.122949307E-02 -0.174124939E-01
   C  0.512792406E+01  0.265377629E+00  0.647947690E-01
   H -0.284210462E+02 -0.908704601E+00  0.141302776E+01
   H  0.274249055E+02 -0.241573970E+01  0.711570911E+00
     4
 # iter = 55500  time[fs]=55.50000
   C -0.575011431E+01 -0.144000984E-02 -0.180493701E-01
   C  0.520748412E+01  0.269476622E+00  0.654393613E-01
   H -0.288226710E+02 -0.921534388E+00  0.143302109E+01
   H  0.278124472E+02 -0.245059614E+01  0.721491366E+00
     4
 # iter = 56000  time[fs]=56.00000
   C -0.583765931E+01 -0.165247785E-02 -0.186878352E-01
   C  0.528714668E+01  0.273580133E+00  0.660841662E-01
   H -0.292245013E+02 -0.934371295E+00  0.145302517E+01
   H  0.282002169E+02 -0.248547626E+01  0.731417584E+00
     4
 # iter = 56500  time[fs]=56.50000
   C -0.592530554E+01 -0.186683856E-02 -0.193278445E-01
   C  0.536690864E+01  0.277688035E+00  0.667291755E-01
   H -0.296265314E+02 -0.947215130E+00  0.147303971E+01
   H  0.285882086E+02 -0.252037944E+01  0.741349413E+00
     4
 # iter = 57000  time[fs]=57.00000
   C -0.601305002E+01 -0.208303594E-02 -0.199693551E-01
   C  0.544676705E+01  0.281800208E+00  0.673743814E-01
   H -0.300287561E+02 -0.960065709E+00  0.149306445E+01
   H  0.289764162E+02 -0.255530507E+01  0.751286705E+00
     4
 # iter = 57500  time[fs]=57.50000
   C -0.610088987E+01 -0.230101634E-02 -0.206123258E-01
   C  0.552671909E+01  0.285916533E+00  0.680197767E-01
   H -0.304311701E+02 -0.972922854E+00  0.151309912E+01
   H  0.293648342E+02 -0.259025257E+01  0.761229319E+00
     4
 # iter = 58000  time[fs]=58.00000
   C -0.618882234E+01 -0.252072837E-02 -0.212567173E-01
   C  0.560676205E+01  0.290036900E+00  0.686653542E-01
   H -0.308337685E+02 -0.985786395E+00  0.153314346E+01
   H  0.297534570E+02 -0.262522140E+01  0.771177120E+00
     4
 # iter = 58500  time[fs]=58.50000
   C -0.627684479E+01 -0.274212275E-02 -0.219024916E-01
   C  0.568689332E+01  0.294161201E+00  0.693111074E-01
   H -0.312365467E+02 -0.998656169E+00  0.155319723E+01
   H  0.301422794E+02 -0.266021102E+01  0.781129975E+00
     4
 # iter = 59000  time[fs]=59.00000
   C -0.636495469E+01 -0.296515224E-02 -0.225496123E-01
   C  0.576711044E+01  0.298289333E+00  0.699570300E-01
   H -0.316394999E+02 -0.101153202E+01  0.157326020E+01
   H  0.305312963E+02 -0.269522091E+01  0.791087760E+00
     4
 # iter = 59500  time[fs]=59.50000
   C -0.645314961E+01 -0.318977149E-02 -0.231980444E-01
   C  0.584741099E+01  0.302421195E+00  0.706031158E-01
   H -0.320426239E+02 -0.102441379E+01  0.159333214E+01
   H  0.309205029E+02 -0.273025057E+01  0.801050353E+00
     4
 # iter = 60000  time[fs]=60.00000
   C -0.654142722E+01 -0.341593695E-02 -0.238477541E-01
   C  0.592779271E+01  0.306556694E+00  0.712493592E-01
   H -0.324459144E+02 -0.103730134E+01  0.161341282E+01
   H  0.313098944E+02 -0.276529953E+01  0.811017637E+00
     4
 # iter = 60500  time[fs]=60.50000
   C -0.662978529E+01 -0.364360682E-02 -0.244987091E-01
   C  0.600825338E+01  0.310695736E+00  0.718957547E-01
   H -0.328493673E+02 -0.105019452E+01  0.163350205E+01
   H  0.316994663E+02 -0.280036732E+01  0.820989498E+00
     4
 # iter = 61000  time[fs]=61.00000
   C -0.671822167E+01 -0.387274091E-02 -0.251508780E-01
   C  0.608879089E+01  0.314838233E+00  0.725422970E-01
   H -0.332529786E+02 -0.106309320E+01  0.165359961E+01
   H  0.320892143E+02 -0.283545350E+01  0.830965829E+00
     4
 # iter = 61500  time[fs]=61.50000
   C -0.680673428E+01 -0.410330056E-02 -0.258042309E-01
   C  0.616940320E+01  0.318984099E+00  0.731889812E-01
   H -0.336567447E+02 -0.107599725E+01  0.167370531E+01
   H  0.324791341E+02 -0.287055764E+01  0.840946524E+00
     4
 # iter = 62000  time[fs]=62.00000
   C -0.689532115E+01 -0.433524863E-02 -0.264587388E-01
   C  0.625008838E+01  0.323133253E+00  0.738358025E-01
   H -0.340606617E+02 -0.108890655E+01  0.169381897E+01
   H  0.328692217E+02 -0.290567933E+01  0.850931482E+00
     4
 # iter = 62500  time[fs]=62.50000
   C -0.698398035E+01 -0.456854932E-02 -0.271143737E-01
   C  0.633084452E+01  0.327285615E+00  0.744827563E-01
   H -0.344647263E+02 -0.110182096E+01  0.171394039E+01
   H  0.332594732E+02 -0.294081816E+01  0.860920605E+00
     4
 # iter = 63000  time[fs]=63.00000
   C -0.707271005E+01 -0.480316821E-02 -0.277711087E-01
   C  0.641166982E+01  0.331441108E+00  0.751298383E-01
   H -0.348689349E+02 -0.111474038E+01  0.173406941E+01
   H  0.336498848E+02 -0.297597375E+01  0.870913798E+00
     4
 # iter = 63500  time[fs]=63.50000
   C -0.716150846E+01 -0.503907211E-02 -0.284289177E-01
   C  0.649256254E+01  0.335599659E+00  0.757770444E-01
   H -0.352732843E+02 -0.112766468E+01  0.175420585E+01
   H  0.340404528E+02 -0.301114572E+01  0.880910970E+00
     4
 # iter = 64000  time[fs]=64.00000
   C -0.725037389E+01 -0.527622907E-02 -0.290877757E-01
   C  0.657352100E+01  0.339761196E+00  0.764243704E-01
   H -0.356777713E+02 -0.114059377E+01  0.177434955E+01
   H  0.344311737E+02 -0.304633370E+01  0.890912032E+00
     4
 # iter = 64500  time[fs]=64.50000
   C -0.733930469E+01 -0.551460827E-02 -0.297476584E-01
   C  0.665454357E+01  0.343925650E+00  0.770718126E-01
   H -0.360823929E+02 -0.115352752E+01  0.179450034E+01
   H  0.348220440E+02 -0.308153736E+01  0.900916899E+00
     4
 # iter = 65000  time[fs]=65.00000
   C -0.742829926E+01 -0.575417998E-02 -0.304085425E-01
   C  0.673562870E+01  0.348092956E+00  0.777193674E-01
   H -0.364871459E+02 -0.116646584E+01  0.181465808E+01
   H  0.352130606E+02 -0.311675635E+01  0.910925488E+00
     4
 # iter = 65500  time[fs]=65.50000
   C -0.751735607E+01 -0.599491553E-02 -0.310704051E-01
   C  0.681677488E+01  0.352263047E+00  0.783670312E-01
   H -0.368920276E+02 -0.117940864E+01  0.183482261E+01
   H  0.356042201E+02 -0.315199034E+01  0.920937719E+00
     4
 # iter = 66000  time[fs]=66.00000
   C -0.760647364E+01 -0.623678725E-02 -0.317332246E-01
   C  0.689798066E+01  0.356435863E+00  0.790148007E-01
   H -0.372970352E+02 -0.119235580E+01  0.185499378E+01
   H  0.359955195E+02 -0.318723902E+01  0.930953515E+00
     4
 # iter = 66500  time[fs]=66.50000
   C -0.769565055E+01 -0.647976841E-02 -0.323969797E-01
   C  0.697924463E+01  0.360611343E+00  0.796626727E-01
   H -0.377021660E+02 -0.120530725E+01  0.187517147E+01
   H  0.363869558E+02 -0.322250207E+01  0.940972799E+00
     4
 # iter = 67000  time[fs]=67.00000
   C -0.778488541E+01 -0.672383321E-02 -0.330616500E-01
   C  0.706056543E+01  0.364789429E+00  0.803106440E-01
   H -0.381074173E+02 -0.121826288E+01  0.189535553E+01
   H  0.367785260E+02 -0.325777920E+01  0.950995500E+00
     4
 # iter = 67500  time[fs]=67.50000
   C -0.787417690E+01 -0.696895670E-02 -0.337272155E-01
   C  0.714194176E+01  0.368970064E+00  0.809587117E-01
   H -0.385127867E+02 -0.123122262E+01  0.191554583E+01
   H  0.371702275E+02 -0.329307012E+01  0.961021547E+00
     4
 # iter = 68000  time[fs]=68.00000
   C -0.796352372E+01 -0.721511478E-02 -0.343936573E-01
   C  0.722337235E+01  0.373153194E+00  0.816068730E-01
   H -0.389182716E+02 -0.124418637E+01  0.193574225E+01
   H  0.375620574E+02 -0.332837454E+01  0.971050871E+00
     4
 # iter = 68500  time[fs]=68.50000
   C -0.805292462E+01 -0.746228414E-02 -0.350609565E-01
   C  0.730485597E+01  0.377338767E+00  0.822551250E-01
   H -0.393238698E+02 -0.125715405E+01  0.195594466E+01
   H  0.379540131E+02 -0.336369220E+01  0.981083407E+00
     4
 # iter = 69000  time[fs]=69.00000
   C -0.814237841E+01 -0.771044222E-02 -0.357290954E-01
   C  0.738639145E+01  0.381526730E+00  0.829034652E-01
   H -0.397295788E+02 -0.127012559E+01  0.197615293E+01
   H  0.383460920E+02 -0.339902284E+01  0.991119089E+00
     4
 # iter = 69500  time[fs]=69.50000
   C -0.823188391E+01 -0.795956722E-02 -0.363980563E-01
   C  0.746797764E+01  0.385717035E+00  0.835518911E-01
   H -0.401353964E+02 -0.128310091E+01  0.199636696E+01
   H  0.387382918E+02 -0.343436619E+01  0.100115785E+01
     4
 # iter = 70000  time[fs]=70.00000
   C -0.832144001E+01 -0.820963800E-02 -0.370678225E-01
   C  0.754961342E+01  0.389909633E+00  0.842004001E-01
   H -0.405413206E+02 -0.129607993E+01  0.201658663E+01
   H  0.391306098E+02 -0.346972200E+01  0.101119964E+01
     4
 # iter = 70500  time[fs]=70.50000
   C -0.841104559E+01 -0.846063413E-02 -0.377383775E-01
   C  0.763129773E+01  0.394104477E+00  0.848489900E-01
   H -0.409473491E+02 -0.130906258E+01  0.203681183E+01
   H  0.395230439E+02 -0.350509004E+01  0.102124440E+01
     4
 # iter = 71000  time[fs]=71.00000
   C -0.850069962E+01 -0.871253580E-02 -0.384097054E-01
   C  0.771302953E+01  0.398301523E+00  0.854976585E-01
   H -0.413534800E+02 -0.132204879E+01  0.205704246E+01
   H  0.399155917E+02 -0.354047008E+01  0.103129206E+01
     4
 # iter = 71500  time[fs]=71.50000
   C -0.859040105E+01 -0.896532382E-02 -0.390817907E-01
   C  0.779480780E+01  0.402500726E+00  0.861464034E-01
   H -0.417597112E+02 -0.133503848E+01  0.207727840E+01
   H  0.403082511E+02 -0.357586187E+01  0.104134257E+01
     4
 # iter = 72000  time[fs]=72.00000
   C -0.868014891E+01 -0.921897959E-02 -0.397546185E-01
   C  0.787663158E+01  0.406702043E+00  0.867952227E-01
   H -0.421660408E+02 -0.134803160E+01  0.209751957E+01
   H  0.407010198E+02 -0.361126521E+01  0.105139589E+01
     4
 # iter = 72500  time[fs]=72.50000
   C -0.876994221E+01 -0.947348508E-02 -0.404281743E-01
   C  0.795849991E+01  0.410905435E+00  0.874441142E-01
   H -0.425724670E+02 -0.136102808E+01  0.211776586E+01
   H  0.410938959E+02 -0.364667987E+01  0.106145194E+01
     4
 # iter = 73000  time[fs]=73.00000
   C -0.885978004E+01 -0.972882282E-02 -0.411024439E-01
   C  0.804041189E+01  0.415110859E+00  0.880930762E-01
   H -0.429789878E+02 -0.137402785E+01  0.213801717E+01
   H  0.414868773E+02 -0.368210565E+01  0.107151069E+01
     4
 # iter = 73500  time[fs]=73.50000
   C -0.894966148E+01 -0.998497583E-02 -0.417774135E-01
   C  0.812236661E+01  0.419318277E+00  0.887421066E-01
   H -0.433856017E+02 -0.138703085E+01  0.215827342E+01
   H  0.418799619E+02 -0.371754234E+01  0.108157209E+01
     4
 # iter = 74000  time[fs]=74.00000
   C -0.903958566E+01 -0.102419277E-01 -0.424530700E-01
   C  0.820436322E+01  0.423527652E+00  0.893912037E-01
   H -0.437923067E+02 -0.140003703E+01  0.217853451E+01
   H  0.422731480E+02 -0.375298974E+01  0.109163608E+01
     4
 # iter = 74500  time[fs]=74.50000
   C -0.912955172E+01 -0.104996624E-01 -0.431294002E-01
   C  0.828640088E+01  0.427738945E+00  0.900403658E-01
   H -0.441991013E+02 -0.141304632E+01  0.219880036E+01
   H  0.426664336E+02 -0.378844767E+01  0.110170263E+01
     4
 # iter = 75000  time[fs]=75.00000
   C -0.921955883E+01 -0.107581644E-01 -0.438063916E-01
   C  0.836847877E+01  0.431952122E+00  0.906895911E-01
   H -0.446059838E+02 -0.142605868E+01  0.221907089E+01
   H  0.430598170E+02 -0.382391593E+01  0.111177167E+01
     4
 # iter = 75500  time[fs]=75.50000
   C -0.930960619E+01 -0.110174187E-01 -0.444840320E-01
   C  0.845059611E+01  0.436167148E+00  0.913388780E-01
   H -0.450129527E+02 -0.143907403E+01  0.223934600E+01
   H  0.434532963E+02 -0.385939434E+01  0.112184318E+01
     4
 # iter = 76000  time[fs]=76.00000
   C -0.939969301E+01 -0.112774107E-01 -0.451623094E-01
   C  0.853275212E+01  0.440383988E+00  0.919882250E-01
   H -0.454200063E+02 -0.145209234E+01  0.225962562E+01
   H  0.438468699E+02 -0.389488272E+01  0.113191710E+01
     4
 # iter = 76500  time[fs]=76.50000
   C -0.948981855E+01 -0.115381262E-01 -0.458412123E-01
   C  0.861494607E+01  0.444602610E+00  0.926376305E-01
   H -0.458271433E+02 -0.146511354E+01  0.227990966E+01
   H  0.442405361E+02 -0.393038090E+01  0.114199339E+01
     4
 # iter = 77000  time[fs]=77.00000
   C -0.957998205E+01 -0.117995512E-01 -0.465207293E-01
   C  0.869717722E+01  0.448822981E+00  0.932870932E-01
   H -0.462343621E+02 -0.147813760E+01  0.230019806E+01
   H  0.446342933E+02 -0.396588871E+01  0.115207202E+01
     4
 # iter = 77500  time[fs]=77.50000
   C -0.967018280E+01 -0.120616725E-01 -0.472008495E-01
   C  0.877944488E+01  0.453045070E+00  0.939366114E-01
   H -0.466416612E+02 -0.149116445E+01  0.232049074E+01
   H  0.450281398E+02 -0.400140599E+01  0.116215294E+01
     4
 # iter = 78000  time[fs]=78.00000
   C -0.976042011E+01 -0.123244769E-01 -0.478815622E-01
   C  0.886174836E+01  0.457268848E+00  0.945861840E-01
   H -0.470490394E+02 -0.150419405E+01  0.234078762E+01
   H  0.454220741E+02 -0.403693257E+01  0.117223611E+01
     4
 # iter = 78500  time[fs]=78.50000
   C -0.985069329E+01 -0.125879518E-01 -0.485628570E-01
   C  0.894408699E+01  0.461494283E+00  0.952358095E-01
   H -0.474564952E+02 -0.151722636E+01  0.236108864E+01
   H  0.458160948E+02 -0.407246830E+01  0.118232150E+01
     4
 # iter = 79000  time[fs]=79.00000
   C -0.994100169E+01 -0.128520848E-01 -0.492447237E-01
   C  0.902646013E+01  0.465721347E+00  0.958854867E-01
   H -0.478640274E+02 -0.153026132E+01  0.238139372E+01
   H  0.462102004E+02 -0.410801303E+01  0.119240907E+01
     4
 # iter = 79500  time[fs]=79.50000
   C -0.100313447E+02 -0.131168638E-01 -0.499271525E-01
   C  0.910886714E+01  0.469950013E+00  0.965352144E-01
   H -0.482716346E+02 -0.154329890E+01  0.240170280E+01
   H  0.466043894E+02 -0.414356660E+01  0.120249878E+01
     4
 # iter = 80000  time[fs]=80.00000
   C -0.101217216E+02 -0.133822772E-01 -0.506101337E-01
   C  0.919130741E+01  0.474180252E+00  0.971849913E-01
   H -0.486793157E+02 -0.155633904E+01  0.242201581E+01
   H  0.469986604E+02 -0.417912887E+01  0.121259059E+01
