     4
 # iter = 25000  time[fs]=25.00000
   C -0.969877904E+00  0.216731103E-01  0.222522258E-01
   C  0.103571556E+01  0.334030016E-02 -0.177649941E-01
   H -0.523672528E+01 -0.546824644E+00 -0.248829345E+00
   H  0.524133544E+01  0.568791732E+00  0.345313738E+00
     4
 # iter = 25500  time[fs]=25.50000
   C -0.101412393E+01  0.245520317E-01  0.237259705E-01
   C  0.108011467E+01  0.180980560E-02 -0.186599243E-01
   H -0.556987648E+01 -0.581315098E+00 -0.266385586E+00
   H  0.556252911E+01  0.606754524E+00  0.369348850E+00
     4
 # iter = 26000  time[fs]=26.00000
   C -0.106111842E+01  0.274950540E-01  0.252727662E-01
   C  0.112732274E+01  0.225743046E-03 -0.196302456E-01
   H -0.590891828E+01 -0.616523203E+00 -0.284280936E+00
   H  0.588888739E+01  0.645308573E+00  0.393751154E+00
     4
 # iter = 26500  time[fs]=26.50000
   C -0.111063807E+01  0.304997282E-01  0.268866281E-01
   C  0.117710768E+01 -0.141106687E-02 -0.206698634E-01
   H -0.625317654E+01 -0.652365811E+00 -0.302477488E+00
   H  0.621984150E+01  0.684390269E+00  0.418481422E+00
     4
 # iter = 27000  time[fs]=27.00000
   C -0.116247423E+01  0.335635246E-01  0.285621153E-01
   C  0.122925372E+01 -0.309939695E-02 -0.217732165E-01
   H -0.660208049E+01 -0.688772944E+00 -0.320943147E+00
   H  0.655490636E+01  0.723945265E+00  0.443506116E+00
     4
 # iter = 27500  time[fs]=27.50000
   C -0.121643399E+01  0.366838511E-01  0.302942829E-01
   C  0.128356208E+01 -0.483770799E-02 -0.229352367E-01
   H -0.695514362E+01 -0.725685235E+00 -0.339650532E+00
   H  0.689366574E+01  0.763926832E+00  0.468796380E+00
     4
 # iter = 28000  time[fs]=28.00000
   C -0.127234031E+01  0.398580853E-01  0.320786387E-01
   C  0.133985088E+01 -0.662423774E-02 -0.241513106E-01
   H -0.731194858E+01 -0.763051948E+00 -0.358576124E+00
   H  0.723576039E+01  0.804294551E+00  0.494327234E+00
     4
 # iter = 28500  time[fs]=28.50000
   C -0.133003159E+01  0.430836103E-01  0.339111045E-01
   C  0.139795448E+01 -0.845707827E-02 -0.254172426E-01
   H -0.767213518E+01 -0.800829421E+00 -0.377699584E+00
   H  0.758087857E+01  0.845013271E+00  0.520076934E+00
     4
 # iter = 29000  time[fs]=29.00000
   C -0.138936092E+01  0.463578467E-01  0.357879786E-01
   C  0.145772258E+01 -0.103342400E-01 -0.267292195E-01
   H -0.803539076E+01 -0.838979842E+00 -0.397003225E+00
   H  0.792874833E+01  0.886052255E+00  0.546026454E+00
     4
 # iter = 29500  time[fs]=29.50000
   C -0.145019505E+01  0.496782794E-01  0.377059015E-01
   C  0.151901906E+01 -0.122537023E-01 -0.280837770E-01
   H -0.840144248E+01 -0.877470267E+00 -0.416471573E+00
   H  0.827913129E+01  0.927384497E+00  0.572159063E+00
     4
 # iter = 30000  time[fs]=30.00000
   C -0.151241334E+01  0.530424774E-01  0.396618236E-01
   C  0.158172084E+01 -0.142134530E-01 -0.294777677E-01
   H -0.877005104E+01 -0.916271838E+00 -0.436091021E+00
   H  0.863181750E+01  0.968986159E+00  0.598459979E+00
     4
 # iter = 30500  time[fs]=30.50000
   C -0.157590666E+01  0.564481091E-01  0.416529756E-01
   C  0.164571667E+01 -0.162115164E-01 -0.309083310E-01
   H -0.914100554E+01 -0.955359145E+00 -0.455849548E+00
   H  0.898662126E+01  0.101083611E+01  0.624916088E+00
     4
 # iter = 31000  time[fs]=31.00000
   C -0.164057628E+01  0.598929510E-01  0.436768407E-01
   C  0.171090602E+01 -0.182459748E-01 -0.323728660E-01
   H -0.951411932E+01 -0.994709706E+00 -0.475736484E+00
   H  0.934337765E+01  0.105291553E+01  0.651515708E+00
     4
 # iter = 31500  time[fs]=31.50000
   C -0.170633289E+01  0.633748927E-01  0.457311301E-01
   C  0.177719802E+01 -0.203149815E-01 -0.338690056E-01
   H -0.988922643E+01 -0.103430354E+01 -0.495742318E+00
   H  0.970193961E+01  0.109520760E+01  0.678248390E+00
     4
 # iter = 32000  time[fs]=32.00000
   C -0.177309563E+01  0.668919391E-01  0.478137595E-01
   C  0.184451041E+01 -0.224167705E-01 -0.353945935E-01
   H -0.102661788E+02 -0.107412283E+01 -0.515858538E+00
   H  0.100621755E+02  0.113769726E+01  0.705104758E+00
     4
 # iter = 32500  time[fs]=32.50000
   C -0.184079123E+01  0.704422093E-01  0.499228294E-01
   C  0.191276874E+01 -0.245496609E-01 -0.369476636E-01
   H -0.106448438E+02 -0.111415159E+01 -0.536077499E+00
   H  0.104239672E+02  0.118037093E+01  0.732076367E+00
     4
 # iter = 33000  time[fs]=33.00000
   C -0.190935322E+01  0.740239342E-01  0.520566060E-01
   C  0.198190547E+01 -0.267120592E-01 -0.385264205E-01
   H -0.110251022E+02 -0.115437547E+01 -0.556392311E+00
   H  0.107872082E+02  0.122321635E+01  0.759155589E+00
     4
 # iter = 33500  time[fs]=33.50000
   C -0.197872124E+01  0.776354525E-01  0.542135046E-01
   C  0.205185928E+01 -0.289024592E-01 -0.401292227E-01
   H -0.114068464E+02 -0.119478152E+01 -0.576796743E+00
   H  0.111518023E+02  0.126622243E+01  0.786335510E+00
     4
 # iter = 34000  time[fs]=34.00000
   C -0.204884035E+01  0.812752063E-01  0.563920750E-01
   C  0.212257443E+01 -0.311194402E-01 -0.417545676E-01
   H -0.117899792E+02 -0.123535799E+01 -0.597285142E+00
   H  0.115176622E+02  0.130937909E+01  0.813609847E+00
     4
 # iter = 34500  time[fs]=34.50000
   C -0.211966053E+01  0.849417355E-01  0.585909880E-01
   C  0.219400012E+01 -0.333616643E-01 -0.434010772E-01
   H -0.121744124E+02 -0.127609425E+01 -0.617852367E+00
   H  0.118847087E+02  0.135267715E+01  0.840972877E+00
     4
 # iter = 35000  time[fs]=35.00000
   C -0.219113613E+01  0.886336726E-01  0.608090235E-01
   C  0.226609005E+01 -0.356278735E-01 -0.450674865E-01
   H -0.125600657E+02 -0.131698060E+01 -0.638493725E+00
   H  0.122528694E+02  0.139610823E+01  0.868419368E+00
     4
 # iter = 35500  time[fs]=35.50000
   C -0.226322544E+01  0.923497373E-01  0.630450596E-01
   C  0.233880189E+01 -0.379168852E-01 -0.467526321E-01
   H -0.129468657E+02 -0.135800820E+01 -0.659204929E+00
   H  0.126220785E+02  0.143966465E+01  0.895944530E+00
     4
 # iter = 36000  time[fs]=36.00000
   C -0.233589026E+01  0.960887304E-01  0.652980637E-01
   C  0.241209692E+01 -0.402275888E-01 -0.484554426E-01
   H -0.133347455E+02 -0.139916894E+01 -0.679982043E+00
   H  0.129922753E+02  0.148333937E+01  0.923543966E+00
     4
 # iter = 36500  time[fs]=36.50000
   C -0.240909559E+01  0.998495293E-01  0.675670835E-01
   C  0.248593963E+01 -0.425589414E-01 -0.501749298E-01
   H -0.137236437E+02 -0.144045538E+01 -0.700821453E+00
   H  0.133634043E+02  0.152712592E+01  0.951213631E+00
     4
 # iter = 37000  time[fs]=37.00000
   C -0.248280928E+01  0.103631082E+00  0.698512397E-01
   C  0.256029742E+01 -0.449099634E-01 -0.519101810E-01
   H -0.141135038E+02 -0.148186071E+01 -0.721719831E+00
   H  0.137354146E+02  0.157101833E+01  0.978949794E+00
     4
 # iter = 37500  time[fs]=37.50000
   C -0.255700176E+01  0.107432404E+00  0.721497189E-01
   C  0.263514033E+01 -0.472797351E-01 -0.536603518E-01
   H -0.145042738E+02 -0.152337860E+01 -0.742674103E+00
   H  0.141082590E+02  0.161501110E+01  0.100674901E+01
     4
 # iter = 38000  time[fs]=38.00000
   C -0.263164578E+01  0.111252570E+00  0.744617679E-01
   C  0.271044072E+01 -0.496673925E-01 -0.554246601E-01
   H -0.148959060E+02 -0.156500326E+01 -0.763681427E+00
   H  0.144818940E+02  0.165909911E+01  0.103460809E+01
     4
 # iter = 38500  time[fs]=38.50000
   C -0.270671620E+01  0.115090713E+00  0.767866882E-01
   C  0.278617313E+01 -0.520721235E-01 -0.572023802E-01
   H -0.152883558E+02 -0.160672929E+01 -0.784739171E+00
   H  0.148562794E+02  0.170327765E+01  0.106252408E+01
     4
 # iter = 39000  time[fs]=39.00000
   C -0.278218981E+01  0.118946021E+00  0.791238307E-01
   C  0.286231402E+01 -0.544931649E-01 -0.589928380E-01
   H -0.156815822E+02 -0.164855171E+01 -0.805844890E+00
   H  0.152313779E+02  0.174754233E+01  0.109049423E+01
     4
 # iter = 39500  time[fs]=39.50000
   C -0.285804509E+01  0.122817729E+00  0.814725922E-01
   C  0.293884160E+01 -0.569297987E-01 -0.607954066E-01
   H -0.160755472E+02 -0.169046587E+01 -0.826996312E+00
   H  0.156071548E+02  0.179188907E+01  0.111851598E+01
     4
 # iter = 40000  time[fs]=40.00000
   C -0.293426212E+01  0.126705118E+00  0.838324105E-01
   C  0.301573567E+01 -0.593813491E-01 -0.626095018E-01
   H -0.164702153E+02 -0.173246747E+01 -0.848191320E+00
   H  0.159835779E+02  0.183631406E+01  0.114658696E+01
     4
 # iter = 40500  time[fs]=40.50000
   C -0.301082241E+01  0.130607514E+00  0.862027614E-01
   C  0.309297750E+01 -0.618471799E-01 -0.644345787E-01
   H -0.168655535E+02 -0.177455249E+01 -0.869427939E+00
   H  0.163606171E+02  0.188081375E+01  0.117470493E+01
     4
 # iter = 41000  time[fs]=41.00000
   C -0.308770877E+01  0.134524280E+00  0.885831557E-01
   C  0.317054967E+01 -0.643266914E-01 -0.662701286E-01
   H -0.172615312E+02 -0.181671717E+01 -0.890704324E+00
   H  0.167382444E+02  0.192538484E+01  0.120286783E+01
     4
 # iter = 41500  time[fs]=41.50000
   C -0.316490519E+01  0.138454818E+00  0.909731358E-01
   C  0.324843597E+01 -0.668193182E-01 -0.681156757E-01
   H -0.176581195E+02 -0.185895801E+01 -0.912018750E+00
   H  0.171164336E+02  0.197002422E+01  0.123107371E+01
     4
 # iter = 42000  time[fs]=42.00000
   C -0.324239677E+01  0.142398562E+00  0.933722734E-01
   C  0.332662130E+01 -0.693245269E-01 -0.699707746E-01
   H -0.180552917E+02 -0.190127174E+01 -0.933369597E+00
   H  0.174951603E+02  0.201472897E+01  0.125932074E+01
     4
 # iter = 42500  time[fs]=42.50000
   C -0.332016957E+01  0.146354980E+00  0.957801671E-01
   C  0.340509154E+01 -0.718418136E-01 -0.718350079E-01
   H -0.184530226E+02 -0.194365526E+01 -0.954755350E+00
   H  0.178744013E+02  0.205949638E+01  0.128760721E+01
     4
 # iter = 43000  time[fs]=43.00000
   C -0.339821061E+01  0.150323569E+00  0.981964406E-01
   C  0.348383354E+01 -0.743707024E-01 -0.737079838E-01
   H -0.188512886E+02 -0.198610570E+01 -0.976174583E+00
   H  0.182541352E+02  0.210432388E+01  0.131593152E+01
     4
 # iter = 43500  time[fs]=43.50000
   C -0.347650771E+01  0.154303853E+00  0.100620740E+00
   C  0.356283496E+01 -0.769107433E-01 -0.755893343E-01
   H -0.192500676E+02 -0.202862033E+01 -0.997625954E+00
   H  0.186343418E+02  0.214920905E+01  0.134429215E+01
     4
 # iter = 44000  time[fs]=44.00000
   C -0.355504948E+01  0.158295383E+00  0.103052733E+00
   C  0.364208427E+01 -0.794615101E-01 -0.774787132E-01
   H -0.196493387E+02 -0.207119662E+01 -0.101910820E+01
   H  0.190150019E+02  0.219414964E+01  0.137268767E+01
     4
 # iter = 44500  time[fs]=44.50000
   C -0.363382524E+01  0.162297734E+00  0.105492106E+00
   C  0.372157064E+01 -0.820225998E-01 -0.793757949E-01
   H -0.200490824E+02 -0.211383214E+01 -0.104062013E+01
   H  0.193960977E+02  0.223914349E+01  0.140111675E+01
     4
 # iter = 45000  time[fs]=45.00000
   C -0.371282495E+01  0.166310502E+00  0.107938564E+00
   C  0.380128392E+01 -0.845936300E-01 -0.812802722E-01
   H -0.204492802E+02 -0.215652463E+01 -0.106216063E+01
   H  0.197776121E+02  0.228418858E+01  0.142957812E+01
     4
 # iter = 45500  time[fs]=45.50000
   C -0.379203918E+01  0.170333307E+00  0.110391830E+00
   C  0.388121454E+01 -0.871742383E-01 -0.831918556E-01
   H -0.208499147E+02 -0.219927196E+01 -0.108372862E+01
   H  0.201595294E+02  0.232928302E+01  0.145807057E+01
     4
 # iter = 46000  time[fs]=46.00000
   C -0.387145907E+01  0.174365784E+00  0.112851641E+00
   C  0.396135354E+01 -0.897640808E-01 -0.851102714E-01
   H -0.212509694E+02 -0.224207209E+01 -0.110532312E+01
   H  0.205418343E+02  0.237442498E+01  0.148659297E+01
     4
 # iter = 46500  time[fs]=46.50000
   C -0.395107627E+01  0.178407592E+00  0.115317747E+00
   C  0.404169244E+01 -0.923628309E-01 -0.870352613E-01
   H -0.216524289E+02 -0.228492311E+01 -0.112694315E+01
   H  0.209245126E+02  0.241961277E+01  0.151514426E+01
     4
 # iter = 47000  time[fs]=47.00000
   C -0.403088289E+01  0.182458403E+00  0.117789916E+00
   C  0.412222328E+01 -0.949701782E-01 -0.889665806E-01
   H -0.220542782E+02 -0.232782320E+01 -0.114858784E+01
   H  0.213075509E+02  0.246484476E+01  0.154372340E+01
     4
 # iter = 47500  time[fs]=47.50000
   C -0.411087152E+01  0.186517907E+00  0.120267923E+00
   C  0.420293853E+01 -0.975858276E-01 -0.909039980E-01
   H -0.224565037E+02 -0.237077065E+01 -0.117025631E+01
   H  0.216909363E+02  0.251011941E+01  0.157232943E+01
     4
 # iter = 48000  time[fs]=48.00000
   C -0.419103512E+01  0.190585809E+00  0.122751559E+00
   C  0.428383107E+01 -0.100209498E+00 -0.928472938E-01
   H -0.228590919E+02 -0.241376382E+01 -0.119194777E+01
   H  0.220746567E+02  0.255543528E+01  0.160096145E+01
     4
 # iter = 48500  time[fs]=48.50000
   C -0.427136707E+01  0.194661827E+00  0.125240625E+00
   C  0.436489419E+01 -0.102840923E+00 -0.947962601E-01
   H -0.232620304E+02 -0.245680117E+01 -0.121366143E+01
   H  0.224587006E+02  0.260079097E+01  0.162961857E+01
     4
 # iter = 49000  time[fs]=49.00000
   C -0.435186108E+01  0.198745694E+00  0.127734929E+00
   C  0.444612153E+01 -0.105479847E+00 -0.967506993E-01
   H -0.236653074E+02 -0.249988122E+01 -0.123539657E+01
   H  0.228430570E+02  0.264618516E+01  0.165829997E+01
     4
 # iter = 49500  time[fs]=49.50000
   C -0.443251122E+01  0.202837155E+00  0.130234293E+00
   C  0.452750707E+01 -0.108126027E+00 -0.987104237E-01
   H -0.240689114E+02 -0.254300258E+01 -0.125715249E+01
   H  0.232277156E+02  0.269161660E+01  0.168700487E+01
     4
 # iter = 50000  time[fs]=50.00000
   C -0.451331183E+01  0.206935966E+00  0.132738545E+00
   C  0.460904510E+01 -0.110779232E+00 -0.100675255E+00
   H -0.244728317E+02 -0.258616390E+01 -0.127892853E+01
   H  0.236126664E+02  0.273708410E+01  0.171573250E+01
     4
 # iter = 50500  time[fs]=50.50000
   C -0.459425759E+01  0.211041896E+00  0.135247522E+00
   C  0.469073019E+01 -0.113439240E+00 -0.102645023E+00
   H -0.248770580E+02 -0.262936391E+01 -0.130072404E+01
   H  0.239979001E+02  0.278258652E+01  0.174448215E+01
     4
 # iter = 51000  time[fs]=51.00000
   C -0.467534340E+01  0.215154722E+00  0.137761070E+00
   C  0.477255722E+01 -0.116105840E+00 -0.104619567E+00
   H -0.252815807E+02 -0.267260142E+01 -0.132253844E+01
   H  0.243834076E+02  0.282812277E+01  0.177325315E+01
     4
 # iter = 51500  time[fs]=51.50000
   C -0.475656444E+01  0.219274234E+00  0.140279039E+00
   C  0.485452129E+01 -0.118778830E+00 -0.106598732E+00
   H -0.256863903E+02 -0.271587526E+01 -0.134437113E+01
   H  0.247691804E+02  0.287369181E+01  0.180204483E+01
     4
 # iter = 52000  time[fs]=52.00000
   C -0.483791614E+01  0.223400227E+00  0.142801291E+00
   C  0.493661775E+01 -0.121458018E+00 -0.108582371E+00
   H -0.260914780E+02 -0.275918432E+01 -0.136622158E+01
   H  0.251552104E+02  0.291929266E+01  0.183085658E+01
     4
 # iter = 52500  time[fs]=52.50000
   C -0.491939412E+01  0.227532509E+00  0.145327689E+00
   C  0.501884220E+01 -0.124143218E+00 -0.110570345E+00
   H -0.264968354E+02 -0.280252756E+01 -0.138808925E+01
   H  0.255414896E+02  0.296492438E+01  0.185968780E+01
     4
 # iter = 53000  time[fs]=53.00000
   C -0.500099423E+01  0.231670894E+00  0.147858107E+00
   C  0.510119041E+01 -0.126834253E+00 -0.112562520E+00
   H -0.269024543E+02 -0.284590396E+01 -0.140997364E+01
   H  0.259280106E+02  0.301058604E+01  0.188853792E+01
     4
 # iter = 53500  time[fs]=53.50000
   C -0.508271251E+01  0.235815205E+00  0.150392421E+00
   C  0.518365838E+01 -0.129530955E+00 -0.114558767E+00
   H -0.273083269E+02 -0.288931256E+01 -0.143187427E+01
   H  0.263147664E+02  0.305627680E+01  0.191740639E+01
     4
 # iter = 54000  time[fs]=54.00000
   C -0.516454517E+01  0.239965271E+00  0.152930514E+00
   C  0.526624228E+01 -0.132233161E+00 -0.116558965E+00
   H -0.277144459E+02 -0.293275244E+01 -0.145379068E+01
   H  0.267017501E+02  0.310199582E+01  0.194629270E+01
     4
 # iter = 54500  time[fs]=54.50000
   C -0.524648863E+01  0.244120930E+00  0.155472275E+00
   C  0.534893846E+01 -0.134940715E+00 -0.118562996E+00
   H -0.281208042E+02 -0.297622271E+01 -0.147572242E+01
   H  0.270889550E+02  0.314774230E+01  0.197519634E+01
     4
 # iter = 55000  time[fs]=55.00000
   C -0.532853942E+01  0.248282024E+00  0.158017595E+00
   C  0.543174343E+01 -0.137653468E+00 -0.120570749E+00
   H -0.285273949E+02 -0.301972253E+01 -0.149766908E+01
   H  0.274763751E+02  0.319351548E+01  0.200411684E+01
     4
 # iter = 55500  time[fs]=55.50000
   C -0.541069428E+01  0.252448404E+00  0.160566373E+00
   C  0.551465387E+01 -0.140371277E+00 -0.122582117E+00
   H -0.289342116E+02 -0.306325108E+01 -0.151963023E+01
   H  0.278640043E+02  0.323931463E+01  0.203305372E+01
     4
 # iter = 56000  time[fs]=56.00000
   C -0.549295005E+01  0.256619925E+00  0.163118509E+00
   C  0.559766659E+01 -0.143094003E+00 -0.124596997E+00
   H -0.293412480E+02 -0.310680759E+01 -0.154160550E+01
   H  0.282518367E+02  0.328513906E+01  0.206200656E+01
     4
 # iter = 56500  time[fs]=56.50000
   C -0.557530373E+01  0.260796450E+00  0.165673910E+00
   C  0.568077854E+01 -0.145821516E+00 -0.126615291E+00
   H -0.297484981E+02 -0.315039129E+01 -0.156359451E+01
   H  0.286398670E+02  0.333098808E+01  0.209097493E+01
     4
 # iter = 57000  time[fs]=57.00000
   C -0.565775244E+01  0.264977844E+00  0.168232485E+00
   C  0.576398681E+01 -0.148553687E+00 -0.128636903E+00
   H -0.301559561E+02 -0.319400149E+01 -0.158559690E+01
   H  0.290280897E+02  0.337686105E+01  0.211995841E+01
     4
 # iter = 57500  time[fs]=57.50000
   C -0.574029342E+01  0.269163980E+00  0.170794146E+00
   C  0.584728861E+01 -0.151290394E+00 -0.130661744E+00
   H -0.305636166E+02 -0.323763747E+01 -0.160761232E+01
   H  0.294164998E+02  0.342275735E+01  0.214895662E+01
     4
 # iter = 58000  time[fs]=58.00000
   C -0.582292403E+01  0.273354735E+00  0.173358812E+00
   C  0.593068126E+01 -0.154031520E+00 -0.132689726E+00
   H -0.309714743E+02 -0.328129858E+01 -0.162964043E+01
   H  0.298050925E+02  0.346867638E+01  0.217796918E+01
     4
 # iter = 58500  time[fs]=58.50000
   C -0.590564174E+01  0.277549990E+00  0.175926401E+00
   C  0.601416219E+01 -0.156776952E+00 -0.134720766E+00
   H -0.313795239E+02 -0.332498418E+01 -0.165168093E+01
   H  0.301938628E+02  0.351461756E+01  0.220699573E+01
     4
 # iter = 59000  time[fs]=59.00000
   C -0.598844412E+01  0.281749632E+00  0.178496837E+00
   C  0.609772895E+01 -0.159526580E+00 -0.136754783E+00
   H -0.317877606E+02 -0.336869365E+01 -0.167373349E+01
   H  0.305828065E+02  0.356058034E+01  0.223603591E+01
     4
 # iter = 59500  time[fs]=59.50000
   C -0.607132884E+01  0.285953550E+00  0.181070045E+00
   C  0.618137917E+01 -0.162280301E+00 -0.138791700E+00
   H -0.321961797E+02 -0.341242641E+01 -0.169579782E+01
   H  0.309719190E+02  0.360656418E+01  0.226508940E+01
     4
 # iter = 60000  time[fs]=60.00000
   C -0.615429365E+01  0.290161638E+00  0.183645955E+00
   C  0.626511059E+01 -0.165038011E+00 -0.140831443E+00
   H -0.326047767E+02 -0.345618187E+01 -0.171787364E+01
   H  0.313611961E+02  0.365256857E+01  0.229415586E+01
     4
 # iter = 60500  time[fs]=60.50000
   C -0.623733642E+01  0.294373794E+00  0.186224497E+00
   C  0.634892102E+01 -0.167799614E+00 -0.142873939E+00
   H -0.330135470E+02 -0.349995949E+01 -0.173996067E+01
   H  0.317506339E+02  0.369859301E+01  0.232323499E+01
     4
 # iter = 61000  time[fs]=61.00000
   C -0.632045507E+01  0.298589920E+00  0.188805605E+00
   C  0.643280838E+01 -0.170565017E+00 -0.144919121E+00
   H -0.334224866E+02 -0.354375873E+01 -0.176205863E+01
   H  0.321402285E+02  0.374463702E+01  0.235232648E+01
     4
 # iter = 61500  time[fs]=61.50000
   C -0.640364761E+01  0.302809921E+00  0.191389217E+00
   C  0.651677064E+01 -0.173334127E+00 -0.146966921E+00
   H -0.338315913E+02 -0.358757909E+01 -0.178416728E+01
   H  0.325299759E+02  0.379070015E+01  0.238143004E+01
     4
 # iter = 62000  time[fs]=62.00000
   C -0.648691212E+01  0.307033706E+00  0.193975270E+00
   C  0.660080586E+01 -0.176106857E+00 -0.149017276E+00
   H -0.342408572E+02 -0.363142007E+01 -0.180628637E+01
   H  0.329198727E+02  0.383678195E+01  0.241054539E+01
     4
 # iter = 62500  time[fs]=62.50000
   C -0.657024678E+01  0.311261184E+00  0.196563705E+00
   C  0.668491219E+01 -0.178883123E+00 -0.151070123E+00
   H -0.346502804E+02 -0.367528119E+01 -0.182841565E+01
   H  0.333099153E+02  0.388288198E+01  0.243967225E+01
     4
 # iter = 63000  time[fs]=63.00000
   C -0.665364980E+01  0.315492272E+00  0.199154466E+00
   C  0.676908783E+01 -0.181662843E+00 -0.153125403E+00
   H -0.350598575E+02 -0.371916200E+01 -0.185055490E+01
   H  0.337001004E+02  0.392899983E+01  0.246881038E+01
     4
 # iter = 63500  time[fs]=63.50000
   C -0.673711947E+01  0.319726886E+00  0.201747497E+00
   C  0.685333105E+01 -0.184445938E+00 -0.155183059E+00
   H -0.354695847E+02 -0.376306204E+01 -0.187270389E+01
   H  0.340904246E+02  0.397513510E+01  0.249795951E+01
     4
 # iter = 64000  time[fs]=64.00000
   C -0.682065416E+01  0.323964947E+00  0.204342746E+00
   C  0.693764017E+01 -0.187232331E+00 -0.157243035E+00
   H -0.358794587E+02 -0.380698089E+01 -0.189486240E+01
   H  0.344808848E+02  0.402128740E+01  0.252711939E+01
     4
 # iter = 64500  time[fs]=64.50000
   C -0.690425226E+01  0.328206376E+00  0.206940160E+00
   C  0.702201358E+01 -0.190021949E+00 -0.159305277E+00
   H -0.362894762E+02 -0.385091813E+01 -0.191703022E+01
   H  0.348714780E+02  0.406745635E+01  0.255628980E+01
     4
 # iter = 65000  time[fs]=65.00000
   C -0.698791226E+01  0.332451101E+00  0.209539690E+00
   C  0.710644975E+01 -0.192814720E+00 -0.161369734E+00
   H -0.366996340E+02 -0.389487335E+01 -0.193920716E+01
   H  0.352622012E+02  0.411364160E+01  0.258547050E+01
     4
 # iter = 65500  time[fs]=65.50000
   C -0.707163267E+01  0.336699047E+00  0.212141289E+00
   C  0.719094717E+01 -0.195610574E+00 -0.163436355E+00
   H -0.371099289E+02 -0.393884617E+01 -0.196139301E+01
   H  0.356530515E+02  0.415984278E+01  0.261466127E+01
     4
 # iter = 66000  time[fs]=66.00000
   C -0.715541207E+01  0.340950146E+00  0.214744909E+00
   C  0.727550439E+01 -0.198409446E+00 -0.165505092E+00
   H -0.375203581E+02 -0.398283622E+01 -0.198358758E+01
   H  0.360440262E+02  0.420605956E+01  0.264386189E+01
     4
 # iter = 66500  time[fs]=66.50000
   C -0.723924908E+01  0.345204329E+00  0.217350507E+00
   C  0.736012002E+01 -0.201211271E+00 -0.167575899E+00
   H -0.379309186E+02 -0.402684311E+01 -0.200579070E+01
   H  0.364351226E+02  0.425229161E+01  0.267307217E+01
     4
 # iter = 67000  time[fs]=67.00000
   C -0.732314236E+01  0.349461531E+00  0.219958038E+00
   C  0.744479271E+01 -0.204015984E+00 -0.169648729E+00
   H -0.383416076E+02 -0.407086651E+01 -0.202800218E+01
   H  0.368263381E+02  0.429853861E+01  0.270229188E+01
     4
 # iter = 67500  time[fs]=67.50000
   C -0.740709063E+01  0.353721688E+00  0.222567461E+00
   C  0.752952116E+01 -0.206823526E+00 -0.171723540E+00
   H -0.387524224E+02 -0.411490607E+01 -0.205022186E+01
   H  0.372176703E+02  0.434480025E+01  0.273152085E+01
     4
 # iter = 68000  time[fs]=68.00000
   C -0.749109266E+01  0.357984738E+00  0.225178735E+00
   C  0.761430411E+01 -0.209633838E+00 -0.173800287E+00
   H -0.391633603E+02 -0.415896145E+01 -0.207244955E+01
   H  0.376091166E+02  0.439107622E+01  0.276075888E+01
     4
 # iter = 68500  time[fs]=68.50000
   C -0.757514723E+01  0.362250622E+00  0.227791820E+00
   C  0.769914033E+01 -0.212446862E+00 -0.175878932E+00
   H -0.395744189E+02 -0.420303233E+01 -0.209468511E+01
   H  0.380006747E+02  0.443736625E+01  0.279000578E+01
     4
 # iter = 69000  time[fs]=69.00000
   C -0.765925318E+01  0.366519282E+00  0.230406679E+00
   C  0.778402866E+01 -0.215262543E+00 -0.177959433E+00
   H -0.399855956E+02 -0.424711841E+01 -0.211692836E+01
   H  0.383923424E+02  0.448367004E+01  0.281926139E+01
     4
 # iter = 69500  time[fs]=69.50000
   C -0.774340939E+01  0.370790662E+00  0.233023275E+00
   C  0.786896794E+01 -0.218080827E+00 -0.180041751E+00
   H -0.403968881E+02 -0.429121937E+01 -0.213917917E+01
   H  0.387841174E+02  0.452998732E+01  0.284852552E+01
     4
 # iter = 70000  time[fs]=70.00000
   C -0.782761476E+01  0.375064706E+00  0.235641572E+00
   C  0.795395708E+01 -0.220901662E+00 -0.182125850E+00
   H -0.408082940E+02 -0.433533493E+01 -0.216143738E+01
   H  0.391759976E+02  0.457631782E+01  0.287779801E+01
     4
 # iter = 70500  time[fs]=70.50000
   C -0.791186824E+01  0.379341363E+00  0.238261534E+00
   C  0.803899500E+01 -0.223724998E+00 -0.184211694E+00
   H -0.412198110E+02 -0.437946479E+01 -0.218370285E+01
   H  0.395679808E+02  0.462266129E+01  0.290707869E+01
     4
 # iter = 71000  time[fs]=71.00000
   C -0.799616881E+01  0.383620580E+00  0.240883129E+00
   C  0.812408067E+01 -0.226550784E+00 -0.186299246E+00
   H -0.416314371E+02 -0.442360868E+01 -0.220597544E+01
   H  0.399600651E+02  0.466901748E+01  0.293636741E+01
     4
 # iter = 71500  time[fs]=71.50000
   C -0.808051548E+01  0.387902307E+00  0.243506323E+00
   C  0.820921309E+01 -0.229378974E+00 -0.188388472E+00
   H -0.420431700E+02 -0.446776633E+01 -0.222825501E+01
   H  0.403522485E+02  0.471538614E+01  0.296566402E+01
     4
 # iter = 72000  time[fs]=72.00000
   C -0.816490729E+01  0.392186497E+00  0.246131085E+00
   C  0.829439127E+01 -0.232209521E+00 -0.190479341E+00
   H -0.424550077E+02 -0.451193748E+01 -0.225054142E+01
   H  0.407445291E+02  0.476176703E+01  0.299496835E+01
     4
 # iter = 72500  time[fs]=72.50000
   C -0.824934330E+01  0.396473102E+00  0.248757384E+00
   C  0.837961429E+01 -0.235042379E+00 -0.192571818E+00
   H -0.428669482E+02 -0.455612188E+01 -0.227283456E+01
   H  0.411369049E+02  0.480815993E+01  0.302428028E+01
     4
 # iter = 73000  time[fs]=73.00000
   C -0.833382261E+01  0.400762075E+00  0.251385190E+00
   C  0.846488121E+01 -0.237877505E+00 -0.194665874E+00
   H -0.432789895E+02 -0.460031927E+01 -0.229513430E+01
   H  0.415293743E+02  0.485456461E+01  0.305359965E+01
     4
 # iter = 73500  time[fs]=73.50000
   C -0.841834434E+01  0.405053374E+00  0.254014474E+00
   C  0.855019115E+01 -0.240714857E+00 -0.196761476E+00
   H -0.436911297E+02 -0.464452942E+01 -0.231744051E+01
   H  0.419219355E+02  0.490098086E+01  0.308292634E+01
     4
 # iter = 74000  time[fs]=74.00000
   C -0.850290765E+01  0.409346954E+00  0.256645208E+00
   C  0.863554326E+01 -0.243554393E+00 -0.198858597E+00
   H -0.441033671E+02 -0.468875209E+01 -0.233975308E+01
   H  0.423145867E+02  0.494740846E+01  0.311226020E+01
     4
 # iter = 74500  time[fs]=74.50000
   C -0.858751171E+01  0.413642773E+00  0.259277364E+00
   C  0.872093669E+01 -0.246396072E+00 -0.200957208E+00
   H -0.445156998E+02 -0.473298705E+01 -0.236207189E+01
   H  0.427073263E+02  0.499384720E+01  0.314160110E+01
     4
 # iter = 75000  time[fs]=75.00000
   C -0.867215571E+01  0.417940790E+00  0.261910915E+00
   C  0.880637063E+01 -0.249239855E+00 -0.203057279E+00
   H -0.449281260E+02 -0.477723409E+01 -0.238439683E+01
   H  0.431001527E+02  0.504029689E+01  0.317094893E+01
     4
 # iter = 75500  time[fs]=75.50000
   C -0.875683889E+01  0.422240965E+00  0.264545836E+00
   C  0.889184430E+01 -0.252085704E+00 -0.205158785E+00
   H -0.453406441E+02 -0.482149298E+01 -0.240672779E+01
   H  0.434930644E+02  0.508675733E+01  0.320030355E+01
     4
 # iter = 76000  time[fs]=76.00000
   C -0.884156047E+01  0.426543260E+00  0.267182102E+00
   C  0.897735692E+01 -0.254933583E+00 -0.207261699E+00
   H -0.457532524E+02 -0.486576352E+01 -0.242906467E+01
   H  0.438860597E+02  0.513322834E+01  0.322966485E+01
     4
 # iter = 76500  time[fs]=76.50000
   C -0.892631973E+01  0.430847637E+00  0.269819687E+00
   C  0.906290775E+01 -0.257783454E+00 -0.209365994E+00
   H -0.461659493E+02 -0.491004550E+01 -0.245140735E+01
   H  0.442791372E+02  0.517970972E+01  0.325903271E+01
     4
 # iter = 77000  time[fs]=77.00000
   C -0.901111595E+01  0.435154058E+00  0.272458568E+00
   C  0.914849607E+01 -0.260635283E+00 -0.211471647E+00
   H -0.465787333E+02 -0.495433873E+01 -0.247375575E+01
   H  0.446722955E+02  0.522620129E+01  0.328840702E+01
     4
 # iter = 77500  time[fs]=77.50000
   C -0.909594844E+01  0.439462488E+00  0.275098722E+00
   C  0.923412117E+01 -0.263489035E+00 -0.213578633E+00
   H -0.469916028E+02 -0.499864301E+01 -0.249610977E+01
   H  0.450655331E+02  0.527270289E+01  0.331778766E+01
     4
 # iter = 78000  time[fs]=78.00000
   C -0.918081653E+01  0.443772893E+00  0.277740126E+00
   C  0.931978237E+01 -0.266344677E+00 -0.215686928E+00
   H -0.474045563E+02 -0.504295815E+01 -0.251846930E+01
   H  0.454588487E+02  0.531921433E+01  0.334717453E+01
     4
 # iter = 78500  time[fs]=78.50000
   C -0.926571954E+01  0.448085238E+00  0.280382758E+00
   C  0.940547899E+01 -0.269202176E+00 -0.217796509E+00
   H -0.478175924E+02 -0.508728396E+01 -0.254083425E+01
   H  0.458522409E+02  0.536573546E+01  0.337656752E+01
     4
 # iter = 79000  time[fs]=79.00000
   C -0.935065685E+01  0.452399489E+00  0.283026596E+00
   C  0.949121040E+01 -0.272061500E+00 -0.219907353E+00
   H -0.482307097E+02 -0.513162027E+01 -0.256320454E+01
   H  0.462457084E+02  0.541226611E+01  0.340596653E+01
     4
 # iter = 79500  time[fs]=79.50000
   C -0.943562783E+01  0.456715615E+00  0.285671619E+00
   C  0.957697597E+01 -0.274922619E+00 -0.222019439E+00
   H -0.486439068E+02 -0.517596691E+01 -0.258558008E+01
   H  0.466392500E+02  0.545880612E+01  0.343537146E+01
     4
 # iter = 80000  time[fs]=80.00000
   C -0.952063188E+01  0.461033584E+00  0.288317808E+00
   C  0.966277507E+01 -0.277785503E+00 -0.224132746E+00
   H -0.490571824E+02 -0.522032369E+01 -0.260796077E+01
   H  0.470328644E+02  0.550535533E+01  0.346478221E+01
