     4
 # iter = 25000  time[fs]=25.00000
   C -0.105663231E+01  0.721734392E-03 -0.210600043E-01
   C  0.994809903E+00 -0.183766895E-01  0.506918621E-03
   H -0.540246401E+01 -0.552796947E+00  0.438308120E+00
   H  0.536672917E+01  0.119800419E+00 -0.465769843E+00
     4
 # iter = 25500  time[fs]=25.50000
   C -0.110949353E+01  0.301068023E-02 -0.217121826E-01
   C  0.103909600E+01 -0.191353525E-01  0.271834333E-02
   H -0.573524711E+01 -0.585505124E+00  0.467921376E+00
   H  0.568672359E+01  0.129356186E+00 -0.494570847E+00
     4
 # iter = 26000  time[fs]=26.00000
   C -0.116637041E+01  0.535689162E-02 -0.224200447E-01
   C  0.108739452E+01 -0.199350609E-01  0.498597830E-02
   H -0.607058194E+01 -0.618488756E+00  0.497771579E+00
   H  0.600930875E+01  0.138992767E+00 -0.523615115E+00
     4
 # iter = 26500  time[fs]=26.50000
   C -0.122689900E+01  0.775824126E-02 -0.231812481E-01
   C  0.113934150E+01 -0.207755100E-01  0.730748328E-02
   H -0.640819200E+01 -0.651717838E+00  0.527833418E+00
   H  0.633420791E+01  0.148702028E+00 -0.552877364E+00
     4
 # iter = 27000  time[fs]=27.00000
   C -0.129074151E+01  0.102122799E-01 -0.239931913E-01
   C  0.119459925E+01 -0.216557776E-01  0.968025053E-02
   H -0.674784295E+01 -0.685167099E+00  0.558085498E+00
   H  0.666118594E+01  0.158477021E+00 -0.582336124E+00
     4
 # iter = 27500  time[fs]=27.50000
   C -0.135758842E+01  0.127163614E-01 -0.248531318E-01
   C  0.125285832E+01 -0.225745108E-01  0.121015260E-01
   H -0.708933454E+01 -0.718815040E+00  0.588509566E+00
   H  0.699004148E+01  0.168311767E+00 -0.611973002E+00
     4
 # iter = 28000  time[fs]=28.00000
   C -0.142715870E+01  0.152677486E-01 -0.257582821E-01
   C  0.131383780E+01 -0.235300771E-01  0.145685073E-01
   H -0.743249432E+01 -0.752643218E+00  0.619089914E+00
   H  0.732060078E+01  0.178201079E+00 -0.641772113E+00
     4
 # iter = 28500  time[fs]=28.50000
   C -0.149919889E+01  0.178636957E-01 -0.267058831E-01
   C  0.137728434E+01 -0.245206826E-01  0.170784187E-01
   H -0.777717277E+01 -0.786635682E+00  0.649812926E+00
   H  0.765271291E+01  0.188140429E+00 -0.671719640E+00
     4
 # iter = 29000  time[fs]=29.00000
   C -0.157348140E+01  0.205015094E-01 -0.276932562E-01
   C  0.144297046E+01 -0.255444599E-01  0.196285639E-01
   H -0.812323942E+01 -0.820778544E+00  0.680666714E+00
   H  0.798624599E+01  0.198125839E+00 -0.701803485E+00
     4
 # iter = 29500  time[fs]=29.50000
   C -0.164980245E+01  0.231785906E-01 -0.287178382E-01
   C  0.151069253E+01 -0.265995316E-01  0.222163619E-01
   H -0.847057979E+01 -0.855059629E+00  0.711640841E+00
   H  0.832108408E+01  0.208153795E+00 -0.732012994E+00
     4
 # iter = 30000  time[fs]=30.00000
   C -0.172797993E+01  0.258924622E-01 -0.297772028E-01
   C  0.158026853E+01 -0.276840550E-01  0.248393683E-01
   H -0.881909289E+01 -0.889468204E+00  0.742726085E+00
   H  0.865712480E+01  0.218221176E+00 -0.762338733E+00
     4
 # iter = 30500  time[fs]=30.50000
   C -0.180785113E+01  0.286407846E-01 -0.308690711E-01
   C  0.165153587E+01 -0.287962510E-01  0.274952871E-01
   H -0.916868917E+01 -0.923994759E+00  0.773914262E+00
   H  0.899427723E+01  0.228325199E+00 -0.792772304E+00
     4
 # iter = 31000  time[fs]=31.00000
   C -0.188927072E+01  0.314213630E-01 -0.319913160E-01
   C  0.172434934E+01 -0.299344228E-01  0.301819738E-01
   H -0.951928889E+01 -0.958630823E+00  0.805198068E+00
   H  0.933246032E+01  0.238463369E+00 -0.823306203E+00
     4
 # iter = 31500  time[fs]=31.50000
   C -0.197210880E+01  0.342321485E-01 -0.331419600E-01
   C  0.179857913E+01 -0.310969663E-01  0.328974346E-01
   H -0.987082074E+01 -0.993368817E+00  0.836570962E+00
   H  0.967160151E+01  0.248633441E+00 -0.853933690E+00
     4
 # iter = 32000  time[fs]=32.00000
   C -0.205624911E+01  0.370712358E-01 -0.343191703E-01
   C  0.187410909E+01 -0.322823742E-01  0.356398212E-01
   H -0.102232207E+02 -0.102820193E+01  0.868027058E+00
   H  0.100116356E+02  0.258833390E+00 -0.884648693E+00
     4
 # iter = 32500  time[fs]=32.50000
   C -0.214158751E+01  0.399368570E-01 -0.355212524E-01
   C  0.195083516E+01 -0.334892375E-01  0.384074238E-01
   H -0.105764310E+02 -0.106312403E+01  0.899561043E+00
   H  0.103525037E+02  0.269061378E+00 -0.915445716E+00
     4
 # iter = 33000  time[fs]=33.00000
   C -0.222803049E+01  0.428273748E-01 -0.367466408E-01
   C  0.202866394E+01 -0.347162428E-01  0.411986631E-01
   H -0.109303996E+02 -0.109812955E+01  0.931168101E+00
   H  0.106941527E+02  0.279315735E+00 -0.946319774E+00
     4
 # iter = 33500  time[fs]=33.50000
   C -0.231549400E+01  0.457412745E-01 -0.379938914E-01
   C  0.210751144E+01 -0.359621689E-01  0.440120810E-01
   H -0.112850791E+02 -0.113321345E+01  0.962843854E+00
   H  0.110365341E+02  0.289594937E+00 -0.977266326E+00
     4
 # iter = 34000  time[fs]=34.00000
   C -0.240390232E+01  0.486771557E-01 -0.392616714E-01
   C  0.218730204E+01 -0.372258823E-01  0.468463320E-01
   H -0.116404265E+02 -0.116837114E+01  0.994584311E+00
   H  0.113796041E+02  0.299897592E+00 -0.100828123E+01
     4
 # iter = 34500  time[fs]=34.50000
   C -0.249318711E+01  0.516337234E-01 -0.405487515E-01
   C  0.226796746E+01 -0.385063317E-01  0.497001746E-01
   H -0.119964025E+02 -0.120359840E+01  0.102638582E+01
   H  0.117233223E+02  0.310222421E+00 -0.103936068E+01
     4
 # iter = 35000  time[fs]=35.00000
   C -0.258328655E+01  0.546097804E-01 -0.418539970E-01
   C  0.234944596E+01 -0.398025425E-01  0.525724623E-01
   H -0.123529710E+02 -0.123889140E+01  0.105824504E+01
   H  0.120676521E+02  0.320568250E+00 -0.107050119E+01
     4
 # iter = 35500  time[fs]=35.50000
   C -0.267414462E+01  0.576042192E-01 -0.431763599E-01
   C  0.243168158E+01 -0.411136114E-01  0.554621365E-01
   H -0.127100993E+02 -0.127424660E+01  0.109015889E+01
   H  0.124125596E+02  0.330933995E+00 -0.110169957E+01
     4
 # iter = 36000  time[fs]=36.00000
   C -0.276571044E+01  0.606160146E-01 -0.445148719E-01
   C  0.251462351E+01 -0.424387011E-01  0.583682182E-01
   H -0.130677570E+02 -0.130966074E+01  0.112212453E+01
   H  0.127580138E+02  0.341318657E+00 -0.113295284E+01
     4
 # iter = 36500  time[fs]=36.50000
   C -0.285793772E+01  0.636442170E-01 -0.458686373E-01
   C  0.259822551E+01 -0.437770351E-01  0.612898020E-01
   H -0.134259161E+02 -0.134513083E+01  0.115413935E+01
   H  0.131039861E+02  0.351721309E+00 -0.116425827E+01
     4
 # iter = 37000  time[fs]=37.00000
   C -0.295078424E+01  0.666879463E-01 -0.472368270E-01
   C  0.268244543E+01 -0.451278931E-01  0.642260492E-01
   H -0.137845509E+02 -0.138065409E+01  0.118620093E+01
   H  0.134504501E+02  0.362141093E+00 -0.119561333E+01
     4
 # iter = 37500  time[fs]=37.50000
   C -0.304421145E+01  0.697463855E-01 -0.486186722E-01
   C  0.276724476E+01 -0.464906060E-01  0.671761824E-01
   H -0.141436375E+02 -0.141622794E+01  0.121830701E+01
   H  0.137973811E+02  0.372577211E+00 -0.122701566E+01
     4
 # iter = 38000  time[fs]=38.00000
   C -0.313818403E+01  0.728187758E-01 -0.500134600E-01
   C  0.285258824E+01 -0.478645523E-01  0.701394801E-01
   H -0.145031538E+02 -0.145184999E+01  0.125045551E+01
   H  0.141447566E+02  0.383028918E+00 -0.125846307E+01
     4
 # iter = 38500  time[fs]=38.50000
   C -0.323266962E+01  0.759044119E-01 -0.514205281E-01
   C  0.293844355E+01 -0.492491541E-01  0.731152720E-01
   H -0.148630794E+02 -0.148751802E+01  0.128264450E+01
   H  0.144925554E+02  0.393495523E+00 -0.128995353E+01
     4
 # iter = 39000  time[fs]=39.00000
   C -0.332763847E+01  0.790026368E-01 -0.528392606E-01
   C  0.302478098E+01 -0.506438732E-01  0.761029347E-01
   H -0.152233949E+02 -0.152322996E+01  0.131487214E+01
   H  0.148407579E+02  0.403976378E+00 -0.132148513E+01
     4
 # iter = 39500  time[fs]=39.50000
   C -0.342306321E+01  0.821128386E-01 -0.542690841E-01
   C  0.311157322E+01 -0.520482083E-01  0.791018875E-01
   H -0.155840828E+02 -0.155898387E+01  0.134713676E+01
   H  0.151893457E+02  0.414470876E+00 -0.135305609E+01
     4
 # iter = 40000  time[fs]=40.00000
   C -0.351891860E+01  0.852344464E-01 -0.557094642E-01
   C  0.319879504E+01 -0.534616917E-01  0.821115891E-01
   H -0.159451263E+02 -0.159477795E+01  0.137943677E+01
   H  0.155383017E+02  0.424978450E+00 -0.138466475E+01
     4
 # iter = 40500  time[fs]=40.50000
   C -0.361518131E+01  0.883669268E-01 -0.571599022E-01
   C  0.328642319E+01 -0.548838870E-01  0.851315343E-01
   H -0.163065099E+02 -0.163061051E+01  0.141177070E+01
   H  0.158876100E+02  0.435498568E+00 -0.141630955E+01
     4
 # iter = 41000  time[fs]=41.00000
   C -0.371182979E+01  0.915097815E-01 -0.586199321E-01
   C  0.337443612E+01 -0.563143861E-01  0.881612510E-01
   H -0.166682191E+02 -0.166647995E+01  0.144413713E+01
   H  0.162372556E+02  0.446030729E+00 -0.144798902E+01
     4
 # iter = 41500  time[fs]=41.50000
   C -0.380884405E+01  0.946625435E-01 -0.600891182E-01
   C  0.346281390E+01 -0.577528074E-01  0.912002975E-01
   H -0.170302402E+02 -0.170238479E+01  0.147653478E+01
   H  0.165872244E+02  0.456574462E+00 -0.147970179E+01
     4
 # iter = 42000  time[fs]=42.00000
   C -0.390620555E+01  0.978247758E-01 -0.615670524E-01
   C  0.355153800E+01 -0.591987933E-01  0.942482601E-01
   H -0.173925604E+02 -0.173832362E+01  0.150896242E+01
   H  0.169375033E+02  0.467129324E+00 -0.151144655E+01
     4
 # iter = 42500  time[fs]=42.50000
   C -0.400389705E+01  0.100996068E+00 -0.630533524E-01
   C  0.364059123E+01 -0.606520087E-01  0.973047508E-01
   H -0.177551677E+02 -0.177429513E+01  0.154141888E+01
   H  0.172880798E+02  0.477694895E+00 -0.154322209E+01
     4
 # iter = 43000  time[fs]=43.00000
   C -0.410190251E+01  0.104176035E+00 -0.645476590E-01
   C  0.372995757E+01 -0.621121392E-01  0.100369406E+00
   H -0.181180508E+02 -0.181029807E+01  0.157390307E+01
   H  0.176389422E+02  0.488270781E+00 -0.157502726E+01
     4
 # iter = 43500  time[fs]=43.50000
   C -0.420020699E+01  0.107364315E+00 -0.660496353E-01
   C  0.381962211E+01 -0.635788894E-01  0.103441883E+00
   H -0.184811989E+02 -0.184633127E+01  0.160641397E+01
   H  0.179900795E+02  0.498856608E+00 -0.160686095E+01
     4
 # iter = 44000  time[fs]=44.00000
   C -0.429879653E+01  0.110560567E+00 -0.675589639E-01
   C  0.390957092E+01 -0.650519814E-01  0.106521860E+00
   H -0.188446021E+02 -0.188239362E+01  0.163895060E+01
   H  0.183414814E+02  0.509452023E+00 -0.163872216E+01
     4
 # iter = 44500  time[fs]=44.50000
   C -0.439765810E+01  0.113764470E+00 -0.690753465E-01
   C  0.399979098E+01 -0.665311540E-01  0.109609035E+00
   H -0.192082508E+02 -0.191848407E+01  0.167151204E+01
   H  0.186931380E+02  0.520056691E+00 -0.167060989E+01
     4
 # iter = 45000  time[fs]=45.00000
   C -0.449677949E+01  0.116975721E+00 -0.705985018E-01
   C  0.409027012E+01 -0.680161607E-01  0.112703121E+00
   H -0.195721361E+02 -0.195460162E+01  0.170409741E+01
   H  0.190450401E+02  0.530670294E+00 -0.170252323E+01
     4
 # iter = 45500  time[fs]=45.50000
   C -0.459614927E+01  0.120194036E+00 -0.721281645E-01
   C  0.418099694E+01 -0.695067694E-01  0.115803849E+00
   H -0.199362493E+02 -0.199074535E+01  0.173670590E+01
   H  0.193971788E+02  0.541292532E+00 -0.173446129E+01
     4
 # iter = 46000  time[fs]=46.00000
   C -0.469575673E+01  0.123419144E+00 -0.736640839E-01
   C  0.427196073E+01 -0.710027608E-01  0.118910966E+00
   H -0.203005826E+02 -0.202691435E+01  0.176933671E+01
   H  0.197495459E+02  0.551923117E+00 -0.176642326E+01
     4
 # iter = 46500  time[fs]=46.50000
   C -0.479559179E+01  0.126650790E+00 -0.752060235E-01
   C  0.436315145E+01 -0.725039279E-01  0.122024230E+00
   H -0.206651281E+02 -0.206310777E+01  0.180198910E+01
   H  0.201021335E+02  0.562561778E+00 -0.179840833E+01
     4
 # iter = 47000  time[fs]=47.00000
   C -0.489564499E+01  0.129888733E+00 -0.767537593E-01
   C  0.445455965E+01 -0.740100748E-01  0.125143413E+00
   H -0.210298787E+02 -0.209932482E+01  0.183466236E+01
   H  0.204549340E+02  0.573208255E+00 -0.183041576E+01
     4
 # iter = 47500  time[fs]=47.50000
   C -0.499590743E+01  0.133132745E+00 -0.783070793E-01
   C  0.454617645E+01 -0.755210163E-01  0.128268301E+00
   H -0.213948276E+02 -0.213556472E+01  0.186735582E+01
   H  0.208079403E+02  0.583862302E+00 -0.186244483E+01
     4
 # iter = 48000  time[fs]=48.00000
   C -0.509637071E+01  0.136382608E+00 -0.798657826E-01
   C  0.463799348E+01 -0.770365768E-01  0.131398690E+00
   H -0.217599681E+02 -0.217182675E+01  0.190006884E+01
   H  0.211611458E+02  0.594523683E+00 -0.189449486E+01
     4
 # iter = 48500  time[fs]=48.50000
   C -0.519702691E+01  0.139638117E+00 -0.814296789E-01
   C  0.473000283E+01 -0.785565900E-01  0.134534385E+00
   H -0.221252940E+02 -0.220811021E+01  0.193280081E+01
   H  0.215145438E+02  0.605192175E+00 -0.192656520E+01
     4
 # iter = 49000  time[fs]=49.00000
   C -0.529786858E+01  0.142899077E+00 -0.829985872E-01
   C  0.482219706E+01 -0.800808981E-01  0.137675202E+00
   H -0.224907994E+02 -0.224441444E+01  0.196555113E+01
   H  0.218681283E+02  0.615867563E+00 -0.195865523E+01
     4
 # iter = 49500  time[fs]=49.50000
   C -0.539888864E+01  0.146165303E+00 -0.845723358E-01
   C  0.491456911E+01 -0.816093513E-01  0.140820968E+00
   H -0.228564786E+02 -0.228073880E+01  0.199831926E+01
   H  0.222218935E+02  0.626549642E+00 -0.199076436E+01
     4
 # iter = 50000  time[fs]=50.00000
   C -0.550008042E+01  0.149436618E+00 -0.861507616E-01
   C  0.500711234E+01 -0.831418071E-01  0.143971516E+00
   H -0.232223263E+02 -0.231708270E+01  0.203110467E+01
   H  0.225758338E+02  0.637238217E+00 -0.202289201E+01
     4
 # iter = 50500  time[fs]=50.50000
   C -0.560143761E+01  0.152712854E+00 -0.877337091E-01
   C  0.509982043E+01 -0.846781302E-01  0.147126687E+00
   H -0.235883372E+02 -0.235344556E+01  0.206390683E+01
   H  0.229299438E+02  0.647933101E+00 -0.205503766E+01
     4
 # iter = 51000  time[fs]=51.00000
   C -0.570295421E+01  0.155993852E+00 -0.893210306E-01
   C  0.519268741E+01 -0.862181917E-01  0.150286333E+00
   H -0.239545066E+02 -0.238982682E+01  0.209672528E+01
   H  0.232842184E+02  0.658634115E+00 -0.208720079E+01
     4
 # iter = 51500  time[fs]=51.50000
   C -0.580462454E+01  0.159279458E+00 -0.909125851E-01
   C  0.528570762E+01 -0.877618691E-01  0.153450308E+00
   H -0.243208297E+02 -0.242622596E+01  0.212955955E+01
   H  0.236386528E+02  0.669341086E+00 -0.211938089E+01
     4
 # iter = 52000  time[fs]=52.00000
   C -0.590644321E+01  0.162569529E+00 -0.925082384E-01
   C  0.537887567E+01 -0.893090454E-01  0.156618477E+00
   H -0.246873019E+02 -0.246264247E+01  0.216240918E+01
   H  0.239932424E+02  0.680053852E+00 -0.215157750E+01
     4
 # iter = 52500  time[fs]=52.50000
   C -0.600840511E+01  0.165863924E+00 -0.941078624E-01
   C  0.547218647E+01 -0.908596091E-01  0.159790708E+00
   H -0.250539191E+02 -0.249907587E+01  0.219527375E+01
   H  0.243479826E+02  0.690772254E+00 -0.218379016E+01
     4
 # iter = 53000  time[fs]=53.00000
   C -0.611050536E+01  0.169162512E+00 -0.957113347E-01
   C  0.556563515E+01 -0.924134540E-01  0.162966878E+00
   H -0.254206770E+02 -0.253552569E+01  0.222815286E+01
   H  0.247028693E+02  0.701496140E+00 -0.221601843E+01
     4
 # iter = 53500  time[fs]=53.50000
   C -0.621273935E+01  0.172465167E+00 -0.973185384E-01
   C  0.565921711E+01 -0.939704784E-01  0.166146867E+00
   H -0.257875718E+02 -0.257199149E+01  0.226104611E+01
   H  0.250578983E+02  0.712225365E+00 -0.224826189E+01
     4
 # iter = 54000  time[fs]=54.00000
   C -0.631510265E+01  0.175771766E+00 -0.989293619E-01
   C  0.575292794E+01 -0.955305853E-01  0.169330562E+00
   H -0.261545997E+02 -0.260847284E+01  0.229395312E+01
   H  0.254130658E+02  0.722959791E+00 -0.228052015E+01
     4
 # iter = 54500  time[fs]=54.50000
   C -0.641759108E+01  0.179082195E+00 -0.100543698E+00
   C  0.584676346E+01 -0.970936820E-01  0.172517853E+00
   H -0.265217570E+02 -0.264496933E+01  0.232687353E+01
   H  0.257683679E+02  0.733699282E+00 -0.231279281E+01
     4
 # iter = 55000  time[fs]=55.00000
   C -0.652020062E+01  0.182396342E+00 -0.102161445E+00
   C  0.594071967E+01 -0.986596798E-01  0.175708637E+00
   H -0.268890402E+02 -0.268148057E+01  0.235980700E+01
   H  0.261238010E+02  0.744443710E+00 -0.234507951E+01
     4
 # iter = 55500  time[fs]=55.50000
   C -0.662292747E+01  0.185714102E+00 -0.103782505E+00
   C  0.603479276E+01 -0.100228494E+00  0.178902814E+00
   H -0.272564461E+02 -0.271800617E+01  0.239275319E+01
   H  0.264793617E+02  0.755192950E+00 -0.237737989E+01
     4
 # iter = 56000  time[fs]=56.00000
   C -0.672576796E+01  0.189035373E+00 -0.105406784E+00
   C  0.612897911E+01 -0.101800042E+00  0.182100287E+00
   H -0.276239713E+02 -0.275454578E+01  0.242571177E+01
   H  0.268350467E+02  0.765946883E+00 -0.240969360E+01
     4
 # iter = 56500  time[fs]=56.50000
   C -0.682871863E+01  0.192360056E+00 -0.107034191E+00
   C  0.622327523E+01 -0.103374248E+00  0.185300966E+00
   H -0.279916129E+02 -0.279109904E+01  0.245868244E+01
   H  0.271908527E+02  0.776705394E+00 -0.244202032E+01
     4
 # iter = 57000  time[fs]=57.00000
   C -0.693177615E+01  0.195688059E+00 -0.108664641E+00
   C  0.631767781E+01 -0.104951036E+00  0.188504762E+00
   H -0.283593678E+02 -0.282766562E+01  0.249166490E+01
   H  0.275467767E+02  0.787468372E+00 -0.247435972E+01
     4
 # iter = 57500  time[fs]=57.50000
   C -0.703493732E+01  0.199019291E+00 -0.110298051E+00
   C  0.641218367E+01 -0.106530334E+00  0.191711590E+00
   H -0.287272332E+02 -0.286424518E+01  0.252465887E+01
   H  0.279028157E+02  0.798235710E+00 -0.250671150E+01
     4
 # iter = 58000  time[fs]=58.00000
   C -0.713819910E+01  0.202353667E+00 -0.111934341E+00
   C  0.650678978E+01 -0.108112074E+00  0.194921370E+00
   H -0.290952064E+02 -0.290083742E+01  0.255766406E+01
   H  0.282589668E+02  0.809007305E+00 -0.253907536E+01
     4
 # iter = 58500  time[fs]=58.50000
   C -0.724155857E+01  0.205691103E+00 -0.113573435E+00
   C  0.660149322E+01 -0.109696190E+00  0.198134024E+00
   H -0.294632846E+02 -0.293744203E+01  0.259068020E+01
   H  0.286152274E+02  0.819783057E+00 -0.257145101E+01
     4
 # iter = 59000  time[fs]=59.00000
   C -0.734501295E+01  0.209031520E+00 -0.115215260E+00
   C  0.669629120E+01 -0.111282618E+00  0.201349477E+00
   H -0.298314653E+02 -0.297405872E+01  0.262370705E+01
   H  0.289715946E+02  0.830562871E+00 -0.260383819E+01
     4
 # iter = 59500  time[fs]=59.50000
   C -0.744855954E+01  0.212374840E+00 -0.116859744E+00
   C  0.679118106E+01 -0.112871297E+00  0.204567656E+00
   H -0.301997461E+02 -0.301068721E+01  0.265674435E+01
   H  0.293280661E+02  0.841346654E+00 -0.263623662E+01
     4
 # iter = 60000  time[fs]=60.00000
   C -0.755219577E+01  0.215720990E+00 -0.118506819E+00
   C  0.688616023E+01 -0.114462169E+00  0.207788492E+00
   H -0.305681246E+02 -0.304732723E+01  0.268979186E+01
   H  0.296846393E+02  0.852134315E+00 -0.266864605E+01
     4
 # iter = 60500  time[fs]=60.50000
   C -0.765591919E+01  0.219069899E+00 -0.120156422E+00
   C  0.698122625E+01 -0.116055177E+00  0.211011919E+00
   H -0.309365985E+02 -0.308397851E+01  0.272284936E+01
   H  0.300413119E+02  0.862925769E+00 -0.270106624E+01
     4
 # iter = 61000  time[fs]=61.00000
   C -0.775972741E+01  0.222421499E+00 -0.121808487E+00
   C  0.707637676E+01 -0.117650267E+00  0.214237872E+00
   H -0.313051656E+02 -0.312064081E+01  0.275591661E+01
   H  0.303980814E+02  0.873720932E+00 -0.273349693E+01
     4
 # iter = 61500  time[fs]=61.50000
   C -0.786361817E+01  0.225775723E+00 -0.123462955E+00
   C  0.717160948E+01 -0.119247386E+00  0.217466289E+00
   H -0.316738238E+02 -0.315731387E+01  0.278899340E+01
   H  0.307549459E+02  0.884519722E+00 -0.276593790E+01
     4
 # iter = 62000  time[fs]=62.00000
   C -0.796758928E+01  0.229132507E+00 -0.125119767E+00
   C  0.726692225E+01 -0.120846484E+00  0.220697111E+00
   H -0.320425709E+02 -0.319399746E+01  0.282207952E+01
   H  0.311119030E+02  0.895322062E+00 -0.279838892E+01
     4
 # iter = 62500  time[fs]=62.50000
   C -0.807163863E+01  0.232491791E+00 -0.126778867E+00
   C  0.736231296E+01 -0.122447513E+00  0.223930279E+00
   H -0.324114050E+02 -0.323069135E+01  0.285517476E+01
   H  0.314689507E+02  0.906127876E+00 -0.283084978E+01
     4
 # iter = 63000  time[fs]=63.00000
   C -0.817576421E+01  0.235853516E+00 -0.128440199E+00
   C  0.745777959E+01 -0.124050425E+00  0.227165738E+00
   H -0.327803241E+02 -0.326739533E+01  0.288827894E+01
   H  0.318260870E+02  0.916937090E+00 -0.286332027E+01
     4
 # iter = 63500  time[fs]=63.50000
   C -0.827996405E+01  0.239217623E+00 -0.130103713E+00
   C  0.755332020E+01 -0.125655176E+00  0.230403435E+00
   H -0.331493265E+02 -0.330410916E+01  0.292139186E+01
   H  0.321833100E+02  0.927749632E+00 -0.289580018E+01
     4
 # iter = 64000  time[fs]=64.00000
   C -0.838423629E+01  0.242584058E+00 -0.131769356E+00
   C  0.764893293E+01 -0.127261722E+00  0.233643317E+00
   H -0.335184103E+02 -0.334083265E+01  0.295451334E+01
   H  0.325406178E+02  0.938565435E+00 -0.292828932E+01
     4
 # iter = 64500  time[fs]=64.50000
   C -0.848857913E+01  0.245952768E+00 -0.133437081E+00
   C  0.774461598E+01 -0.128870021E+00  0.236885335E+00
   H -0.338875736E+02 -0.337756560E+01  0.298764320E+01
   H  0.328980086E+02  0.949384432E+00 -0.296078749E+01
     4
 # iter = 65000  time[fs]=65.00000
   C -0.859299081E+01  0.249323701E+00 -0.135106838E+00
   C  0.784036760E+01 -0.130480032E+00  0.240129440E+00
   H -0.342568150E+02 -0.341430780E+01  0.302078127E+01
   H  0.332554806E+02  0.960206557E+00 -0.299329451E+01
     4
 # iter = 65500  time[fs]=65.50000
   C -0.869746966E+01  0.252696807E+00 -0.136778584E+00
   C  0.793618612E+01 -0.132091715E+00  0.243375585E+00
   H -0.346261326E+02 -0.345105908E+01  0.305392737E+01
   H  0.336130321E+02  0.971031747E+00 -0.302581021E+01
     4
 # iter = 66000  time[fs]=66.00000
   C -0.880201407E+01  0.256072038E+00 -0.138452273E+00
   C  0.803206993E+01 -0.133705034E+00  0.246623726E+00
   H -0.349955250E+02 -0.348781924E+01  0.308708136E+01
   H  0.339706614E+02  0.981859943E+00 -0.305833440E+01
     4
 # iter = 66500  time[fs]=66.50000
   C -0.890662246E+01  0.259449348E+00 -0.140127863E+00
   C  0.812801747E+01 -0.135319951E+00  0.249873818E+00
   H -0.353649905E+02 -0.352458811E+01  0.312024306E+01
   H  0.343283671E+02  0.992691085E+00 -0.309086692E+01
     4
 # iter = 67000  time[fs]=67.00000
   C -0.901129334E+01  0.262828691E+00 -0.141805313E+00
   C  0.822402725E+01 -0.136936431E+00  0.253125819E+00
   H -0.357345278E+02 -0.356136552E+01  0.315341234E+01
   H  0.346861474E+02  0.100352511E+01 -0.312340760E+01
     4
 # iter = 67500  time[fs]=67.50000
   C -0.911602524E+01  0.266210024E+00 -0.143484581E+00
   C  0.832009780E+01 -0.138554439E+00  0.256379688E+00
   H -0.361041353E+02 -0.359815129E+01  0.318658903E+01
   H  0.350440010E+02  0.101436198E+01 -0.315595629E+01
     4
 # iter = 68000  time[fs]=68.00000
   C -0.922081675E+01  0.269593304E+00 -0.145165631E+00
   C  0.841622772E+01 -0.140173942E+00  0.259635386E+00
   H -0.364738116E+02 -0.363494527E+01  0.321977300E+01
   H  0.354019263E+02  0.102520162E+01 -0.318851283E+01
     4
 # iter = 68500  time[fs]=68.50000
   C -0.932566652E+01  0.272978491E+00 -0.146848422E+00
   C  0.851241566E+01 -0.141794908E+00  0.262892873E+00
   H -0.368435554E+02 -0.367174730E+01  0.325296410E+01
   H  0.357599220E+02  0.103604398E+01 -0.322107708E+01
     4
 # iter = 69000  time[fs]=69.00000
   C -0.943057324E+01  0.276365545E+00 -0.148532921E+00
   C  0.860866031E+01 -0.143417306E+00  0.266152113E+00
   H -0.372133654E+02 -0.370855722E+01  0.328616221E+01
   H  0.361179866E+02  0.104688903E+01 -0.325364887E+01
     4
 # iter = 69500  time[fs]=69.50000
   C -0.953553562E+01  0.279754427E+00 -0.150219090E+00
   C  0.870496040E+01 -0.145041106E+00  0.269413070E+00
   H -0.375832402E+02 -0.374537489E+01  0.331936718E+01
   H  0.364761189E+02  0.105773669E+01 -0.328622808E+01
     4
 # iter = 70000  time[fs]=70.00000
   C -0.964055245E+01  0.283145100E+00 -0.151906896E+00
   C  0.880131470E+01 -0.146666278E+00  0.272675708E+00
   H -0.379531787E+02 -0.378220016E+01  0.335257890E+01
   H  0.368343175E+02  0.106858694E+01 -0.331881457E+01
     4
 # iter = 70500  time[fs]=70.50000
   C -0.974562252E+01  0.286537527E+00 -0.153596306E+00
   C  0.889772203E+01 -0.148292794E+00  0.275939993E+00
   H -0.383231796E+02 -0.381903289E+01  0.338579723E+01
   H  0.371925811E+02  0.107943971E+01 -0.335140820E+01
     4
 # iter = 71000  time[fs]=71.00000
   C -0.985074469E+01  0.289931675E+00 -0.155287288E+00
   C  0.899418125E+01 -0.149920627E+00  0.279205894E+00
   H -0.386932417E+02 -0.385587294E+01  0.341902205E+01
   H  0.375509086E+02  0.109029497E+01 -0.338400884E+01
     4
 # iter = 71500  time[fs]=71.50000
   C -0.995591784E+01  0.293327508E+00 -0.156979809E+00
   C  0.909069123E+01 -0.151549749E+00  0.282473376E+00
   H -0.390633639E+02 -0.389272018E+01  0.345225325E+01
   H  0.379092988E+02  0.110115267E+01 -0.341661636E+01
     4
 # iter = 72000  time[fs]=72.00000
   C -0.100611409E+02  0.296724994E+00 -0.158673841E+00
   C  0.918725089E+01 -0.153180135E+00  0.285742411E+00
   H -0.394335451E+02 -0.392957448E+01  0.348549071E+01
   H  0.382677504E+02  0.111201276E+01 -0.344923065E+01
     4
 # iter = 72500  time[fs]=72.50000
   C -0.101664128E+02  0.300124100E+00 -0.160369352E+00
   C  0.928385921E+01 -0.154811761E+00  0.289012966E+00
   H -0.398037842E+02 -0.396643572E+01  0.351873433E+01
   H  0.386262625E+02  0.112287521E+01 -0.348185158E+01
     4
 # iter = 73000  time[fs]=73.00000
   C -0.102717325E+02  0.303524795E+00 -0.162066316E+00
   C  0.938051515E+01 -0.156444600E+00  0.292285014E+00
   H -0.401740801E+02 -0.400330376E+01  0.355198398E+01
   H  0.389848338E+02  0.113373997E+01 -0.351447903E+01
     4
 # iter = 73500  time[fs]=73.50000
   C -0.103770991E+02  0.306927049E+00 -0.163764704E+00
   C  0.947721775E+01 -0.158078631E+00  0.295558525E+00
   H -0.405444319E+02 -0.404017850E+01  0.358523957E+01
   H  0.393434633E+02  0.114460700E+01 -0.354711290E+01
     4
 # iter = 74000  time[fs]=74.00000
   C -0.104825116E+02  0.310330833E+00 -0.165464488E+00
   C  0.957396605E+01 -0.159713829E+00  0.298833473E+00
   H -0.409148385E+02 -0.407705981E+01  0.361850099E+01
   H  0.397021500E+02  0.115547627E+01 -0.357975307E+01
     4
 # iter = 74500  time[fs]=74.50000
   C -0.105879691E+02  0.313736118E+00 -0.167165643E+00
   C  0.967075913E+01 -0.161350172E+00  0.302109829E+00
   H -0.412852989E+02 -0.411394758E+01  0.365176814E+01
   H  0.400608928E+02  0.116634773E+01 -0.361239942E+01
     4
 # iter = 75000  time[fs]=75.00000
   C -0.106934706E+02  0.317142875E+00 -0.168868144E+00
   C  0.976759608E+01 -0.162987640E+00  0.305387568E+00
   H -0.416558122E+02 -0.415084171E+01  0.368504093E+01
   H  0.404196909E+02  0.117722136E+01 -0.364505187E+01
     4
 # iter = 75500  time[fs]=75.50000
   C -0.107990153E+02  0.320551079E+00 -0.170571964E+00
   C  0.986447605E+01 -0.164626209E+00  0.308666665E+00
   H -0.420263776E+02 -0.418774207E+01  0.371831925E+01
   H  0.407785431E+02  0.118809710E+01 -0.367771030E+01
     4
 # iter = 76000  time[fs]=76.00000
   C -0.109046024E+02  0.323960702E+00 -0.172277081E+00
   C  0.996139818E+01 -0.166265861E+00  0.311947095E+00
   H -0.423969940E+02 -0.422464858E+01  0.375160302E+01
   H  0.411374487E+02  0.119897494E+01 -0.371037461E+01
     4
 # iter = 76500  time[fs]=76.50000
   C -0.110102310E+02  0.327371719E+00 -0.173983471E+00
   C  0.100583617E+02 -0.167906575E+00  0.315228833E+00
   H -0.427676606E+02 -0.426156112E+01  0.378489215E+01
   H  0.414964066E+02  0.120985483E+01 -0.374304471E+01
     4
 # iter = 77000  time[fs]=77.00000
   C -0.111159003E+02  0.330784104E+00 -0.175691110E+00
   C  0.101553657E+02 -0.169548331E+00  0.318511856E+00
   H -0.431383766E+02 -0.429847959E+01  0.381818654E+01
   H  0.418554160E+02  0.122073673E+01 -0.377572050E+01
     4
 # iter = 77500  time[fs]=77.50000
   C -0.112216095E+02  0.334197835E+00 -0.177399977E+00
   C  0.102524095E+02 -0.171191111E+00  0.321796142E+00
   H -0.435091412E+02 -0.433540391E+01  0.385148612E+01
   H  0.422144760E+02  0.123162063E+01 -0.380840189E+01
     4
 # iter = 78000  time[fs]=78.00000
   C -0.113273580E+02  0.337612886E+00 -0.179110050E+00
   C  0.103494923E+02 -0.172834897E+00  0.325081668E+00
   H -0.438799534E+02 -0.437233397E+01  0.388479079E+01
   H  0.425735859E+02  0.124250648E+01 -0.384108879E+01
     4
 # iter = 78500  time[fs]=78.50000
   C -0.114331449E+02  0.341029235E+00 -0.180821308E+00
   C  0.104466134E+02 -0.174479669E+00  0.328368413E+00
   H -0.442508126E+02 -0.440926967E+01  0.391810047E+01
   H  0.429327446E+02  0.125339426E+01 -0.387378111E+01
     4
 # iter = 79000  time[fs]=79.00000
   C -0.115389696E+02  0.344446860E+00 -0.182533730E+00
   C  0.105437721E+02 -0.176125412E+00  0.331656355E+00
   H -0.446217180E+02 -0.444621094E+01  0.395141509E+01
   H  0.432919516E+02  0.126428393E+01 -0.390647877E+01
     4
 # iter = 79500  time[fs]=79.50000
   C -0.116448313E+02  0.347865738E+00 -0.184247296E+00
   C  0.106409676E+02 -0.177772108E+00  0.334945475E+00
   H -0.449926687E+02 -0.448315768E+01  0.398473456E+01
   H  0.436512059E+02  0.127517546E+01 -0.393918167E+01
     4
 # iter = 80000  time[fs]=80.00000
   C -0.117507294E+02  0.351285848E+00 -0.185961987E+00
   C  0.107381994E+02 -0.179419740E+00  0.338235751E+00
   H -0.453636642E+02 -0.452010981E+01  0.401805881E+01
   H  0.440105069E+02  0.128606883E+01 -0.397188974E+01
