     4
 # iter = 25000  time[fs]=25.00000
   C -0.100605717E+01 -0.163742927E-01 -0.262291468E-01
   C  0.989192798E+00  0.111084851E-01 -0.769944137E-02
   H -0.522371550E+01 -0.379264044E+00  0.427704714E+00
   H  0.528471414E+01 -0.214346278E+00 -0.441268025E+00
     4
 # iter = 25500  time[fs]=25.50000
   C -0.105280792E+01 -0.144827415E-01 -0.273235163E-01
   C  0.103180429E+01  0.123298665E-01 -0.514608120E-02
   H -0.555956692E+01 -0.400039496E+00  0.458401950E+00
   H  0.560581843E+01 -0.227434200E+00 -0.467028721E+00
     4
 # iter = 26000  time[fs]=26.00000
   C -0.110254027E+01 -0.126024497E-01 -0.284734552E-01
   C  0.107739372E+01  0.136169713E-01 -0.253894489E-02
   H -0.590095128E+01 -0.421228157E+00  0.489622032E+00
   H  0.593249952E+01 -0.240762480E+00 -0.493290743E+00
     4
 # iter = 26500  time[fs]=26.50000
   C -0.115500626E+01 -0.107309924E-01 -0.296770233E-01
   C  0.112571155E+01  0.149611006E-01  0.120378487E-03
   H -0.624723584E+01 -0.442780762E+00  0.521305665E+00
   H  0.626414374E+01 -0.254305097E+00 -0.519999012E+00
     4
 # iter = 27000  time[fs]=27.00000
   C -0.120997461E+01 -0.886625245E-02 -0.309321061E-01
   C  0.117652545E+01  0.163548540E-01  0.283004941E-02
   H -0.659788496E+01 -0.464656049E+00  0.553402744E+00
   H  0.660022782E+01 -0.268039913E+00 -0.547106721E+00
     4
 # iter = 27500  time[fs]=27.50000
   C -0.126723182E+01 -0.700642257E-02 -0.322364668E-01
   C  0.122962132E+01  0.177919389E-01  0.558804847E-02
   H -0.695244212E+01 -0.486819171E+00  0.585870605E+00
   H  0.694030287E+01 -0.281947951E+00 -0.574573815E+00
     4
 # iter = 28000  time[fs]=28.00000
   C -0.132658243E+01 -0.514998577E-02 -0.335878006E-01
   C  0.128480331E+01  0.192670016E-01  0.839224385E-02
   H -0.731051564E+01 -0.509240465E+00  0.618672664E+00
   H  0.728398152E+01 -0.296012834E+00 -0.602365785E+00
     4
 # iter = 28500  time[fs]=28.50000
   C -0.138784842E+01 -0.329568549E-02 -0.349837826E-01
   C  0.134189325E+01  0.207754810E-01  0.112404499E-01
   H -0.767176745E+01 -0.531894496E+00  0.651777339E+00
   H  0.763092764E+01 -0.310220341E+00 -0.630452720E+00
     4
 # iter = 29000  time[fs]=29.00000
   C -0.145086835E+01 -0.144249214E-02 -0.364221089E-01
   C  0.140072968E+01  0.223134830E-01  0.141304751E-01
   H -0.803590406E+01 -0.554759312E+00  0.685157205E+00
   H  0.798084802E+01 -0.324558052E+00 -0.658808546E+00
     4
 # iter = 29500  time[fs]=29.50000
   C -0.151549619E+01  0.410429910E-03 -0.379005268E-01
   C  0.146116663E+01  0.238776744E-01  0.170601585E-01
   H -0.840266931E+01 -0.577815848E+00  0.718788308E+00
   H  0.833348564E+01 -0.339015060E+00 -0.687410406E+00
     4
 # iter = 30000  time[fs]=30.00000
   C -0.158160005E+01  0.226375283E-02 -0.394168583E-01
   C  0.152307236E+01  0.254651933E-01  0.200273973E-01
   H -0.877183851E+01 -0.601047451E+00  0.752649615E+00
   H  0.868861414E+01 -0.353581742E+00 -0.716238173E+00
     4
 # iter = 30500  time[fs]=30.50000
   C -0.164906093E+01  0.411801246E-02 -0.409690158E-01
   C  0.158632804E+01  0.270735744E-01  0.230301655E-01
   H -0.914321359E+01 -0.624439497E+00  0.786722570E+00
   H  0.904603327E+01 -0.368249567E+00 -0.745274029E+00
     4
 # iter = 31000  time[fs]=31.00000
   C -0.171777142E+01  0.597363184E-02 -0.425550112E-01
   C  0.165082649E+01  0.287006863E-01  0.260665266E-01
   H -0.951661923E+01 -0.647979082E+00  0.820990725E+00
   H  0.940556518E+01 -0.383010939E+00 -0.774502143E+00
     4
 # iter = 31500  time[fs]=31.50000
   C -0.178763463E+01  0.783094109E-02 -0.441729619E-01
   C  0.171647102E+01  0.303446797E-01  0.291346403E-01
   H -0.989189955E+01 -0.671654767E+00  0.855439435E+00
   H  0.976705125E+01 -0.397859070E+00 -0.803908382E+00
     4
 # iter = 32000  time[fs]=32.00000
   C -0.185856300E+01  0.969019431E-02 -0.458210918E-01
   C  0.178317434E+01  0.320039442E-01  0.322327661E-01
   H -0.102689154E+02 -0.695456364E+00  0.890055616E+00
   H  0.101303495E+02 -0.412787867E+00 -0.833480086E+00
     4
 # iter = 32500  time[fs]=32.50000
   C -0.193047741E+01  0.115515835E-01 -0.474977307E-01
   C  0.185085754E+01  0.336770718E-01  0.353592639E-01
   H -0.106475422E+02 -0.719374769E+00  0.924827524E+00
   H  0.104953325E+02 -0.427791846E+00 -0.863205873E+00
     4
 # iter = 33000  time[fs]=33.00000
   C -0.200330621E+01  0.134152501E-01 -0.492013118E-01
   C  0.191944924E+01  0.353628273E-01  0.385125917E-01
   H -0.110276679E+02 -0.743401811E+00  0.959744591E+00
   H  0.108618852E+02 -0.442866052E+00 -0.893075473E+00
     4
 # iter = 33500  time[fs]=33.50000
   C -0.207698447E+01  0.152812946E-01 -0.509303675E-01
   C  0.198888472E+01  0.370601229E-01  0.416913034E-01
   H -0.114091914E+02 -0.767530134E+00  0.994797267E+00
   H  0.112299038E+02 -0.458005994E+00 -0.923079591E+00
     4
 # iter = 34000  time[fs]=34.00000
   C -0.215145325E+01  0.171497845E-01 -0.526835251E-01
   C  0.205910526E+01  0.387679973E-01  0.448940438E-01
   H -0.117920213E+02 -0.791753089E+00  0.102997690E+01
   H  0.115992941E+02 -0.473207593E+00 -0.953209791E+00
     4
 # iter = 34500  time[fs]=34.50000
   C -0.222665893E+01  0.190207604E-01 -0.544595013E-01
   C  0.213005750E+01  0.404855978E-01  0.481195451E-01
   H -0.121760746E+02 -0.816064653E+00  0.106527563E+01
   H  0.119699705E+02 -0.488467128E+00 -0.983458391E+00
     4
 # iter = 35000  time[fs]=35.00000
   C -0.230255271E+01  0.208942415E-01 -0.562570972E-01
   C  0.220169282E+01  0.422121655E-01  0.513666210E-01
   H -0.125612759E+02 -0.840459349E+00  0.110068628E+01
   H  0.123418550E+02 -0.503781201E+00 -0.101381838E+01
     4
 # iter = 35500  time[fs]=35.50000
   C -0.237909005E+01  0.227702301E-01 -0.580751927E-01
   C  0.227396690E+01  0.439470230E-01  0.546341627E-01
   H -0.129475563E+02 -0.864932186E+00  0.113620232E+01
   H  0.127148763E+02 -0.519146699E+00 -0.104428334E+01
     4
 # iter = 36000  time[fs]=36.00000
   C -0.245623024E+01  0.246487146E-01 -0.599127415E-01
   C  0.234683923E+01  0.456895634E-01  0.579211331E-01
   H -0.133348528E+02 -0.889478603E+00  0.117181774E+01
   H  0.130889688E+02 -0.534560763E+00 -0.107484739E+01
     4
 # iter = 36500  time[fs]=36.50000
   C -0.253393605E+01  0.265296728E-01 -0.617687660E-01
   C  0.242027275E+01  0.474392415E-01  0.612265625E-01
   H -0.137231076E+02 -0.914094421E+00  0.120752703E+01
   H  0.134640728E+02 -0.550020764E+00 -0.110550512E+01
     4
 # iter = 37000  time[fs]=37.00000
   C -0.261217329E+01  0.284130741E-01 -0.636423522E-01
   C  0.249423347E+01  0.491955659E-01  0.645495440E-01
   H -0.141122677E+02 -0.938775800E+00  0.124332513E+01
   H  0.138401329E+02 -0.565524275E+00 -0.113625153E+01
     4
 # iter = 37500  time[fs]=37.50000
   C -0.269091061E+01  0.302988812E-01 -0.655326455E-01
   C  0.256869020E+01  0.509580925E-01  0.678892286E-01
   H -0.145022843E+02 -0.963519208E+00  0.127920737E+01
   H  0.142170983E+02 -0.581069054E+00 -0.116708203E+01
     4
 # iter = 38000  time[fs]=38.00000
   C -0.277011913E+01  0.321870522E-01 -0.674388463E-01
   C  0.264361421E+01  0.527264190E-01  0.712448216E-01
   H -0.148931121E+02 -0.988321388E+00  0.131516941E+01
   H  0.145949219E+02 -0.596653027E+00 -0.119799236E+01
     4
 # iter = 38500  time[fs]=38.50000
   C -0.284977225E+01  0.340775412E-01 -0.693602058E-01
   C  0.271897908E+01  0.545001797E-01  0.746155785E-01
   H -0.152847096E+02 -0.101317933E+01  0.135120727E+01
   H  0.149735602E+02 -0.612274267E+00 -0.122897856E+01
     4
 # iter = 39000  time[fs]=39.00000
   C -0.292984542E+01  0.359702998E-01 -0.712960224E-01
   C  0.279476039E+01  0.562790417E-01  0.780008015E-01
   H -0.156770381E+02 -0.103809024E+01  0.138731723E+01
   H  0.153529727E+02 -0.627930987E+00 -0.126003697E+01
     4
 # iter = 39500  time[fs]=39.50000
   C -0.301031595E+01  0.378652779E-01 -0.732456383E-01
   C  0.287093558E+01  0.580627007E-01  0.813998357E-01
   H -0.160700618E+02 -0.106305153E+01  0.142349585E+01
   H  0.157331221E+02 -0.643621522E+00 -0.129116418E+01
     4
 # iter = 40000  time[fs]=40.00000
   C -0.309116282E+01  0.397624240E-01 -0.752084362E-01
   C  0.294748378E+01  0.598508784E-01  0.848120665E-01
   H -0.164637474E+02 -0.108806080E+01  0.145973992E+01
   H  0.161139734E+02 -0.659344320E+00 -0.132235701E+01
     4
 # iter = 40500  time[fs]=40.50000
   C -0.317236654E+01  0.416616862E-01 -0.771838364E-01
   C  0.302438563E+01  0.616433196E-01  0.882369164E-01
   H -0.168580638E+02 -0.111311581E+01  0.149604644E+01
   H  0.164954941E+02 -0.675097931E+00 -0.135361250E+01
     4
 # iter = 41000  time[fs]=41.00000
   C -0.325390904E+01  0.435630124E-01 -0.791712941E-01
   C  0.310162315E+01  0.634397895E-01  0.916738424E-01
   H -0.172529821E+02 -0.113821448E+01  0.153241263E+01
   H  0.168776538E+02 -0.690881002E+00 -0.138492788E+01
     4
 # iter = 41500  time[fs]=41.50000
   C -0.333577347E+01  0.454663505E-01 -0.811702967E-01
   C  0.317917964E+01  0.652400720E-01  0.951223337E-01
   H -0.176484754E+02 -0.116335485E+01  0.156883586E+01
   H  0.172604242E+02 -0.706692263E+00 -0.141630056E+01
     4
 # iter = 42000  time[fs]=42.00000
   C -0.341794419E+01  0.473716492E-01 -0.831803617E-01
   C  0.325703955E+01  0.670439674E-01  0.985819089E-01
   H -0.180445184E+02 -0.118853510E+01  0.160531370E+01
   H  0.176437786E+02 -0.722530525E+00 -0.144772809E+01
     4
 # iter = 42500  time[fs]=42.50000
   C -0.350040659E+01  0.492788577E-01 -0.852010345E-01
   C  0.333518836E+01  0.688512913E-01  0.102052115E+00
   H -0.184410874E+02 -0.121375352E+01  0.164184386E+01
   H  0.180276923E+02 -0.738394672E+00 -0.147920821E+01
     4
 # iter = 43000  time[fs]=43.00000
   C -0.358314703E+01  0.511879259E-01 -0.872318864E-01
   C  0.341361255E+01  0.706618728E-01  0.105532523E+00
   H -0.188381602E+02 -0.123900852E+01  0.167842417E+01
   H  0.184121418E+02 -0.754283654E+00 -0.151073877E+01
     4
 # iter = 43500  time[fs]=43.50000
   C -0.366615276E+01  0.530988049E-01 -0.892725127E-01
   C  0.349229946E+01  0.724755531E-01  0.109022730E+00
   H -0.192357160E+02 -0.126429858E+01  0.171505261E+01
   H  0.187971052E+02 -0.770196483E+00 -0.154231775E+01
     4
 # iter = 44000  time[fs]=44.00000
   C -0.374941186E+01  0.550114470E-01 -0.913225312E-01
   C  0.357123724E+01  0.742921848E-01  0.112522354E+00
   H -0.196337352E+02 -0.128962231E+01  0.175172728E+01
   H  0.191825619E+02 -0.786132228E+00 -0.157394326E+01
     4
 # iter = 44500  time[fs]=44.50000
   C -0.383291316E+01  0.569258052E-01 -0.933815807E-01
   C  0.365041482E+01  0.761116306E-01  0.116031035E+00
   H -0.200321993E+02 -0.131497835E+01  0.178844637E+01
   H  0.195684924E+02 -0.802090011E+00 -0.160561350E+01
     4
 # iter = 45000  time[fs]=45.00000
   C -0.391664615E+01  0.588418341E-01 -0.954493193E-01
   C  0.372982178E+01  0.779337625E-01  0.119548430E+00
   H -0.204310911E+02 -0.134036547E+01  0.182520821E+01
   H  0.199548783E+02 -0.818069004E+00 -0.163732679E+01
     4
 # iter = 45500  time[fs]=45.50000
   C -0.400060100E+01  0.607594894E-01 -0.975254234E-01
   C  0.380944835E+01  0.797584608E-01  0.123074217E+00
   H -0.208303941E+02 -0.136578248E+01  0.186201118E+01
   H  0.203417024E+02 -0.834068423E+00 -0.166908153E+01
     4
 # iter = 46000  time[fs]=46.00000
   C -0.408476845E+01  0.626787280E-01 -0.996095863E-01
   C  0.388928534E+01  0.815856137E-01  0.126608089E+00
   H -0.212300928E+02 -0.139122826E+01  0.189885378E+01
   H  0.207289483E+02 -0.850087526E+00 -0.170087621E+01
     4
 # iter = 46500  time[fs]=46.50000
   C -0.416913978E+01  0.645995081E-01 -0.101701517E+00
   C  0.396932411E+01  0.834151165E-01  0.130149755E+00
   H -0.216301726E+02 -0.141670175E+01  0.193573457E+01
   H  0.211166005E+02 -0.866125611E+00 -0.173270939E+01
     4
 # iter = 47000  time[fs]=47.00000
   C -0.425370678E+01  0.665217891E-01 -0.103800940E+00
   C  0.404955653E+01  0.852468709E-01  0.133698939E+00
   H -0.220306197E+02 -0.144220196E+01  0.197265219E+01
   H  0.215046444E+02 -0.882182012E+00 -0.176457973E+01
     4
 # iter = 47500  time[fs]=47.50000
   C -0.433846171E+01  0.684455317E-01 -0.105907593E+00
   C  0.412997489E+01  0.870807846E-01  0.137255380E+00
   H -0.224314210E+02 -0.146772793E+01  0.200960537E+01
   H  0.218930660E+02 -0.898256098E+00 -0.179648593E+01
     4
 # iter = 48000  time[fs]=48.00000
   C -0.442339726E+01  0.703706978E-01 -0.108021227E+00
   C  0.421057197E+01  0.889167710E-01  0.140818827E+00
   H -0.228325639E+02 -0.149327877E+01  0.204659288E+01
   H  0.222818523E+02 -0.914347268E+00 -0.182842677E+01
     4
 # iter = 48500  time[fs]=48.50000
   C -0.450850652E+01  0.722972506E-01 -0.110141604E+00
   C  0.429134091E+01  0.907547484E-01  0.144389045E+00
   H -0.232340368E+02 -0.151885363E+01  0.208361356E+01
   H  0.226709907E+02 -0.930454953E+00 -0.186040110E+01
     4
 # iter = 49000  time[fs]=49.00000
   C -0.459378295E+01  0.742251541E-01 -0.112268500E+00
   C  0.437227523E+01  0.925946398E-01  0.147965807E+00
   H -0.236358283E+02 -0.154445170E+01  0.212066631E+01
   H  0.230604694E+02 -0.946578610E+00 -0.189240781E+01
     4
 # iter = 49500  time[fs]=49.50000
   C -0.467922039E+01  0.761543739E-01 -0.114401700E+00
   C  0.445336881E+01  0.944363727E-01  0.151548898E+00
   H -0.240379279E+02 -0.157007220E+01  0.215775008E+01
   H  0.234502771E+02 -0.962717722E+00 -0.192444586E+01
     4
 # iter = 50000  time[fs]=50.00000
   C -0.476481296E+01  0.780848765E-01 -0.116540999E+00
   C  0.453461583E+01  0.962798785E-01  0.155138114E+00
   H -0.244403255E+02 -0.159571441E+01  0.219486388E+01
   H  0.238404029E+02 -0.978871798E+00 -0.195651423E+01
     4
 # iter = 50500  time[fs]=50.50000
   C -0.485055512E+01  0.800166294E-01 -0.118686202E+00
   C  0.461601080E+01  0.981250924E-01  0.158733259E+00
   H -0.248430113E+02 -0.162137762E+01  0.223200675E+01
   H  0.242308367E+02 -0.995040368E+00 -0.198861198E+01
     4
 # iter = 51000  time[fs]=51.00000
   C -0.493644158E+01  0.819496014E-01 -0.120837122E+00
   C  0.469754848E+01  0.999719530E-01  0.162334147E+00
   H -0.252459763E+02 -0.164706118E+01  0.226917778E+01
   H  0.246215688E+02 -0.101122299E+01 -0.202073820E+01
     4
 # iter = 51500  time[fs]=51.50000
   C -0.502246735E+01  0.838837621E-01 -0.122993583E+00
   C  0.477922392E+01  0.101820402E+00  0.165940600E+00
   H -0.256492115E+02 -0.167276444E+01  0.230637612E+01
   H  0.250125898E+02 -0.102741922E+01 -0.205289202E+01
     4
 # iter = 52000  time[fs]=52.00000
   C -0.510862767E+01  0.858190821E-01 -0.125155413E+00
   C  0.486103240E+01  0.103670385E+00  0.169552447E+00
   H -0.260527088E+02 -0.169848681E+01  0.234360093E+01
   H  0.254038908E+02 -0.104362867E+01 -0.208507261E+01
     4
 # iter = 52500  time[fs]=52.50000
   C -0.519491800E+01  0.877555330E-01 -0.127322451E+00
   C  0.494296943E+01  0.105521849E+00  0.173169527E+00
   H -0.264564600E+02 -0.172422771E+01  0.238085143E+01
   H  0.257954633E+02 -0.105985094E+01 -0.211727917E+01
     4
 # iter = 53000  time[fs]=53.00000
   C -0.528133404E+01  0.896930875E-01 -0.129494541E+00
   C  0.502503074E+01  0.107374745E+00  0.176791682E+00
   H -0.268604576E+02 -0.174998658E+01  0.241812686E+01
   H  0.261872993E+02 -0.107608565E+01 -0.214951095E+01
     4
 # iter = 53500  time[fs]=53.50000
   C -0.536787169E+01  0.916317189E-01 -0.131671535E+00
   C  0.510721228E+01  0.109229025E+00  0.180418764E+00
   H -0.272646942E+02 -0.177576289E+01  0.245542649E+01
   H  0.265793910E+02 -0.109233246E+01 -0.218176722E+01
     4
 # iter = 54000  time[fs]=54.00000
   C -0.545452703E+01  0.935714014E-01 -0.133853290E+00
   C  0.518951016E+01  0.111084645E+00  0.184050631E+00
   H -0.276691630E+02 -0.180155615E+01  0.249274964E+01
   H  0.269717310E+02 -0.110859101E+01 -0.221404729E+01
     4
 # iter = 54500  time[fs]=54.50000
   C -0.554129633E+01  0.955121103E-01 -0.136039669E+00
   C  0.527192069E+01  0.112941561E+00  0.187687146E+00
   H -0.280738571E+02 -0.182736586E+01  0.253009564E+01
   H  0.273643121E+02 -0.112486098E+01 -0.224635048E+01
     4
 # iter = 55000  time[fs]=55.00000
   C -0.562817602E+01  0.974538214E-01 -0.138230543E+00
   C  0.535444033E+01  0.114799733E+00  0.191328177E+00
   H -0.284787703E+02 -0.185319157E+01  0.256746386E+01
   H  0.277571275E+02 -0.114114206E+01 -0.227867617E+01
     4
 # iter = 55500  time[fs]=55.50000
   C -0.571516271E+01  0.993965114E-01 -0.140425784E+00
   C  0.543706572E+01  0.116659122E+00  0.194973600E+00
   H -0.288838963E+02 -0.187903282E+01  0.260485369E+01
   H  0.281501708E+02 -0.115743393E+01 -0.231102374E+01
     4
 # iter = 56000  time[fs]=56.00000
   C -0.580225314E+01  0.101340158E+00 -0.142625274E+00
   C  0.551979365E+01  0.118519691E+00  0.198623292E+00
   H -0.292892293E+02 -0.190488920E+01  0.264226454E+01
   H  0.285434357E+02 -0.117373632E+01 -0.234339259E+01
     4
 # iter = 56500  time[fs]=56.50000
   C -0.588944420E+01  0.103284738E+00 -0.144828896E+00
   C  0.560262102E+01  0.120381405E+00  0.202277138E+00
   H -0.296947637E+02 -0.193076030E+01  0.267969585E+01
   H  0.289369161E+02 -0.119004894E+01 -0.237578216E+01
     4
 # iter = 57000  time[fs]=57.00000
   C -0.597673292E+01  0.105230232E+00 -0.147036540E+00
   C  0.568554489E+01  0.122244229E+00  0.205935028E+00
   H -0.301004941E+02 -0.195664571E+01  0.271714708E+01
   H  0.293306063E+02 -0.120637153E+01 -0.240819192E+01
     4
 # iter = 57500  time[fs]=57.50000
   C -0.606411645E+01  0.107176619E+00 -0.149248098E+00
   C  0.576856245E+01  0.124108132E+00  0.209596853E+00
   H -0.305064152E+02 -0.198254507E+01  0.275461771E+01
   H  0.297245008E+02 -0.122270382E+01 -0.244062133E+01
     4
 # iter = 58000  time[fs]=58.00000
   C -0.615159205E+01  0.109123879E+00 -0.151463468E+00
   C  0.585167098E+01  0.125973082E+00  0.213262510E+00
   H -0.309125220E+02 -0.200845801E+01  0.279210725E+01
   H  0.301185941E+02 -0.123904558E+01 -0.247306989E+01
     4
 # iter = 58500  time[fs]=58.50000
   C -0.623915712E+01  0.111071992E+00 -0.153682551E+00
   C  0.593486791E+01  0.127839049E+00  0.216931902E+00
   H -0.313188097E+02 -0.203438419E+01  0.282961522E+01
   H  0.305128812E+02 -0.125539656E+01 -0.250553713E+01
     4
 # iter = 59000  time[fs]=59.00000
   C -0.632680913E+01  0.113020940E+00 -0.155905252E+00
   C  0.601815074E+01  0.129706006E+00  0.220604932E+00
   H -0.317252738E+02 -0.206032326E+01  0.286714114E+01
   H  0.309073572E+02 -0.127175653E+01 -0.253802257E+01
     4
 # iter = 59500  time[fs]=59.50000
   C -0.641454570E+01  0.114970705E+00 -0.158131480E+00
   C  0.610151710E+01  0.131573924E+00  0.224281508E+00
   H -0.321319097E+02 -0.208627490E+01  0.290468459E+01
   H  0.313020173E+02 -0.128812527E+01 -0.257052577E+01
     4
 # iter = 60000  time[fs]=60.00000
   C -0.650236449E+01  0.116921270E+00 -0.160361146E+00
   C  0.618496469E+01  0.133442779E+00  0.227961542E+00
   H -0.325387131E+02 -0.211223881E+01  0.294224512E+01
   H  0.316968569E+02 -0.130450256E+01 -0.260304629E+01
     4
 # iter = 60500  time[fs]=60.50000
   C -0.659026330E+01  0.118872616E+00 -0.162594166E+00
   C  0.626849132E+01  0.135312544E+00  0.231644950E+00
   H -0.329456800E+02 -0.213821468E+01  0.297982233E+01
   H  0.320918716E+02 -0.132088821E+01 -0.263558373E+01
     4
 # iter = 61000  time[fs]=61.00000
   C -0.667823998E+01  0.120824728E+00 -0.164830457E+00
   C  0.635209488E+01  0.137183195E+00  0.235331648E+00
   H -0.333528064E+02 -0.216420223E+01  0.301741581E+01
   H  0.324870572E+02 -0.133728202E+01 -0.266813766E+01
     4
 # iter = 61500  time[fs]=61.50000
   C -0.676629250E+01  0.122777591E+00 -0.167069941E+00
   C  0.643577333E+01  0.139054710E+00  0.239021557E+00
   H -0.337600883E+02 -0.219020117E+01  0.305502519E+01
   H  0.328824096E+02 -0.135368378E+01 -0.270070772E+01
     4
 # iter = 62000  time[fs]=62.00000
   C -0.685441887E+01  0.124731187E+00 -0.169312541E+00
   C  0.651952473E+01  0.140927066E+00  0.242714602E+00
   H -0.341675222E+02 -0.221621123E+01  0.309265009E+01
   H  0.332779248E+02 -0.137009333E+01 -0.273329352E+01
     4
 # iter = 62500  time[fs]=62.50000
   C -0.694261720E+01  0.126685502E+00 -0.171558185E+00
   C  0.660334720E+01  0.142800241E+00  0.246410707E+00
   H -0.345751044E+02 -0.224223216E+01  0.313029015E+01
   H  0.336735990E+02 -0.138651047E+01 -0.276589470E+01
     4
 # iter = 63000  time[fs]=63.00000
   C -0.703088565E+01  0.128640522E+00 -0.173806800E+00
   C  0.668723893E+01  0.144674216E+00  0.250109802E+00
   H -0.349828315E+02 -0.226826371E+01  0.316794503E+01
   H  0.340694286E+02 -0.140293504E+01 -0.279851091E+01
     4
 # iter = 63500  time[fs]=63.50000
   C -0.711922247E+01  0.130596232E+00 -0.176058318E+00
   C  0.677119817E+01  0.146548970E+00  0.253811818E+00
   H -0.353907001E+02 -0.229430563E+01  0.320561440E+01
   H  0.344654099E+02 -0.141936687E+01 -0.283114181E+01
     4
 # iter = 64000  time[fs]=64.00000
   C -0.720762596E+01  0.132552618E+00 -0.178312673E+00
   C  0.685522325E+01  0.148424484E+00  0.257516688E+00
   H -0.357987071E+02 -0.232035769E+01  0.324329792E+01
   H  0.348615395E+02 -0.143580580E+01 -0.286378709E+01
     4
 # iter = 64500  time[fs]=64.50000
   C -0.729609449E+01  0.134509668E+00 -0.180569801E+00
   C  0.693931255E+01  0.150300740E+00  0.261224348E+00
   H -0.362068493E+02 -0.234641967E+01  0.328099528E+01
   H  0.352578141E+02 -0.145225167E+01 -0.289644641E+01
     4
 # iter = 65000  time[fs]=65.00000
   C -0.738462648E+01  0.136467367E+00 -0.182829639E+00
   C  0.702346451E+01  0.152177720E+00  0.264934735E+00
   H -0.366151237E+02 -0.237249133E+01  0.331870619E+01
   H  0.356542305E+02 -0.146870433E+01 -0.292911948E+01
     4
 # iter = 65500  time[fs]=65.50000
   C -0.747322040E+01  0.138425704E+00 -0.185092129E+00
   C  0.710767763E+01  0.154055407E+00  0.268647790E+00
   H -0.370235274E+02 -0.239857249E+01  0.335643036E+01
   H  0.360507857E+02 -0.148516364E+01 -0.296180600E+01
     4
 # iter = 66000  time[fs]=66.00000
   C -0.756187478E+01  0.140384665E+00 -0.187357211E+00
   C  0.719195045E+01  0.155933784E+00  0.272363454E+00
   H -0.374320576E+02 -0.242466291E+01  0.339416749E+01
   H  0.364474764E+02 -0.150162946E+01 -0.299450569E+01
     4
 # iter = 66500  time[fs]=66.50000
   C -0.765058822E+01  0.142344240E+00 -0.189624829E+00
   C  0.727628156E+01  0.157812835E+00  0.276081671E+00
   H -0.378407116E+02 -0.245076242E+01  0.343191731E+01
   H  0.368443000E+02 -0.151810164E+01 -0.302721826E+01
     4
 # iter = 67000  time[fs]=67.00000
   C -0.773935933E+01  0.144304415E+00 -0.191894930E+00
   C  0.736066962E+01  0.159692546E+00  0.279802385E+00
   H -0.382494867E+02 -0.247687082E+01  0.346967956E+01
   H  0.372412534E+02 -0.153458006E+01 -0.305994345E+01
     4
 # iter = 67500  time[fs]=67.50000
   C -0.782818680E+01  0.146265181E+00 -0.194167460E+00
   C  0.744511332E+01  0.161572900E+00  0.283525545E+00
   H -0.386583804E+02 -0.250298792E+01  0.350745398E+01
   H  0.376383341E+02 -0.155106459E+01 -0.309268099E+01
     4
 # iter = 68000  time[fs]=68.00000
   C -0.791706934E+01  0.148226525E+00 -0.196442369E+00
   C  0.752961138E+01  0.163453884E+00  0.287251098E+00
   H -0.390673902E+02 -0.252911354E+01  0.354524032E+01
   H  0.380355393E+02 -0.156755509E+01 -0.312543064E+01
     4
 # iter = 68500  time[fs]=68.50000
   C -0.800600572E+01  0.150188438E+00 -0.198719607E+00
   C  0.761416259E+01  0.165335484E+00  0.290978996E+00
   H -0.394765137E+02 -0.255524750E+01  0.358303834E+01
   H  0.384328665E+02 -0.158405146E+01 -0.315819215E+01
     4
 # iter = 69000  time[fs]=69.00000
   C -0.809499474E+01  0.152150908E+00 -0.200999125E+00
   C  0.769876576E+01  0.167217686E+00  0.294709189E+00
   H -0.398857485E+02 -0.258138964E+01  0.362084780E+01
   H  0.388303133E+02 -0.160055357E+01 -0.319096528E+01
     4
 # iter = 69500  time[fs]=69.50000
   C -0.818403524E+01  0.154113926E+00 -0.203280878E+00
   C  0.778341975E+01  0.169100478E+00  0.298441632E+00
   H -0.402950925E+02 -0.260753980E+01  0.365866848E+01
   H  0.392278771E+02 -0.161706131E+01 -0.322374980E+01
     4
 # iter = 70000  time[fs]=70.00000
   C -0.827312610E+01  0.156077482E+00 -0.205564820E+00
   C  0.786812345E+01  0.170983846E+00  0.302176278E+00
   H -0.407045434E+02 -0.263369781E+01  0.369650015E+01
   H  0.396255556E+02 -0.163357457E+01 -0.325654549E+01
     4
 # iter = 70500  time[fs]=70.50000
   C -0.836226624E+01  0.158041565E+00 -0.207850908E+00
   C  0.795287579E+01  0.172867778E+00  0.305913084E+00
   H -0.411140990E+02 -0.265986351E+01  0.373434259E+01
   H  0.400233466E+02 -0.165009325E+01 -0.328935213E+01
     4
 # iter = 71000  time[fs]=71.00000
   C -0.845145460E+01  0.160006168E+00 -0.210139099E+00
   C  0.803767572E+01  0.174752264E+00  0.309652006E+00
   H -0.415237574E+02 -0.268603676E+01  0.377219561E+01
   H  0.404212479E+02 -0.166661723E+01 -0.332216951E+01
     4
 # iter = 71500  time[fs]=71.50000
   C -0.854069017E+01  0.161971279E+00 -0.212429351E+00
   C  0.812252224E+01  0.176637290E+00  0.313393005E+00
   H -0.419335166E+02 -0.271221742E+01  0.381005900E+01
   H  0.408192573E+02 -0.168314641E+01 -0.335499742E+01
     4
 # iter = 72000  time[fs]=72.00000
   C -0.862997195E+01  0.163936891E+00 -0.214721624E+00
   C  0.820741438E+01  0.178522847E+00  0.317136038E+00
   H -0.423433745E+02 -0.273840533E+01  0.384793255E+01
   H  0.412173727E+02 -0.169968071E+01 -0.338783566E+01
     4
 # iter = 72500  time[fs]=72.50000
   C -0.871929900E+01  0.165902995E+00 -0.217015881E+00
   C  0.829235118E+01  0.180408923E+00  0.320881067E+00
   H -0.427533293E+02 -0.276460037E+01  0.388581609E+01
   H  0.416155921E+02 -0.171622001E+01 -0.342068405E+01
     4
 # iter = 73000  time[fs]=73.00000
   C -0.880867037E+01  0.167869583E+00 -0.219312082E+00
   C  0.837733173E+01  0.182295508E+00  0.324628055E+00
   H -0.431633792E+02 -0.279080240E+01  0.392370942E+01
   H  0.420139136E+02 -0.173276424E+01 -0.345354238E+01
     4
 # iter = 73500  time[fs]=73.50000
   C -0.889808518E+01  0.169836645E+00 -0.221610190E+00
   C  0.846235514E+01  0.184182592E+00  0.328376963E+00
   H -0.435735223E+02 -0.281701128E+01  0.396161236E+01
   H  0.424123352E+02 -0.174931329E+01 -0.348641049E+01
     4
 # iter = 74000  time[fs]=74.00000
   C -0.898754255E+01  0.171804174E+00 -0.223910171E+00
   C  0.854742055E+01  0.186070165E+00  0.332127756E+00
   H -0.439837570E+02 -0.284322689E+01  0.399952473E+01
   H  0.428108551E+02 -0.176586708E+01 -0.351928819E+01
     4
 # iter = 74500  time[fs]=74.50000
   C -0.907704162E+01  0.173772163E+00 -0.226211990E+00
   C  0.863252712E+01  0.187958217E+00  0.335880400E+00
   H -0.443940816E+02 -0.286944912E+01  0.403744638E+01
   H  0.432094715E+02 -0.178242553E+01 -0.355217530E+01
     4
 # iter = 75000  time[fs]=75.00000
   C -0.916658159E+01  0.175740603E+00 -0.228515611E+00
   C  0.871767403E+01  0.189846739E+00  0.339634859E+00
   H -0.448044943E+02 -0.289567783E+01  0.407537712E+01
   H  0.436081826E+02 -0.179898855E+01 -0.358507167E+01
     4
 # iter = 75500  time[fs]=75.50000
   C -0.925616163E+01  0.177709487E+00 -0.230821004E+00
   C  0.880286050E+01  0.191735723E+00  0.343391101E+00
   H -0.452149937E+02 -0.292191291E+01  0.411331680E+01
   H  0.440069866E+02 -0.181555606E+01 -0.361797711E+01
     4
 # iter = 76000  time[fs]=76.00000
   C -0.934578099E+01  0.179678808E+00 -0.233128135E+00
   C  0.888808575E+01  0.193625159E+00  0.347149094E+00
   H -0.456255781E+02 -0.294815425E+01  0.415126525E+01
   H  0.444058821E+02 -0.183212799E+01 -0.365089148E+01
     4
 # iter = 76500  time[fs]=76.50000
   C -0.943543890E+01  0.181648558E+00 -0.235436973E+00
   C  0.897334904E+01  0.195515039E+00  0.350908806E+00
   H -0.460362461E+02 -0.297440174E+01  0.418922233E+01
   H  0.448048672E+02 -0.184870424E+01 -0.368381462E+01
     4
 # iter = 77000  time[fs]=77.00000
   C -0.952513464E+01  0.183618731E+00 -0.237747488E+00
   C  0.905864965E+01  0.197405354E+00  0.354670207E+00
   H -0.464469962E+02 -0.300065527E+01  0.422718789E+01
   H  0.452039405E+02 -0.186528476E+01 -0.371674638E+01
     4
 # iter = 77500  time[fs]=77.50000
   C -0.961486748E+01  0.185589320E+00 -0.240059650E+00
   C  0.914398687E+01  0.199296098E+00  0.358433267E+00
   H -0.468578268E+02 -0.302691473E+01  0.426516177E+01
   H  0.456031003E+02 -0.188186946E+01 -0.374968660E+01
     4
 # iter = 78000  time[fs]=78.00000
   C -0.970463673E+01  0.187560318E+00 -0.242373432E+00
   C  0.922936001E+01  0.201187261E+00  0.362197957E+00
   H -0.472687368E+02 -0.305318003E+01  0.430314384E+01
   H  0.460023453E+02 -0.189845828E+01 -0.378263515E+01
     4
 # iter = 78500  time[fs]=78.50000
   C -0.979444173E+01  0.189531718E+00 -0.244688803E+00
   C  0.931476841E+01  0.203078836E+00  0.365964248E+00
   H -0.476797245E+02 -0.307945106E+01  0.434113396E+01
   H  0.464016739E+02 -0.191505114E+01 -0.381559189E+01
     4
 # iter = 79000  time[fs]=79.00000
   C -0.988428181E+01  0.191503515E+00 -0.247005738E+00
   C  0.940021143E+01  0.204970816E+00  0.369732114E+00
   H -0.480907889E+02 -0.310572773E+01  0.437913200E+01
   H  0.468010847E+02 -0.193164798E+01 -0.384855667E+01
     4
 # iter = 79500  time[fs]=79.50000
   C -0.997415633E+01  0.193475702E+00 -0.249324209E+00
   C  0.948568842E+01  0.206863194E+00  0.373501528E+00
   H -0.485019285E+02 -0.313200994E+01  0.441713781E+01
   H  0.472005763E+02 -0.194824874E+01 -0.388152936E+01
     4
 # iter = 80000  time[fs]=80.00000
   C -0.100640647E+02  0.195448273E+00 -0.251644191E+00
   C  0.957119878E+01  0.208755963E+00  0.377272463E+00
   H -0.489131420E+02 -0.315829760E+01  0.445515128E+01
   H  0.476001475E+02 -0.196485334E+01 -0.391450984E+01
