     4
 # iter = 25000  time[fs]=25.00000
   C -0.939283599E+00  0.108346505E-01 -0.234995260E-01
   C  0.105163476E+01  0.667417777E-02  0.368394693E-01
   H -0.527976217E+01 -0.515282711E+00  0.427113740E+00
   H  0.537824183E+01  0.683716653E+00 -0.435212371E+00
     4
 # iter = 25500  time[fs]=25.50000
   C -0.981820241E+00  0.133230420E-01 -0.247416412E-01
   C  0.109767974E+01  0.478453571E-02  0.391238554E-01
   H -0.560952719E+01 -0.546554353E+00  0.455678186E+00
   H  0.569705331E+01  0.726541355E+00 -0.464630379E+00
     4
 # iter = 26000  time[fs]=26.00000
   C -0.102733507E+01  0.158423337E-01 -0.260983431E-01
   C  0.114668602E+01  0.284743053E-02  0.415274614E-01
   H -0.594447562E+01 -0.578383226E+00  0.484701991E+00
   H  0.602125089E+01  0.770122044E+00 -0.494563344E+00
     4
 # iter = 26500  time[fs]=26.50000
   C -0.107558034E+01  0.183944763E-01 -0.275602969E-01
   C  0.119840629E+01  0.862334948E-03  0.440407035E-01
   H -0.628403196E+01 -0.610706340E+00  0.514134629E+00
   H  0.635025391E+01  0.814378649E+00 -0.524957752E+00
     4
 # iter = 27000  time[fs]=27.00000
   C -0.112632511E+01  0.209806461E-01 -0.291189582E-01
   C  0.125261019E+01 -0.117065687E-02  0.466547865E-01
   H -0.662770664E+01 -0.643470449E+00  0.543933221E+00
   H  0.668356554E+01  0.859242676E+00 -0.555767714E+00
     4
 # iter = 27500  time[fs]=27.50000
   C -0.117935626E+01  0.236013763E-01 -0.307665243E-01
   C  0.130908533E+01 -0.325094370E-02  0.493616629E-01
   H -0.697508050E+01 -0.676630196E+00  0.574061101E+00
   H  0.702075819E+01  0.904655157E+00 -0.586953628E+00
     4
 # iter = 28000  time[fs]=28.00000
   C -0.123447869E+01  0.262566856E-01 -0.324958849E-01
   C  0.136763733E+01 -0.537753058E-02  0.521539881E-01
   H -0.732579239E+01 -0.710146672E+00  0.604486702E+00
   H  0.736146177E+01  0.950565018E+00 -0.618481115E+00
     4
 # iter = 28500  time[fs]=28.50000
   C -0.129151473E+01  0.289461951E-01 -0.343005716E-01
   C  0.142808928E+01 -0.754913150E-02  0.550250718E-01
   H -0.767952938E+01 -0.743986277E+00  0.635182672E+00
   H  0.770535431E+01  0.996927774E+00 -0.650320161E+00
     4
 # iter = 29000  time[fs]=29.00000
   C -0.135030323E+01  0.316692291E-01 -0.361747073E-01
   C  0.149028079E+01 -0.976425708E-02  0.579688293E-01
   H -0.803601883E+01 -0.778119822E+00  0.666125169E+00
   H  0.805215423E+01  0.104370447E+01 -0.682444429E+00
     4
 # iter = 29500  time[fs]=29.50000
   C -0.141069842E+01  0.344248980E-01 -0.381129569E-01
   C  0.155406680E+01 -0.120212866E-01  0.609797313E-01
   H -0.839502195E+01 -0.812521801E+00  0.697293298E+00
   H  0.840161414E+01  0.109086083E+01 -0.714830698E+00
     4
 # iter = 30000  time[fs]=30.00000
   C -0.147256864E+01  0.372121655E-01 -0.401104782E-01
   C  0.161931633E+01 -0.143185251E-01  0.640527550E-01
   H -0.875632866E+01 -0.847169815E+00  0.728668654E+00
   H  0.875351569E+01  0.113836655E+01 -0.747458394E+00
     4
 # iter = 30500  time[fs]=30.50000
   C -0.153579504E+01  0.400299013E-01 -0.421628767E-01
   C  0.168591119E+01 -0.166542476E-01  0.671833386E-01
   H -0.911975323E+01 -0.882044091E+00  0.760234947E+00
   H  0.910766535E+01  0.118619472E+01 -0.780309219E+00
     4
 # iter = 31000  time[fs]=31.00000
   C -0.160027040E+01  0.428769225E-01 -0.442661626E-01
   C  0.175374476E+01 -0.190267328E-01  0.703673369E-01
   H -0.948513080E+01 -0.917127098E+00  0.791977697E+00
   H  0.946389091E+01  0.123432135E+01 -0.813366827E+00
     4
 # iter = 31500  time[fs]=31.50000
   C -0.166589791E+01  0.457520237E-01 -0.464167112E-01
   C  0.182272082E+01 -0.214342870E-01  0.736009811E-01
   H -0.985231443E+01 -0.952403226E+00  0.823883978E+00
   H  0.982203853E+01  0.128272497E+01 -0.846616566E+00
     4
 # iter = 32000  time[fs]=32.00000
   C -0.173259014E+01  0.486540008E-01 -0.486112261E-01
   C  0.189275247E+01 -0.238752616E-01  0.768808417E-01
   H -0.102211727E+02 -0.987858519E+00  0.855942207E+00
   H  0.101819703E+02  0.133138629E+01 -0.880045254E+00
     4
 # iter = 32500  time[fs]=32.50000
   C -0.180026804E+01  0.515816673E-01 -0.508467070E-01
   C  0.196376116E+01 -0.263480654E-01  0.802037946E-01
   H -0.105915875E+02 -0.102348045E+01  0.888141969E+00
   H  0.105435622E+02  0.138028792E+01 -0.913640990E+00
     4
 # iter = 33000  time[fs]=33.00000
   C -0.186886002E+01  0.545338665E-01 -0.531204193E-01
   C  0.203567578E+01 -0.288511715E-01  0.835669907E-01
   H -0.109634527E+02 -0.105925775E+01  0.920473863E+00
   H  0.109067022E+02  0.142941415E+01 -0.947393001E+00
     4
 # iter = 33500  time[fs]=33.50000
   C -0.193830121E+01  0.575094797E-01 -0.554298672E-01
   C  0.210843189E+01 -0.313831224E-01  0.869678277E-01
   H -0.113366720E+02 -0.109518021E+01  0.952929382E+00
   H  0.112712891E+02  0.147875072E+01 -0.981291500E+00
     4
 # iter = 34000  time[fs]=34.00000
   C -0.200853270E+01  0.605074309E-01 -0.577727700E-01
   C  0.218197099E+01 -0.339425315E-01  0.904039263E-01
   H -0.117111586E+02 -0.113123861E+01  0.985500799E+00
   H  0.116372309E+02  0.152828467E+01 -0.101532758E+01
     4
 # iter = 34500  time[fs]=34.50000
   C -0.207950092E+01  0.635266909E-01 -0.601470402E-01
   C  0.225623989E+01 -0.365280835E-01  0.938731070E-01
   H -0.120868331E+02 -0.116742455E+01  0.101818108E+01
   H  0.120044438E+02  0.157800416E+01 -0.104949309E+01
     4
 # iter = 35000  time[fs]=35.00000
   C -0.215115707E+01  0.665662780E-01 -0.625507645E-01
   C  0.233119015E+01 -0.391385334E-01  0.973733709E-01
   H -0.124636235E+02 -0.120373037E+01  0.105096380E+01
   H  0.123728516E+02  0.162789839E+01 -0.108378060E+01
     4
 # iter = 35500  time[fs]=35.50000
   C -0.222345666E+01  0.696252587E-01 -0.649821863E-01
   C  0.240677759E+01 -0.417727047E-01  0.100902882E+00
   H -0.128414638E+02 -0.124014908E+01  0.108384308E+01
   H  0.127423842E+02  0.167795745E+01 -0.111818326E+01
     4
 # iter = 36000  time[fs]=36.00000
   C -0.229635899E+01  0.727027470E-01 -0.674396905E-01
   C  0.248296184E+01 -0.444294868E-01  0.104459951E+00
   H -0.132202938E+02 -0.127667427E+01  0.111681353E+01
   H  0.131129777E+02  0.172817222E+01 -0.115269479E+01
     4
 # iter = 36500  time[fs]=36.50000
   C -0.236982683E+01  0.757979036E-01 -0.699217899E-01
   C  0.255970595E+01 -0.471078321E-01  0.108043020E+00
   H -0.136000579E+02 -0.131330005E+01  0.114987018E+01
   H  0.134845731E+02  0.177853432E+01 -0.118730940E+01
     4
 # iter = 37000  time[fs]=37.00000
   C -0.244382601E+01  0.789099339E-01 -0.724271130E-01
   C  0.263697603E+01 -0.498067530E-01  0.111650655E+00
   H -0.139807052E+02 -0.135002102E+01  0.118300846E+01
   H  0.138571163E+02  0.182903602E+01 -0.122202173E+01
     4
 # iter = 37500  time[fs]=37.50000
   C -0.251832519E+01  0.820380868E-01 -0.749543928E-01
   C  0.271474097E+01 -0.525253187E-01  0.115281527E+00
   H -0.143621886E+02 -0.138683216E+01  0.121622416E+01
   H  0.142305571E+02  0.187967018E+01 -0.125682684E+01
     4
 # iter = 38000  time[fs]=38.00000
   C -0.259329548E+01  0.851816522E-01 -0.775024574E-01
   C  0.279297214E+01 -0.552626519E-01  0.118934407E+00
   H -0.147444648E+02 -0.142372886E+01  0.124951336E+01
   H  0.146048493E+02  0.193043015E+01 -0.129172013E+01
     4
 # iter = 38500  time[fs]=38.50000
   C -0.266871031E+01  0.883399589E-01 -0.800702211E-01
   C  0.287164317E+01 -0.580179259E-01  0.122608156E+00
   H -0.151274935E+02 -0.146070685E+01  0.128287243E+01
   H  0.149799501E+02  0.198130980E+01 -0.132669735E+01
     4
 # iter = 39000  time[fs]=39.00000
   C -0.274454511E+01  0.915123732E-01 -0.826566767E-01
   C  0.295072973E+01 -0.607903613E-01  0.126301718E+00
   H -0.155112375E+02 -0.149776216E+01  0.131629803E+01
   H  0.153558197E+02  0.203230341E+01 -0.136175452E+01
     4
 # iter = 39500  time[fs]=39.50000
   C -0.282077720E+01  0.946982961E-01 -0.852608883E-01
   C  0.303020930E+01 -0.635792233E-01  0.130014108E+00
   H -0.158956622E+02 -0.153489109E+01  0.134978700E+01
   H  0.157324211E+02  0.208340567E+01 -0.139688796E+01
     4
 # iter = 40000  time[fs]=40.00000
   C -0.289738557E+01  0.978971618E-01 -0.878819853E-01
   C  0.311006107E+01 -0.663838187E-01  0.133744413E+00
   H -0.162807352E+02 -0.157209022E+01  0.138333645E+01
   H  0.161097199E+02  0.213461161E+01 -0.143209421E+01
     4
 # iter = 40500  time[fs]=40.50000
   C -0.297435073E+01  0.101108435E+00 -0.905191567E-01
   C  0.319026573E+01 -0.692034933E-01  0.137491780E+00
   H -0.166664267E+02 -0.160935634E+01  0.141694364E+01
   H  0.164876840E+02  0.218591660E+01 -0.146737006E+01
     4
 # iter = 41000  time[fs]=41.00000
   C -0.305165460E+01  0.104331611E+00 -0.931716459E-01
   C  0.327080534E+01 -0.720376293E-01  0.141255413E+00
   H -0.170527085E+02 -0.164668647E+01  0.145060603E+01
   H  0.168662835E+02  0.223731630E+01 -0.150271248E+01
     4
 # iter = 41500  time[fs]=41.50000
   C -0.312928035E+01  0.107566211E+00 -0.958387462E-01
   C  0.335166324E+01 -0.748856434E-01  0.145034568E+00
   H -0.174395545E+02 -0.168407780E+01  0.148432124E+01
   H  0.172454903E+02  0.228880666E+01 -0.153811866E+01
     4
 # iter = 42000  time[fs]=42.00000
   C -0.320721232E+01  0.110811782E+00 -0.985197967E-01
   C  0.343282391E+01 -0.777469840E-01  0.148828549E+00
   H -0.178269402E+02 -0.172152773E+01  0.151808703E+01
   H  0.176252781E+02  0.234038387E+01 -0.157358593E+01
     4
 # iter = 42500  time[fs]=42.50000
   C -0.328543590E+01  0.114067896E+00 -0.101214179E+00
   C  0.351427288E+01 -0.806211294E-01  0.152636704E+00
   H -0.182148426E+02 -0.175903379E+01  0.155190132E+01
   H  0.180056224E+02  0.239204436E+01 -0.160911180E+01
     4
 # iter = 43000  time[fs]=43.00000
   C -0.336393746E+01  0.117334148E+00 -0.103921312E+00
   C  0.359599664E+01 -0.835075860E-01  0.156458422E+00
   H -0.186032402E+02 -0.179659367E+01  0.158576213E+01
   H  0.183865001E+02  0.244378476E+01 -0.164469394E+01
     4
 # iter = 43500  time[fs]=43.50000
   C -0.344270425E+01  0.120610152E+00 -0.106640652E+00
   C  0.367798258E+01 -0.864058864E-01  0.160293129E+00
   H -0.189921126E+02 -0.183420521E+01  0.161966761E+01
   H  0.187678894E+02  0.249560190E+01 -0.168033013E+01
     4
 # iter = 44000  time[fs]=44.00000
   C -0.352172435E+01  0.123895545E+00 -0.109371688E+00
   C  0.376021888E+01 -0.893155875E-01  0.164140285E+00
   H -0.193814409E+02 -0.187186637E+01  0.165361601E+01
   H  0.191497699E+02  0.254749282E+01 -0.171601829E+01
     4
 # iter = 44500  time[fs]=44.50000
   C -0.360098658E+01  0.127189981E+00 -0.112113937E+00
   C  0.384269446E+01 -0.922362693E-01  0.167999383E+00
   H -0.197712070E+02 -0.190957523E+01  0.168760568E+01
   H  0.195321223E+02  0.259945468E+01 -0.175175645E+01
     4
 # iter = 45000  time[fs]=45.00000
   C -0.368048045E+01  0.130493130E+00 -0.114866948E+00
   C  0.392539895E+01 -0.951675334E-01  0.171869944E+00
   H -0.201613941E+02 -0.194732996E+01  0.172163508E+01
   H  0.199149285E+02  0.265148484E+01 -0.178754276E+01
     4
 # iter = 45500  time[fs]=45.50000
   C -0.376019611E+01  0.133804683E+00 -0.117630294E+00
   C  0.400832260E+01 -0.981090014E-01  0.175751517E+00
   H -0.205519862E+02 -0.198512886E+01  0.175570274E+01
   H  0.202981713E+02  0.270358078E+01 -0.182337546E+01
     4
 # iter = 46000  time[fs]=46.00000
   C -0.384012431E+01  0.137124341E+00 -0.120403570E+00
   C  0.409145624E+01 -0.101060314E+00  0.179643676E+00
   H -0.209429681E+02 -0.202297030E+01  0.178980726E+01
   H  0.206818345E+02  0.275574013E+01 -0.185925288E+01
     4
 # iter = 46500  time[fs]=46.50000
   C -0.392025632E+01  0.140451823E+00 -0.123186398E+00
   C  0.417479124E+01 -0.104021129E+00  0.183546019E+00
   H -0.213343256E+02 -0.206085275E+01  0.182394732E+01
   H  0.210659027E+02  0.280796062E+01 -0.189517345E+01
     4
 # iter = 47000  time[fs]=47.00000
   C -0.400058395E+01  0.143786862E+00 -0.125978416E+00
   C  0.425831948E+01 -0.106991122E+00  0.187458166E+00
   H -0.217260452E+02 -0.209877475E+01  0.185812169E+01
   H  0.214503614E+02  0.286024013E+01 -0.193113567E+01
     4
 # iter = 47500  time[fs]=47.50000
   C -0.408109944E+01  0.147129202E+00 -0.128779285E+00
   C  0.434203330E+01 -0.109969983E+00  0.191379757E+00
   H -0.221181140E+02 -0.213673493E+01  0.189232918E+01
   H  0.218351969E+02  0.291257663E+01 -0.196713812E+01
     4
 # iter = 48000  time[fs]=48.00000
   C -0.416179548E+01  0.150478599E+00 -0.131588683E+00
   C  0.442592545E+01 -0.112957418E+00  0.195310450E+00
   H -0.225105199E+02 -0.217473199E+01  0.192656866E+01
   H  0.222203961E+02  0.296496819E+01 -0.200317946E+01
     4
 # iter = 48500  time[fs]=48.50000
   C -0.424266517E+01  0.153834822E+00 -0.134406304E+00
   C  0.450998911E+01 -0.115953146E+00  0.199249923E+00
   H -0.229032514E+02 -0.221276467E+01  0.196083906E+01
   H  0.226059465E+02  0.301741298E+01 -0.203925839E+01
     4
 # iter = 49000  time[fs]=49.00000
   C -0.432370198E+01  0.157197650E+00 -0.137231858E+00
   C  0.459421782E+01 -0.118956899E+00  0.203197867E+00
   H -0.232962975E+02 -0.225083180E+01  0.199513938E+01
   H  0.229918364E+02  0.306990926E+01 -0.207537371E+01
     4
 # iter = 49500  time[fs]=49.50000
   C -0.440489973E+01  0.160566872E+00 -0.140065071E+00
   C  0.467860545E+01 -0.121968421E+00  0.207153993E+00
   H -0.236896477E+02 -0.228893225E+01  0.202946864E+01
   H  0.233780545E+02  0.312245537E+01 -0.211152423E+01
     4
 # iter = 50000  time[fs]=50.00000
   C -0.448625254E+01  0.163942287E+00 -0.142905680E+00
   C  0.476314622E+01 -0.124987469E+00  0.211118022E+00
   H -0.240832922E+02 -0.232706495E+01  0.206382593E+01
   H  0.237645902E+02  0.317504973E+01 -0.214770886E+01
     4
 # iter = 50500  time[fs]=50.50000
   C -0.456775488E+01  0.167323701E+00 -0.145753438E+00
   C  0.484783462E+01 -0.128013809E+00  0.215089691E+00
   H -0.244772216E+02 -0.236522889E+01  0.209821035E+01
   H  0.241514333E+02  0.322769083E+01 -0.218392654E+01
     4
 # iter = 51000  time[fs]=51.00000
   C -0.464940147E+01  0.170710931E+00 -0.148608107E+00
   C  0.493266544E+01 -0.131047219E+00  0.219068749E+00
   H -0.248714267E+02 -0.240342309E+01  0.213262109E+01
   H  0.245385742E+02  0.328037724E+01 -0.222017626E+01
     4
 # iter = 51500  time[fs]=51.50000
   C -0.473118729E+01  0.174103802E+00 -0.151469462E+00
   C  0.501763374E+01 -0.134087486E+00  0.223054957E+00
   H -0.252658990E+02 -0.244164662E+01  0.216705733E+01
   H  0.249260034E+02  0.333310757E+01 -0.225645704E+01
     4
 # iter = 52000  time[fs]=52.00000
   C -0.481310761E+01  0.177502143E+00 -0.154337289E+00
   C  0.510273480E+01 -0.137134405E+00  0.227048088E+00
   H -0.256606303E+02 -0.247989859E+01  0.220151831E+01
   H  0.253137123E+02  0.338588053E+01 -0.229276798E+01
     4
 # iter = 52500  time[fs]=52.50000
   C -0.489515787E+01  0.180905796E+00 -0.157211383E+00
   C  0.518796415E+01 -0.140187781E+00  0.231047924E+00
   H -0.260556127E+02 -0.251817816E+01  0.223600330E+01
   H  0.257016923E+02  0.343869485E+01 -0.232910818E+01
     4
 # iter = 53000  time[fs]=53.00000
   C -0.497733379E+01  0.184314604E+00 -0.160091549E+00
   C  0.527331753E+01 -0.143247428E+00  0.235054257E+00
   H -0.264508389E+02 -0.255648453E+01  0.227051161E+01
   H  0.260899355E+02  0.349154933E+01 -0.236547681E+01
     4
 # iter = 53500  time[fs]=53.50000
   C -0.505963125E+01  0.187728420E+00 -0.162977600E+00
   C  0.535879088E+01 -0.146313166E+00  0.239066890E+00
   H -0.268463015E+02 -0.259481690E+01  0.230504255E+01
   H  0.264784341E+02  0.354444282E+01 -0.240187305E+01
     4
 # iter = 54000  time[fs]=54.00000
   C -0.514204634E+01  0.191147101E+00 -0.165869357E+00
   C  0.544438033E+01 -0.149384823E+00  0.243085632E+00
   H -0.272419939E+02 -0.263317454E+01  0.233959550E+01
   H  0.268671806E+02  0.359737423E+01 -0.243829613E+01
     4
 # iter = 54500  time[fs]=54.50000
   C -0.522457533E+01  0.194570513E+00 -0.168766651E+00
   C  0.553008219E+01 -0.152462235E+00  0.247110303E+00
   H -0.276379093E+02 -0.267155675E+01  0.237416984E+01
   H  0.272561681E+02  0.365034248E+01 -0.247474531E+01
     4
 # iter = 55000  time[fs]=55.00000
   C -0.530721465E+01  0.197998524E+00 -0.171669318E+00
   C  0.561589295E+01 -0.155545242E+00  0.251140730E+00
   H -0.280340415E+02 -0.270996283E+01  0.240876497E+01
   H  0.276453898E+02  0.370334658E+01 -0.251121987E+01
     4
 # iter = 55500  time[fs]=55.50000
   C -0.538996091E+01  0.201431008E+00 -0.174577202E+00
   C  0.570180924E+01 -0.158633694E+00  0.255176745E+00
   H -0.284303846E+02 -0.274839214E+01  0.244338034E+01
   H  0.280348391E+02  0.375638555E+01 -0.254771913E+01
     4
 # iter = 56000  time[fs]=56.00000
   C -0.547281086E+01  0.204867844E+00 -0.177490153E+00
   C  0.578782784E+01 -0.161727443E+00  0.259218191E+00
   H -0.288269326E+02 -0.278684404E+01  0.247801540E+01
   H  0.284245098E+02  0.380945846E+01 -0.258424243E+01
     4
 # iter = 56500  time[fs]=56.50000
   C -0.555576138E+01  0.208308918E+00 -0.180408028E+00
   C  0.587394568E+01 -0.164826350E+00  0.263264914E+00
   H -0.292236801E+02 -0.282531793E+01  0.251266962E+01
   H  0.288143960E+02  0.386256440E+01 -0.262078914E+01
     4
 # iter = 57000  time[fs]=57.00000
   C -0.563880949E+01  0.211754117E+00 -0.183330691E+00
   C  0.596015983E+01 -0.167930279E+00  0.267316769E+00
   H -0.296206217E+02 -0.286381324E+01  0.254734252E+01
   H  0.292044918E+02  0.391570253E+01 -0.265735865E+01
     4
 # iter = 57500  time[fs]=57.50000
   C -0.572195236E+01  0.215203334E+00 -0.186258008E+00
   C  0.604646746E+01 -0.171039100E+00  0.271373615E+00
   H -0.300177523E+02 -0.290232941E+01  0.258203360E+01
   H  0.295947918E+02  0.396887200E+01 -0.269395038E+01
     4
 # iter = 58000  time[fs]=58.00000
   C -0.580518724E+01  0.218656466E+00 -0.189189853E+00
   C  0.613286588E+01 -0.174152689E+00  0.275435316E+00
   H -0.304150670E+02 -0.294086589E+01  0.261674240E+01
   H  0.299852906E+02  0.402207202E+01 -0.273056377E+01
     4
 # iter = 58500  time[fs]=58.50000
   C -0.588851153E+01  0.222113413E+00 -0.192126105E+00
   C  0.621935250E+01 -0.177270924E+00  0.279501745E+00
   H -0.308125610E+02 -0.297942219E+01  0.265146848E+01
   H  0.303759832E+02  0.407530182E+01 -0.276719828E+01
     4
 # iter = 59000  time[fs]=59.00000
   C -0.597192272E+01  0.225574081E+00 -0.195066647E+00
   C  0.630592485E+01 -0.180393691E+00  0.283572775E+00
   H -0.312102298E+02 -0.301799779E+01  0.268621140E+01
   H  0.307668646E+02  0.412856067E+01 -0.280385337E+01
     4
 # iter = 59500  time[fs]=59.50000
   C -0.605541840E+01  0.229038375E+00 -0.198011366E+00
   C  0.639258055E+01 -0.183520876E+00  0.287648288E+00
   H -0.316080690E+02 -0.305659223E+01  0.272097076E+01
   H  0.311579301E+02  0.418184786E+01 -0.284052857E+01
     4
 # iter = 60000  time[fs]=60.00000
   C -0.613899625E+01  0.232506208E+00 -0.200960155E+00
   C  0.647931732E+01 -0.186652372E+00  0.291728168E+00
   H -0.320060744E+02 -0.309520504E+01  0.275574615E+01
   H  0.315491751E+02  0.423516268E+01 -0.287722336E+01
     4
 # iter = 60500  time[fs]=60.50000
   C -0.622265406E+01  0.235977493E+00 -0.203912909E+00
   C  0.656613295E+01 -0.189788075E+00  0.295812305E+00
   H -0.324042419E+02 -0.313383578E+01  0.279053719E+01
   H  0.319405952E+02  0.428850449E+01 -0.291393730E+01
     4
 # iter = 61000  time[fs]=61.00000
   C -0.630638970E+01  0.239452148E+00 -0.206869528E+00
   C  0.665302536E+01 -0.192927885E+00  0.299900591E+00
   H -0.328025675E+02 -0.317248402E+01  0.282534351E+01
   H  0.323321862E+02  0.434187264E+01 -0.295066993E+01
     4
 # iter = 61500  time[fs]=61.50000
   C -0.639020111E+01  0.242930092E+00 -0.209829917E+00
   C  0.673999250E+01 -0.196071704E+00  0.303992924E+00
   H -0.332010475E+02 -0.321114935E+01  0.286016474E+01
   H  0.327239441E+02  0.439526652E+01 -0.298742081E+01
     4
 # iter = 62000  time[fs]=62.00000
   C -0.647408632E+01  0.246411249E+00 -0.212793981E+00
   C  0.682703243E+01 -0.199219440E+00  0.308089204E+00
   H -0.335996783E+02 -0.324983137E+01  0.289500056E+01
   H  0.331158648E+02  0.444868554E+01 -0.302418953E+01
     4
 # iter = 62500  time[fs]=62.50000
   C -0.655804344E+01  0.249895545E+00 -0.215761632E+00
   C  0.691414328E+01 -0.202371001E+00  0.312189337E+00
   H -0.339984563E+02 -0.328852969E+01  0.292985061E+01
   H  0.335079445E+02  0.450212911E+01 -0.306097567E+01
     4
 # iter = 63000  time[fs]=63.00000
   C -0.664207063E+01  0.253382906E+00 -0.218732783E+00
   C  0.700132324E+01 -0.205526300E+00  0.316293230E+00
   H -0.343973781E+02 -0.332724395E+01  0.296471458E+01
   H  0.339001797E+02  0.455559668E+01 -0.309777885E+01
     4
 # iter = 63500  time[fs]=63.50000
   C -0.672616614E+01  0.256873263E+00 -0.221707351E+00
   C  0.708857057E+01 -0.208685253E+00  0.320400793E+00
   H -0.347964404E+02 -0.336597378E+01  0.299959216E+01
   H  0.342925666E+02  0.460908771E+01 -0.313459869E+01
     4
 # iter = 64000  time[fs]=64.00000
   C -0.681032827E+01  0.260366549E+00 -0.224685255E+00
   C  0.717588360E+01 -0.211847779E+00  0.324511942E+00
   H -0.351956400E+02 -0.340471884E+01  0.303448304E+01
   H  0.346851020E+02  0.466260169E+01 -0.317143481E+01
     4
 # iter = 64500  time[fs]=64.50000
   C -0.689455538E+01  0.263862700E+00 -0.227666418E+00
   C  0.726326072E+01 -0.215013797E+00  0.328626593E+00
   H -0.355949739E+02 -0.344347879E+01  0.306938693E+01
   H  0.350777825E+02  0.471613811E+01 -0.320828687E+01
     4
 # iter = 65000  time[fs]=65.00000
   C -0.697884590E+01  0.267361650E+00 -0.230650765E+00
   C  0.735070036E+01 -0.218183232E+00  0.332744665E+00
   H -0.359944391E+02 -0.348225330E+01  0.310430355E+01
   H  0.354706048E+02  0.476969649E+01 -0.324515452E+01
     4
 # iter = 65500  time[fs]=65.50000
   C -0.706319831E+01  0.270863341E+00 -0.233638222E+00
   C  0.743820102E+01 -0.221356010E+00  0.336866082E+00
   H -0.363940327E+02 -0.352104206E+01  0.313923263E+01
   H  0.358635659E+02  0.482327635E+01 -0.328203743E+01
     4
 # iter = 66000  time[fs]=66.00000
   C -0.714761113E+01  0.274367712E+00 -0.236628720E+00
   C  0.752576126E+01 -0.224532058E+00  0.340990769E+00
   H -0.367937520E+02 -0.355984478E+01  0.317417391E+01
   H  0.362566628E+02  0.487687725E+01 -0.331893527E+01
     4
 # iter = 66500  time[fs]=66.50000
   C -0.723208295E+01  0.277874707E+00 -0.239622192E+00
   C  0.761337967E+01 -0.227711308E+00  0.345118653E+00
   H -0.371935942E+02 -0.359866114E+01  0.320912712E+01
   H  0.366498925E+02  0.493049872E+01 -0.335584774E+01
     4
 # iter = 67000  time[fs]=67.00000
   C -0.731661241E+01  0.281384270E+00 -0.242618572E+00
   C  0.770105490E+01 -0.230893692E+00  0.349249664E+00
   H -0.375935567E+02 -0.363749087E+01  0.324409201E+01
   H  0.370432522E+02  0.498414036E+01 -0.339277452E+01
     4
 # iter = 67500  time[fs]=67.50000
   C -0.740119817E+01  0.284896347E+00 -0.245617795E+00
   C  0.778878565E+01 -0.234079145E+00  0.353383734E+00
   H -0.379936371E+02 -0.367633369E+01  0.327906836E+01
   H  0.374367393E+02  0.503780175E+01 -0.342971534E+01
     4
 # iter = 68000  time[fs]=68.00000
   C -0.748583896E+01  0.288410886E+00 -0.248619802E+00
   C  0.787657065E+01 -0.237267603E+00  0.357520798E+00
   H -0.383938328E+02 -0.371518933E+01  0.331405592E+01
   H  0.378303511E+02  0.509148247E+01 -0.346666990E+01
     4
 # iter = 68500  time[fs]=68.50000
   C -0.757053354E+01  0.291927837E+00 -0.251624531E+00
   C  0.796440869E+01 -0.240459006E+00  0.361660791E+00
   H -0.387941415E+02 -0.375405753E+01  0.334905447E+01
   H  0.382240849E+02  0.514518215E+01 -0.350363792E+01
     4
 # iter = 69000  time[fs]=69.00000
   C -0.765528071E+01  0.295447150E+00 -0.254631927E+00
   C  0.805229857E+01 -0.243653293E+00  0.365803653E+00
   H -0.391945609E+02 -0.379293804E+01  0.338406378E+01
   H  0.386179384E+02  0.519890040E+01 -0.354061914E+01
     4
 # iter = 69500  time[fs]=69.50000
   C -0.774007932E+01  0.298968779E+00 -0.257641932E+00
   C  0.814023916E+01 -0.246850407E+00  0.369949324E+00
   H -0.395950888E+02 -0.383183061E+01  0.341908365E+01
   H  0.390119090E+02  0.525263686E+01 -0.357761331E+01
     4
 # iter = 70000  time[fs]=70.00000
   C -0.782492825E+01  0.302492676E+00 -0.260654493E+00
   C  0.822822935E+01 -0.250050292E+00  0.374097745E+00
   H -0.399957229E+02 -0.387073501E+01  0.345411387E+01
   H  0.394059945E+02  0.530639116E+01 -0.361462016E+01
     4
 # iter = 70500  time[fs]=70.50000
   C -0.790982641E+01  0.306018797E+00 -0.263669558E+00
   C  0.831626807E+01 -0.253252894E+00  0.378248861E+00
   H -0.403964612E+02 -0.390965101E+01  0.348915423E+01
   H  0.398001927E+02  0.536016297E+01 -0.365163945E+01
     4
 # iter = 71000  time[fs]=71.00000
   C -0.799477274E+01  0.309547099E+00 -0.266687074E+00
   C  0.840435429E+01 -0.256458159E+00  0.382402617E+00
   H -0.407973017E+02 -0.394857837E+01  0.352420455E+01
   H  0.401945012E+02  0.541395195E+01 -0.368867094E+01
     4
 # iter = 71500  time[fs]=71.50000
   C -0.807976624E+01  0.313077540E+00 -0.269706994E+00
   C  0.849248699E+01 -0.259666037E+00  0.386558960E+00
   H -0.411982424E+02 -0.398751689E+01  0.355926463E+01
   H  0.405889179E+02  0.546775777E+01 -0.372571441E+01
     4
 # iter = 72000  time[fs]=72.00000
   C -0.816480592E+01  0.316610077E+00 -0.272729269E+00
   C  0.858066521E+01 -0.262876477E+00  0.390717839E+00
   H -0.415992812E+02 -0.402646635E+01  0.359433428E+01
   H  0.409834408E+02  0.552158011E+01 -0.376276962E+01
     4
 # iter = 72500  time[fs]=72.50000
   C -0.824989081E+01  0.320144672E+00 -0.275753853E+00
   C  0.866888800E+01 -0.266089430E+00  0.394879204E+00
   H -0.420004165E+02 -0.406542654E+01  0.362941334E+01
   H  0.413780679E+02  0.557541866E+01 -0.379983636E+01
     4
 # iter = 73000  time[fs]=73.00000
   C -0.833501999E+01  0.323681286E+00 -0.278780700E+00
   C  0.875715444E+01 -0.269304851E+00  0.399043006E+00
   H -0.424016463E+02 -0.410439727E+01  0.366450162E+01
   H  0.417727971E+02  0.562927313E+01 -0.383691442E+01
     4
 # iter = 73500  time[fs]=73.50000
   C -0.842019256E+01  0.327219880E+00 -0.281809767E+00
   C  0.884546365E+01 -0.272522692E+00  0.403209200E+00
   H -0.428029689E+02 -0.414337834E+01  0.369959896E+01
   H  0.421676266E+02  0.568314322E+01 -0.387400359E+01
     4
 # iter = 74000  time[fs]=74.00000
   C -0.850540765E+01  0.330760418E+00 -0.284841011E+00
   C  0.893381477E+01 -0.275742909E+00  0.407377738E+00
   H -0.432043825E+02 -0.418236957E+01  0.373470518E+01
   H  0.425625546E+02  0.573702864E+01 -0.391110367E+01
     4
 # iter = 74500  time[fs]=74.50000
   C -0.859066441E+01  0.334302865E+00 -0.287874390E+00
   C  0.902220695E+01 -0.278965459E+00  0.411548578E+00
   H -0.436058856E+02 -0.422137076E+01  0.376982014E+01
   H  0.429575791E+02  0.579092913E+01 -0.394821445E+01
     4
 # iter = 75000  time[fs]=75.00000
   C -0.867596201E+01  0.337847185E+00 -0.290909865E+00
   C  0.911063939E+01 -0.282190299E+00  0.415721675E+00
   H -0.440074764E+02 -0.426038174E+01  0.380494367E+01
   H  0.433526985E+02  0.584484440E+01 -0.398533576E+01
     4
 # iter = 75500  time[fs]=75.50000
   C -0.876129966E+01  0.341393345E+00 -0.293947396E+00
   C  0.919911129E+01 -0.285417389E+00  0.419896987E+00
   H -0.444091534E+02 -0.429940234E+01  0.384007563E+01
   H  0.437479110E+02  0.589877421E+01 -0.402246741E+01
     4
 # iter = 76000  time[fs]=76.00000
   C -0.884667658E+01  0.344941312E+00 -0.296986945E+00
   C  0.928762190E+01 -0.288646688E+00  0.424074475E+00
   H -0.448109150E+02 -0.433843238E+01  0.387521586E+01
   H  0.441432149E+02  0.595271829E+01 -0.405960921E+01
     4
 # iter = 76500  time[fs]=76.50000
   C -0.893209202E+01  0.348491054E+00 -0.300028475E+00
   C  0.937617046E+01 -0.291878157E+00  0.428254097E+00
   H -0.452127598E+02 -0.437747170E+01  0.391036421E+01
   H  0.445386088E+02  0.600667639E+01 -0.409676098E+01
     4
 # iter = 77000  time[fs]=77.00000
   C -0.901754523E+01  0.352042539E+00 -0.303071950E+00
   C  0.946475625E+01 -0.295111759E+00  0.432435816E+00
   H -0.456146863E+02 -0.441652014E+01  0.394552056E+01
   H  0.449340909E+02  0.606064828E+01 -0.413392257E+01
     4
 # iter = 77500  time[fs]=77.50000
   C -0.910303552E+01  0.355595738E+00 -0.306117336E+00
   C  0.955337858E+01 -0.298347456E+00  0.436619594E+00
   H -0.460166930E+02 -0.445557754E+01  0.398068477E+01
   H  0.453296597E+02  0.611463372E+01 -0.417109379E+01
     4
 # iter = 78000  time[fs]=78.00000
   C -0.918856218E+01  0.359150620E+00 -0.309164597E+00
   C  0.964203675E+01 -0.301585212E+00  0.440805395E+00
   H -0.464187786E+02 -0.449464375E+01  0.401585669E+01
   H  0.457253138E+02  0.616863247E+01 -0.420827450E+01
     4
 # iter = 78500  time[fs]=78.50000
   C -0.927412455E+01  0.362707157E+00 -0.312213701E+00
   C  0.973073010E+01 -0.304824992E+00  0.444993182E+00
   H -0.468209417E+02 -0.453371862E+01  0.405103620E+01
   H  0.461210516E+02  0.622264432E+01 -0.424546451E+01
     4
 # iter = 79000  time[fs]=79.00000
   C -0.935972196E+01  0.366265320E+00 -0.315264615E+00
   C  0.981945799E+01 -0.308066763E+00  0.449182921E+00
   H -0.472231810E+02 -0.457280200E+01  0.408622317E+01
   H  0.465168718E+02  0.627666904E+01 -0.428266370E+01
     4
 # iter = 79500  time[fs]=79.50000
   C -0.944535378E+01  0.369825083E+00 -0.318317308E+00
   C  0.990821978E+01 -0.311310489E+00  0.453374578E+00
   H -0.476254953E+02 -0.461189376E+01  0.412141749E+01
   H  0.469127730E+02  0.633070642E+01 -0.431987189E+01
     4
 # iter = 80000  time[fs]=80.00000
   C -0.953101939E+01  0.373386417E+00 -0.321371749E+00
   C  0.999701486E+01 -0.314556140E+00  0.457568120E+00
   H -0.480278832E+02 -0.465099376E+01  0.415661902E+01
   H  0.473087538E+02  0.638475626E+01 -0.435708895E+01
