     4
 # iter = 25000  time[fs]=25.00000
   C -0.104592897E+01  0.478362945E-01 -0.282956883E-01
   C  0.945760430E+00 -0.968303749E-02 -0.767394288E-02
   H -0.531137701E+01  0.382962859E-01  0.646793895E+00
   H  0.529120265E+01  0.364036180E+00 -0.403537272E+00
     4
 # iter = 25500  time[fs]=25.50000
   C -0.109533372E+01  0.493911064E-01 -0.301038585E-01
   C  0.985507962E+00 -0.110880691E-01 -0.491283694E-02
   H -0.564711032E+01  0.390953661E-01  0.690809718E+00
   H  0.560851327E+01  0.387592100E+00 -0.425909056E+00
     4
 # iter = 26000  time[fs]=26.00000
   C -0.114774052E+01  0.510313884E-01 -0.319863559E-01
   C  0.102824950E+01 -0.126117899E-01 -0.210169760E-02
   H -0.598823001E+01  0.398919439E-01  0.735567819E+00
   H  0.593130671E+01  0.411549151E+00 -0.448731595E+00
     4
 # iter = 26500  time[fs]=26.50000
   C -0.120289873E+01  0.527504089E-01 -0.339403763E-01
   C  0.107373361E+01 -0.142439445E-01  0.759482265E-03
   H -0.633413010E+01  0.406860727E-01  0.780985029E+00
   H  0.625898662E+01  0.435864994E+00 -0.471955452E+00
     4
 # iter = 27000  time[fs]=27.00000
   C -0.126057472E+01  0.545418649E-01 -0.359629408E-01
   C  0.112172625E+01 -0.159752175E-01  0.367009129E-02
   H -0.668429612E+01  0.414777936E-01  0.826990924E+00
   H  0.659104355E+01  0.460503439E+00 -0.495538613E+00
     4
 # iter = 27500  time[fs]=27.50000
   C -0.132055295E+01  0.563999097E-01 -0.380509523E-01
   C  0.117201172E+01 -0.177971702E-01  0.662904231E-02
   H -0.703828842E+01  0.422671450E-01  0.873525424E+00
   H  0.692703969E+01  0.485433345E+00 -0.519445121E+00
     4
 # iter = 28000  time[fs]=28.00000
   C -0.138263618E+01  0.583191584E-01 -0.402012571E-01
   C  0.122439280E+01 -0.197021734E-01  0.963490071E-02
   H -0.739572890E+01  0.430541667E-01  0.920536921E+00
   H  0.726659663E+01  0.510627741E+00 -0.543643994E+00
     4
 # iter = 28500  time[fs]=28.50000
   C -0.144664484E+01  0.602946781E-01 -0.424107017E-01
   C  0.127869007E+01 -0.216833404E-01  0.126859932E-01
   H -0.775629048E+01  0.438389016E-01  0.967980794E+00
   H  0.760938553E+01  0.536063136E+00 -0.568108376E+00
     4
 # iter = 29000  time[fs]=29.00000
   C -0.151241615E+01  0.623219676E-01 -0.446761800E-01
   C  0.133474098E+01 -0.237344591E-01  0.157804965E-01
   H -0.811968864E+01  0.446213962E-01  0.101581824E+01
   H  0.795511915E+01  0.561718954E+00 -0.592814849E+00
     4
 # iter = 29500  time[fs]=29.50000
   C -0.157980294E+01  0.643969309E-01 -0.469946699E-01
   C  0.139239864E+01 -0.258499281E-01  0.189165062E-01
   H -0.848567457E+01  0.454017003E-01  0.106401530E+01
   H  0.830354536E+01  0.587577082E+00 -0.617742890E+00
     4
 # iter = 30000  time[fs]=30.00000
   C -0.164867232E+01  0.665158469E-01 -0.493632597E-01
   C  0.145153046E+01 -0.280246959E-01  0.220920907E-01
   H -0.885402967E+01  0.461798661E-01  0.111254216E+01
   H  0.865444183E+01  0.613621501E+00 -0.642874414E+00
     4
 # iter = 30500  time[fs]=30.50000
   C -0.171890442E+01  0.686753389E-01 -0.517791665E-01
   C  0.151201689E+01 -0.302542043E-01  0.253053296E-01
   H -0.922456091E+01  0.469559481E-01  0.116137244E+01
   H  0.900761169E+01  0.639837979E+00 -0.668193417E+00
     4
 # iter = 31000  time[fs]=31.00000
   C -0.179039111E+01  0.708723438E-01 -0.542397463E-01
   C  0.157375015E+01 -0.325343369E-01  0.285543425E-01
   H -0.959709720E+01  0.477300021E-01  0.121048277E+01
   H  0.936287986E+01  0.666213820E+00 -0.693685671E+00
     4
 # iter = 31500  time[fs]=31.50000
   C -0.186303484E+01  0.731040827E-01 -0.567424993E-01
   C  0.163663300E+01 -0.348613720E-01  0.318373083E-01
   H -0.997148619E+01  0.485020844E-01  0.125985229E+01
   H  0.972009007E+01  0.692737654E+00 -0.719338477E+00
     4
 # iter = 32000  time[fs]=32.00000
   C -0.193674753E+01  0.753680335E-01 -0.592850711E-01
   C  0.170057769E+01 -0.372319407E-01  0.351524779E-01
   H -0.103475918E+02  0.492722517E-01  0.130946236E+01
   H  0.100791023E+02  0.719399264E+00 -0.745140455E+00
     4
 # iter = 32500  time[fs]=32.50000
   C -0.201144957E+01  0.776619052E-01 -0.618652503E-01
   C  0.176550492E+01 -0.396429886E-01  0.384981825E-01
   H -0.107252918E+02  0.500405603E-01  0.135929624E+01
   H  0.104397908E+02  0.746189434E+00 -0.771081371E+00
     4
 # iter = 33000  time[fs]=33.00000
   C -0.208706889E+01  0.799836150E-01 -0.644809643E-01
   C  0.183134292E+01 -0.420917428E-01  0.418728370E-01
   H -0.111044764E+02  0.508070661E-01  0.140933884E+01
   H  0.108020419E+02  0.773099824E+00 -0.797151992E+00
     4
 # iter = 33500  time[fs]=33.50000
   C -0.216354022E+01  0.823312666E-01 -0.671302735E-01
   C  0.189802672E+01 -0.445756811E-01  0.452749416E-01
   H -0.114850465E+02  0.515718239E-01  0.145957652E+01
   H  0.111657530E+02  0.800122870E+00 -0.823343958E+00
     4
 # iter = 34000  time[fs]=34.00000
   C -0.224080429E+01  0.847031319E-01 -0.698113645E-01
   C  0.196549732E+01 -0.470925059E-01  0.487030813E-01
   H -0.118669121E+02  0.523348874E-01  0.150999693E+01
   H  0.115308310E+02  0.827251683E+00 -0.849649681E+00
     4
 # iter = 34500  time[fs]=34.50000
   C -0.231880724E+01  0.870976335E-01 -0.725225436E-01
   C  0.203370111E+01 -0.496401205E-01  0.521559235E-01
   H -0.122499916E+02  0.530963092E-01  0.156058881E+01
   H  0.118971910E+02  0.854479980E+00 -0.876062250E+00
     4
 # iter = 35000  time[fs]=35.00000
   C -0.239750001E+01  0.895133295E-01 -0.752622288E-01
   C  0.210258930E+01 -0.522166082E-01  0.556322151E-01
   H -0.126342108E+02  0.538561403E-01  0.161134191E+01
   H  0.122647558E+02  0.881802011E+00 -0.902575357E+00
     4
 # iter = 35500  time[fs]=35.50000
   C -0.247683786E+01  0.919489000E-01 -0.780289428E-01
   C  0.217211739E+01 -0.548202135E-01  0.591307791E-01
   H -0.130195018E+02  0.546144304E-01  0.166224684E+01
   H  0.126334546E+02  0.909212503E+00 -0.929183227E+00
     4
 # iter = 36000  time[fs]=36.00000
   C -0.255677992E+01  0.944031346E-01 -0.808213063E-01
   C  0.224224472E+01 -0.574493265E-01  0.626505107E-01
   H -0.134058026E+02  0.553712274E-01  0.171329503E+01
   H  0.130032227E+02  0.936706609E+00 -0.955880563E+00
     4
 # iter = 36500  time[fs]=36.50000
   C -0.263728877E+01  0.968749221E-01 -0.836380306E-01
   C  0.231293410E+01 -0.601024675E-01  0.661903731E-01
   H -0.137930560E+02  0.561265779E-01  0.176447857E+01
   H  0.133740006E+02  0.964279863E+00 -0.982662491E+00
     4
 # iter = 37000  time[fs]=37.00000
   C -0.271833012E+01  0.993632402E-01 -0.864779113E-01
   C  0.238415143E+01 -0.627782744E-01  0.697493936E-01
   H -0.141812098E+02  0.568805267E-01  0.181579019E+01
   H  0.137457333E+02  0.991928143E+00 -0.100952452E+01
     4
 # iter = 37500  time[fs]=37.50000
   C -0.279987247E+01  0.101867147E+00 -0.893398225E-01
   C  0.245586539E+01 -0.654754917E-01  0.733266596E-01
   H -0.145702157E+02  0.576331172E-01  0.186722318E+01
   H  0.141183705E+02  0.101964764E+01 -0.103646251E+01
     4
 # iter = 38000  time[fs]=38.00000
   C -0.288188685E+01  0.104385775E+00 -0.922227108E-01
   C  0.252804721E+01 -0.681929597E-01  0.769213146E-01
   H -0.149600291E+02  0.583843911E-01  0.191877136E+01
   H  0.144918652E+02  0.104743481E+01 -0.106347262E+01
     4
 # iter = 38500  time[fs]=38.50000
   C -0.296434655E+01  0.106918320E+00 -0.951255898E-01
   C  0.260067035E+01 -0.709296057E-01  0.805325545E-01
   H -0.153506087E+02  0.591343887E-01  0.197042896E+01
   H  0.148661742E+02  0.107528638E+01 -0.109055129E+01
     4
 # iter = 39000  time[fs]=39.00000
   C -0.304722695E+01  0.109464041E+00 -0.980475356E-01
   C  0.267371035E+01 -0.736844361E-01  0.841596243E-01
   H -0.157419165E+02  0.598831487E-01  0.202219067E+01
   H  0.152412575E+02  0.110319930E+01 -0.111769521E+01
     4
 # iter = 39500  time[fs]=39.50000
   C -0.313050528E+01  0.112022248E+00 -0.100987682E+00
   C  0.274714459E+01 -0.764565289E-01  0.878018144E-01
   H -0.161339168E+02  0.606307085E-01  0.207405153E+01
   H  0.156170776E+02  0.113117073E+01 -0.114490133E+01
     4
 # iter = 40000  time[fs]=40.00000
   C -0.321416046E+01  0.114592304E+00 -0.103945216E+00
   C  0.282095212E+01 -0.792450274E-01  0.914584577E-01
   H -0.165265767E+02  0.613771040E-01  0.212600691E+01
   H  0.159935998E+02  0.115919801E+01 -0.117216676E+01
     4
 # iter = 40500  time[fs]=40.50000
   C -0.329817294E+01  0.117173614E+00 -0.106919374E+00
   C  0.289511356E+01 -0.820491345E-01  0.951289268E-01
   H -0.169198655E+02  0.621223695E-01  0.217805254E+01
   H  0.163707918E+02  0.118727867E+01 -0.119948885E+01
     4
 # iter = 41000  time[fs]=41.00000
   C -0.338252459E+01  0.119765627E+00 -0.109909439E+00
   C  0.296961089E+01 -0.848681075E-01  0.988126308E-01
   H -0.173137545E+02  0.628665385E-01  0.223018437E+01
   H  0.167486233E+02  0.121541039E+01 -0.122686508E+01
     4
 # iter = 41500  time[fs]=41.50000
   C -0.346719853E+01  0.122367827E+00 -0.112914736E+00
   C  0.304442736E+01 -0.877012532E-01  0.102509013E+00
   H -0.177082169E+02  0.636096427E-01  0.228239866E+01
   H  0.171270661E+02  0.124359100E+01 -0.125429313E+01
     4
 # iter = 42000  time[fs]=42.00000
   C -0.355217907E+01  0.124979734E+00 -0.115934630E+00
   C  0.311954738E+01 -0.905479242E-01  0.106217550E+00
   H -0.181032276E+02  0.643517130E-01  0.233469188E+01
   H  0.175060937E+02  0.127181845E+01 -0.128177080E+01
     4
 # iter = 42500  time[fs]=42.50000
   C -0.363745155E+01  0.127600901E+00 -0.118968521E+00
   C  0.319495643E+01 -0.934075147E-01  0.109937745E+00
   H -0.184987632E+02  0.650927789E-01  0.238706073E+01
   H  0.178856812E+02  0.130009084E+01 -0.130929603E+01
     4
 # iter = 43000  time[fs]=43.00000
   C -0.372300232E+01  0.130230906E+00 -0.122015846E+00
   C  0.327064094E+01 -0.962794574E-01  0.113669133E+00
   H -0.188948017E+02  0.658328687E-01  0.243950211E+01
   H  0.182658054E+02  0.132840637E+01 -0.133686690E+01
     4
 # iter = 43500  time[fs]=43.50000
   C -0.380881860E+01  0.132869357E+00 -0.125076071E+00
   C  0.334658824E+01 -0.991632200E-01  0.117411271E+00
   H -0.192913224E+02  0.665720099E-01  0.249201310E+01
   H  0.186464444E+02  0.135676333E+01 -0.136448157E+01
     4
 # iter = 44000  time[fs]=44.00000
   C -0.389488842E+01  0.135515886E+00 -0.128148694E+00
   C  0.342278647E+01 -0.102058303E+00  0.121163742E+00
   H -0.196883057E+02  0.673102287E-01  0.254459095E+01
   H  0.190275776E+02  0.138516012E+01 -0.139213834E+01
     4
 # iter = 44500  time[fs]=44.50000
   C -0.398120060E+01  0.138170146E+00 -0.131233237E+00
   C  0.349922452E+01 -0.104964237E+00  0.124926152E+00
   H -0.200857334E+02  0.680475505E-01  0.259723308E+01
   H  0.194091856E+02  0.141359525E+01 -0.141983560E+01
     4
 # iter = 45000  time[fs]=45.00000
   C -0.406774463E+01  0.140831813E+00 -0.134329253E+00
   C  0.357589196E+01 -0.107880581E+00  0.128698127E+00
   H -0.204835882E+02  0.687839997E-01  0.264993704E+01
   H  0.197912500E+02  0.144206728E+01 -0.144757182E+01
     4
 # iter = 45500  time[fs]=45.50000
   C -0.415451063E+01  0.143500581E+00 -0.137436313E+00
   C  0.365277902E+01 -0.110806917E+00  0.132479313E+00
   H -0.208818538E+02  0.695195996E-01  0.270270053E+01
   H  0.201737536E+02  0.147057486E+01 -0.147534555E+01
     4
 # iter = 46000  time[fs]=46.00000
   C -0.424148933E+01  0.146176162E+00 -0.140554014E+00
   C  0.372987649E+01 -0.113742854E+00  0.136269374E+00
   H -0.212805149E+02  0.702543729E-01  0.275552136E+01
   H  0.205566800E+02  0.149911672E+01 -0.150315543E+01
     4
 # iter = 46500  time[fs]=46.50000
   C -0.432867200E+01  0.148858284E+00 -0.143681973E+00
   C  0.380717572E+01 -0.116688021E+00  0.140067991E+00
   H -0.216795567E+02  0.709883414E-01  0.280839747E+01
   H  0.209400139E+02  0.152769165E+01 -0.153100017E+01
     4
 # iter = 47000  time[fs]=47.00000
   C -0.441605042E+01  0.151546692E+00 -0.146819826E+00
   C  0.388466856E+01 -0.119642068E+00  0.143874862E+00
   H -0.220789657E+02  0.717215259E-01  0.286132691E+01
   H  0.213237405E+02  0.155629850E+01 -0.155887855E+01
     4
 # iter = 47500  time[fs]=47.50000
   C -0.450361682E+01  0.154241144E+00 -0.149967228E+00
   C  0.396234732E+01 -0.122604664E+00  0.147689700E+00
   H -0.224787287E+02  0.724539469E-01  0.291430781E+01
   H  0.217078459E+02  0.158493617E+01 -0.158678941E+01
     4
 # iter = 48000  time[fs]=48.00000
   C -0.459136390E+01  0.156941411E+00 -0.153123852E+00
   C  0.404020474E+01 -0.125575497E+00  0.151512231E+00
   H -0.228788334E+02  0.731856236E-01  0.296733841E+01
   H  0.220923172E+02  0.161360365E+01 -0.161473164E+01
     4
 # iter = 48500  time[fs]=48.50000
   C -0.467928473E+01  0.159647277E+00 -0.156289384E+00
   C  0.411823397E+01 -0.128554268E+00  0.155342194E+00
   H -0.232792679E+02  0.739165749E-01  0.302041705E+01
   H  0.224771416E+02  0.164229993E+01 -0.164270419E+01
     4
 # iter = 49000  time[fs]=49.00000
   C -0.476737278E+01  0.162358536E+00 -0.159463528E+00
   C  0.419642852E+01 -0.131540697E+00  0.159179344E+00
   H -0.236800212E+02  0.746468189E-01  0.307354213E+01
   H  0.228623074E+02  0.167102408E+01 -0.167070607E+01
     4
 # iter = 49500  time[fs]=49.50000
   C -0.485562184E+01  0.165074995E+00 -0.162646000E+00
   C  0.427478227E+01 -0.134534517E+00  0.163023442E+00
   H -0.240810826E+02  0.753763730E-01  0.312671214E+01
   H  0.232478032E+02  0.169977522E+01 -0.169873633E+01
     4
 # iter = 50000  time[fs]=50.00000
   C -0.494402605E+01  0.167796470E+00 -0.165836532E+00
   C  0.435328939E+01 -0.137535474E+00  0.166874266E+00
   H -0.244824420E+02  0.761052543E-01  0.317992564E+01
   H  0.236336184E+02  0.172855249E+01 -0.172679406E+01
     4
 # iter = 50500  time[fs]=50.50000
   C -0.503257986E+01  0.170522785E+00 -0.169034865E+00
   C  0.443194439E+01 -0.140543327E+00  0.170731599E+00
   H -0.248840898E+02  0.768334789E-01  0.323318125E+01
   H  0.240197426E+02  0.175735507E+01 -0.175487841E+01
     4
 # iter = 51000  time[fs]=51.00000
   C -0.512127798E+01  0.173253775E+00 -0.172240754E+00
   C  0.451074203E+01 -0.143557846E+00  0.174595238E+00
   H -0.252860169E+02  0.775610625E-01  0.328647767E+01
   H  0.244061662E+02  0.178618220E+01 -0.178298855E+01
     4
 # iter = 51500  time[fs]=51.50000
   C -0.521011540E+01  0.175989281E+00 -0.175453966E+00
   C  0.458967734E+01 -0.146578813E+00  0.178464986E+00
   H -0.256882145E+02  0.782880204E-01  0.333981363E+01
   H  0.247928797E+02  0.181503314E+01 -0.181112369E+01
     4
 # iter = 52000  time[fs]=52.00000
   C -0.529908736E+01  0.178729154E+00 -0.178674275E+00
   C  0.466874562E+01 -0.149606020E+00  0.182340657E+00
   H -0.260906743E+02  0.790143672E-01  0.339318796E+01
   H  0.251798744E+02  0.184390717E+01 -0.183928309E+01
     4
 # iter = 52500  time[fs]=52.50000
   C -0.538818933E+01  0.181473249E+00 -0.181901468E+00
   C  0.474794237E+01 -0.152639269E+00  0.186222073E+00
   H -0.264933883E+02  0.797401172E-01  0.344659950E+01
   H  0.255671416E+02  0.187280363E+01 -0.186746603E+01
     4
 # iter = 53000  time[fs]=53.00000
   C -0.547741699E+01  0.184221431E+00 -0.185135341E+00
   C  0.482726332E+01 -0.155678370E+00  0.190109061E+00
   H -0.268963490E+02  0.804652840E-01  0.350004717E+01
   H  0.259546734E+02  0.190172186E+01 -0.189567182E+01
     4
 # iter = 53500  time[fs]=53.50000
   C -0.556676623E+01  0.186973570E+00 -0.188375696E+00
   C  0.490670441E+01 -0.158723144E+00  0.194001458E+00
   H -0.272995489E+02  0.811898809E-01  0.355352992E+01
   H  0.263424619E+02  0.193066124E+01 -0.192389981E+01
     4
 # iter = 54000  time[fs]=54.00000
   C -0.565623315E+01  0.189729540E+00 -0.191622346E+00
   C  0.498626175E+01 -0.161773416E+00  0.197899108E+00
   H -0.277029812E+02  0.819139208E-01  0.360704675E+01
   H  0.267304998E+02  0.195962119E+01 -0.195214936E+01
     4
 # iter = 54500  time[fs]=54.50000
   C -0.574581400E+01  0.192489225E+00 -0.194875111E+00
   C  0.506593165E+01 -0.164829023E+00  0.201801859E+00
   H -0.281066392E+02  0.826374160E-01  0.366059670E+01
   H  0.271187798E+02  0.198860112E+01 -0.198041988E+01
     4
 # iter = 55000  time[fs]=55.00000
   C -0.583550521E+01  0.195252510E+00 -0.198133820E+00
   C  0.514571058E+01 -0.167889806E+00  0.205709569E+00
   H -0.285105165E+02  0.833603786E-01  0.371417885E+01
   H  0.275072952E+02  0.201760050E+01 -0.200871079E+01
     4
 # iter = 55500  time[fs]=55.50000
   C -0.592530339E+01  0.198019287E+00 -0.201398305E+00
   C  0.522559518E+01 -0.170955615E+00  0.209622098E+00
   H -0.289146071E+02  0.840828202E-01  0.376779233E+01
   H  0.278960394E+02  0.204661880E+01 -0.203702153E+01
     4
 # iter = 56000  time[fs]=56.00000
   C -0.601520528E+01  0.200789453E+00 -0.204668409E+00
   C  0.530558221E+01 -0.174026304E+00  0.213539315E+00
   H -0.293189049E+02  0.848047522E-01  0.382143628E+01
   H  0.282850062E+02  0.207565551E+01 -0.206535156E+01
     4
 # iter = 56500  time[fs]=56.50000
   C -0.610520777E+01  0.203562908E+00 -0.207943978E+00
   C  0.538566861E+01 -0.177101736E+00  0.217461091E+00
   H -0.297234044E+02  0.855261853E-01  0.387510990E+01
   H  0.286741895E+02  0.210471016E+01 -0.209370039E+01
     4
 # iter = 57000  time[fs]=57.00000
   C -0.619530788E+01  0.206339558E+00 -0.211224867E+00
   C  0.546585141E+01 -0.180181777E+00  0.221387304E+00
   H -0.301281002E+02  0.862471303E-01  0.392881240E+01
   H  0.290635836E+02  0.213378228E+01 -0.212206751E+01
     4
 # iter = 57500  time[fs]=57.50000
   C -0.628550275E+01  0.209119311E+00 -0.214510934E+00
   C  0.554612781E+01 -0.183266300E+00  0.225317836E+00
   H -0.305329871E+02  0.869675973E-01  0.398254303E+01
   H  0.294531828E+02  0.216287141E+01 -0.215045246E+01
     4
 # iter = 58000  time[fs]=58.00000
   C -0.637578967E+01  0.211902080E+00 -0.217802045E+00
   C  0.562649510E+01 -0.186355183E+00  0.229252575E+00
   H -0.309380600E+02  0.876875964E-01  0.403630107E+01
   H  0.298429819E+02  0.219197713E+01 -0.217885477E+01
     4
 # iter = 58500  time[fs]=58.50000
   C -0.646616600E+01  0.214687783E+00 -0.221098068E+00
   C  0.570695069E+01 -0.189448308E+00  0.233191411E+00
   H -0.313433143E+02  0.884071371E-01  0.409008582E+01
   H  0.302329758E+02  0.222109903E+01 -0.220727402E+01
     4
 # iter = 59000  time[fs]=59.00000
   C -0.655662925E+01  0.217476337E+00 -0.224398878E+00
   C  0.578749210E+01 -0.192545562E+00  0.237134239E+00
   H -0.317487452E+02  0.891262289E-01  0.414389663E+01
   H  0.306231594E+02  0.225023670E+01 -0.223570977E+01
     4
 # iter = 59500  time[fs]=59.50000
   C -0.664717700E+01  0.220267666E+00 -0.227704355E+00
   C  0.586811695E+01 -0.195646837E+00  0.241080959E+00
   H -0.321543483E+02  0.898448807E-01  0.419773284E+01
   H  0.310135280E+02  0.227938976E+01 -0.226416163E+01
     4
 # iter = 60000  time[fs]=60.00000
   C -0.673780694E+01  0.223061696E+00 -0.231014382E+00
   C  0.594882294E+01 -0.198752029E+00  0.245031473E+00
   H -0.325601193E+02  0.905631015E-01  0.425159383E+01
   H  0.314040770E+02  0.230855784E+01 -0.229262920E+01
     4
 # iter = 60500  time[fs]=60.50000
   C -0.682851684E+01  0.225858356E+00 -0.234328847E+00
   C  0.602960788E+01 -0.201861036E+00  0.248985688E+00
   H -0.329660541E+02  0.912808998E-01  0.430547900E+01
   H  0.317948021E+02  0.233774058E+01 -0.232111211E+01
     4
 # iter = 61000  time[fs]=61.00000
   C -0.691930459E+01  0.228657577E+00 -0.237647642E+00
   C  0.611046967E+01 -0.204973763E+00  0.252943513E+00
   H -0.333721487E+02  0.919982839E-01  0.435938779E+01
   H  0.321856988E+02  0.236693763E+01 -0.234960999E+01
     4
 # iter = 61500  time[fs]=61.50000
   C -0.701016811E+01  0.231459293E+00 -0.240970662E+00
   C  0.619140626E+01 -0.208090117E+00  0.256904862E+00
   H -0.337783993E+02  0.927152619E-01  0.441331962E+01
   H  0.325767633E+02  0.239614867E+01 -0.237812249E+01
     4
 # iter = 62000  time[fs]=62.00000
   C -0.710110545E+01  0.234263440E+00 -0.244297808E+00
   C  0.627241572E+01 -0.211210007E+00  0.260869649E+00
   H -0.341848022E+02  0.934318416E-01  0.446727397E+01
   H  0.329679914E+02  0.242537336E+01 -0.240664927E+01
     4
 # iter = 62500  time[fs]=62.50000
   C -0.719211469E+01  0.237069959E+00 -0.247628981E+00
   C  0.635349616E+01 -0.214333348E+00  0.264837794E+00
   H -0.345913537E+02  0.941480306E-01  0.452125032E+01
   H  0.333593793E+02  0.245461141E+01 -0.243519000E+01
     4
 # iter = 63000  time[fs]=63.00000
   C -0.728319402E+01  0.239878788E+00 -0.250964089E+00
   C  0.643464577E+01 -0.217460056E+00  0.268809218E+00
   H -0.349980505E+02  0.948638364E-01  0.457524816E+01
   H  0.337509234E+02  0.248386250E+01 -0.246374438E+01
     4
 # iter = 63500  time[fs]=63.50000
   C -0.737434168E+01  0.242689873E+00 -0.254303040E+00
   C  0.651586281E+01 -0.220590050E+00  0.272783846E+00
   H -0.354048893E+02  0.955792661E-01  0.462926700E+01
   H  0.341426200E+02  0.251312635E+01 -0.249231208E+01
     4
 # iter = 64000  time[fs]=64.00000
   C -0.746555595E+01  0.245503158E+00 -0.257645747E+00
   C  0.659714561E+01 -0.223723253E+00  0.276761604E+00
   H -0.358118667E+02  0.962943269E-01  0.468330639E+01
   H  0.345344658E+02  0.254240268E+01 -0.252089282E+01
     4
 # iter = 64500  time[fs]=64.50000
   C -0.755683522E+01  0.248318590E+00 -0.260992125E+00
   C  0.667849255E+01 -0.226859591E+00  0.280742422E+00
   H -0.362189797E+02  0.970090254E-01  0.473736587E+01
   H  0.349264574E+02  0.257169121E+01 -0.254948631E+01
     4
 # iter = 65000  time[fs]=65.00000
   C -0.764817789E+01  0.251136118E+00 -0.264342092E+00
   C  0.675990207E+01 -0.229998990E+00  0.284726231E+00
   H -0.366262253E+02  0.977233684E-01  0.479144500E+01
   H  0.353185916E+02  0.260099168E+01 -0.257809227E+01
     4
 # iter = 65500  time[fs]=65.50000
   C -0.773958246E+01  0.253955693E+00 -0.267695570E+00
   C  0.684137266E+01 -0.233141381E+00  0.288712965E+00
   H -0.370336005E+02  0.984373622E-01  0.484554335E+01
   H  0.357108652E+02  0.263030384E+01 -0.260671043E+01
     4
 # iter = 66000  time[fs]=66.00000
   C -0.783104744E+01  0.256777268E+00 -0.271052481E+00
   C  0.692290287E+01 -0.236286697E+00  0.292702561E+00
   H -0.374411026E+02  0.991510132E-01  0.489966052E+01
   H  0.361032752E+02  0.265962744E+01 -0.263534055E+01
     4
 # iter = 66500  time[fs]=66.50000
   C -0.792257143E+01  0.259600797E+00 -0.274412751E+00
   C  0.700449130E+01 -0.239434871E+00  0.296694955E+00
   H -0.378487289E+02  0.998643275E-01  0.495379610E+01
   H  0.364958188E+02  0.268896224E+01 -0.266398235E+01
     4
 # iter = 67000  time[fs]=67.00000
   C -0.801415305E+01  0.262426234E+00 -0.277776309E+00
   C  0.708613660E+01 -0.242585841E+00  0.300690088E+00
   H -0.382564766E+02  0.100577311E+00  0.500794972E+01
   H  0.368884930E+02  0.271830800E+01 -0.269263561E+01
     4
 # iter = 67500  time[fs]=67.50000
   C -0.810579097E+01  0.265253539E+00 -0.281143084E+00
   C  0.716783746E+01 -0.245739546E+00  0.304687901E+00
   H -0.386643432E+02  0.101289970E+00  0.506212100E+01
   H  0.372812951E+02  0.274766451E+01 -0.272130008E+01
     4
 # iter = 68000  time[fs]=68.00000
   C -0.819748393E+01  0.268082668E+00 -0.284513010E+00
   C  0.724959261E+01 -0.248895926E+00  0.308688339E+00
   H -0.390723262E+02  0.102002309E+00  0.511630957E+01
   H  0.376742225E+02  0.277703155E+01 -0.274997553E+01
     4
 # iter = 68500  time[fs]=68.50000
   C -0.828923068E+01  0.270913581E+00 -0.287886020E+00
   C  0.733140083E+01 -0.252054924E+00  0.312691347E+00
   H -0.394804233E+02  0.102714335E+00  0.517051509E+01
   H  0.380672726E+02  0.280640890E+01 -0.277866175E+01
     4
 # iter = 69000  time[fs]=69.00000
   C -0.838103002E+01  0.273746241E+00 -0.291262052E+00
   C  0.741326094E+01 -0.255216485E+00  0.316696872E+00
   H -0.398886322E+02  0.103426052E+00  0.522473721E+01
   H  0.384604429E+02  0.283579636E+01 -0.280735852E+01
     4
 # iter = 69500  time[fs]=69.50000
   C -0.847288080E+01  0.276580609E+00 -0.294641044E+00
   C  0.749517179E+01 -0.258380555E+00  0.320704861E+00
   H -0.402969504E+02  0.104137466E+00  0.527897562E+01
   H  0.388537310E+02  0.286519373E+01 -0.283606563E+01
     4
 # iter = 70000  time[fs]=70.00000
   C -0.856478190E+01  0.279416648E+00 -0.298022936E+00
   C  0.757713228E+01 -0.261547081E+00  0.324715266E+00
   H -0.407053760E+02  0.104848582E+00  0.533322997E+01
   H  0.392471344E+02  0.289460082E+01 -0.286478287E+01
     4
 # iter = 70500  time[fs]=70.50000
   C -0.865673222E+01  0.282254324E+00 -0.301407671E+00
   C  0.765914133E+01 -0.264716014E+00  0.328728039E+00
   H -0.411139066E+02  0.105559405E+00  0.538749997E+01
   H  0.396406510E+02  0.292401744E+01 -0.289351006E+01
     4
 # iter = 71000  time[fs]=71.00000
   C -0.874873073E+01  0.285093602E+00 -0.304795192E+00
   C  0.774119791E+01 -0.267887303E+00  0.332743131E+00
   H -0.415225403E+02  0.106269939E+00  0.544178531E+01
   H  0.400342786E+02  0.295344340E+01 -0.292224699E+01
     4
 # iter = 71500  time[fs]=71.50000
   C -0.884077639E+01  0.287934450E+00 -0.308185444E+00
   C  0.782330101E+01 -0.271060902E+00  0.336760498E+00
   H -0.419312751E+02  0.106980191E+00  0.549608570E+01
   H  0.404280149E+02  0.298287854E+01 -0.295099348E+01
     4
 # iter = 72000  time[fs]=72.00000
   C -0.893286824E+01  0.290776834E+00 -0.311578375E+00
   C  0.790544965E+01 -0.274236765E+00  0.340780095E+00
   H -0.423401090E+02  0.107690163E+00  0.555040084E+01
   H  0.408218578E+02  0.301232267E+01 -0.297974936E+01
     4
 # iter = 72500  time[fs]=72.50000
   C -0.902500529E+01  0.293620724E+00 -0.314973933E+00
   C  0.798764289E+01 -0.277414846E+00  0.344801880E+00
   H -0.427490401E+02  0.108399861E+00  0.560473048E+01
   H  0.412158054E+02  0.304177563E+01 -0.300851444E+01
     4
 # iter = 73000  time[fs]=73.00000
   C -0.911718664E+01  0.296466089E+00 -0.318372069E+00
   C  0.806987981E+01 -0.280595102E+00  0.348825809E+00
   H -0.431580666E+02  0.109109289E+00  0.565907433E+01
   H  0.416098557E+02  0.307123726E+01 -0.303728855E+01
     4
 # iter = 73500  time[fs]=73.50000
   C -0.920941138E+01  0.299312900E+00 -0.321772732E+00
   C  0.815215952E+01 -0.283777492E+00  0.352851844E+00
   H -0.435671867E+02  0.109818451E+00  0.571343213E+01
   H  0.420040067E+02  0.310070740E+01 -0.306607154E+01
     4
 # iter = 74000  time[fs]=74.00000
   C -0.930167863E+01  0.302161129E+00 -0.325175877E+00
   C  0.823448117E+01 -0.286961973E+00  0.356879944E+00
   H -0.439763987E+02  0.110527352E+00  0.576780362E+01
   H  0.423982566E+02  0.313018589E+01 -0.309486323E+01
     4
 # iter = 74500  time[fs]=74.50000
   C -0.939398755E+01  0.305010747E+00 -0.328581456E+00
   C  0.831684391E+01 -0.290148506E+00  0.360910071E+00
   H -0.443857008E+02  0.111235996E+00  0.582218857E+01
   H  0.427926036E+02  0.315967259E+01 -0.312366348E+01
     4
 # iter = 75000  time[fs]=75.00000
   C -0.948633731E+01  0.307861728E+00 -0.331989426E+00
   C  0.839924692E+01 -0.293337053E+00  0.364942187E+00
   H -0.447950915E+02  0.111944387E+00  0.587658673E+01
   H  0.431870459E+02  0.318916734E+01 -0.315247212E+01
     4
 # iter = 75500  time[fs]=75.50000
   C -0.957872712E+01  0.310714046E+00 -0.335399743E+00
   C  0.848168943E+01 -0.296527575E+00  0.368976256E+00
   H -0.452045690E+02  0.112652528E+00  0.593099785E+01
   H  0.435815817E+02  0.321867002E+01 -0.318128901E+01
     4
 # iter = 76000  time[fs]=76.00000
   C -0.967115619E+01  0.313567676E+00 -0.338812365E+00
   C  0.856417066E+01 -0.299720036E+00  0.373012243E+00
   H -0.456141319E+02  0.113360423E+00  0.598542172E+01
   H  0.439762095E+02  0.324818047E+01 -0.321011401E+01
     4
 # iter = 76500  time[fs]=76.50000
   C -0.976362378E+01  0.316422591E+00 -0.342227249E+00
   C  0.864668986E+01 -0.302914401E+00  0.377050114E+00
   H -0.460237787E+02  0.114068077E+00  0.603985812E+01
   H  0.443709275E+02  0.327769856E+01 -0.323894696E+01
     4
 # iter = 77000  time[fs]=77.00000
   C -0.985612915E+01  0.319278770E+00 -0.345644356E+00
   C  0.872924633E+01 -0.306110634E+00  0.381089834E+00
   H -0.464335079E+02  0.114775492E+00  0.609430681E+01
   H  0.447657342E+02  0.330722416E+01 -0.326778774E+01
     4
 # iter = 77500  time[fs]=77.50000
   C -0.994867159E+01  0.322136188E+00 -0.349063648E+00
   C  0.881183934E+01 -0.309308702E+00  0.385131371E+00
   H -0.468433179E+02  0.115482673E+00  0.614876760E+01
   H  0.451606281E+02  0.333675715E+01 -0.329663622E+01
     4
 # iter = 78000  time[fs]=78.00000
   C -0.100412504E+02  0.324994822E+00 -0.352485085E+00
   C  0.889446821E+01 -0.312508572E+00  0.389174693E+00
   H -0.472532075E+02  0.116189623E+00  0.620324027E+01
   H  0.455556076E+02  0.336629740E+01 -0.332549225E+01
     4
 # iter = 78500  time[fs]=78.50000
   C -0.101338649E+02  0.327854650E+00 -0.355908630E+00
   C  0.897713229E+01 -0.315710212E+00  0.393219770E+00
   H -0.476631753E+02  0.116896345E+00  0.625772463E+01
   H  0.459506713E+02  0.339584478E+01 -0.335435571E+01
     4
 # iter = 79000  time[fs]=79.00000
   C -0.102265145E+02  0.330715651E+00 -0.359334248E+00
   C  0.905983091E+01 -0.318913592E+00  0.397266571E+00
   H -0.480732199E+02  0.117602843E+00  0.631222047E+01
   H  0.463458177E+02  0.342539918E+01 -0.338322648E+01
     4
 # iter = 79500  time[fs]=79.50000
   C -0.103191984E+02  0.333577805E+00 -0.362761904E+00
   C  0.914256346E+01 -0.322118680E+00  0.401315067E+00
   H -0.484833400E+02  0.118309119E+00  0.636672762E+01
   H  0.467410455E+02  0.345496049E+01 -0.341210444E+01
     4
 # iter = 80000  time[fs]=80.00000
   C -0.104119162E+02  0.336441089E+00 -0.366191562E+00
   C  0.922532932E+01 -0.325325447E+00  0.405365228E+00
   H -0.488935345E+02  0.119015178E+00  0.642124587E+01
   H  0.471363532E+02  0.348452858E+01 -0.344098947E+01
