     4
 # iter = 25000  time[fs]=25.00000
   C -0.100810464E+01  0.505808908E-01  0.446598346E-01
   C  0.993025449E+00 -0.113692522E-02  0.283030808E-01
   H -0.529956101E+01  0.374148643E+00 -0.179033527E+00
   H  0.536249012E+01 -0.202465350E+00  0.102824223E+00
     4
 # iter = 25500  time[fs]=25.50000
   C -0.105483376E+01  0.509652314E-01  0.468651751E-01
   C  0.103536777E+01 -0.953492125E-03  0.290338925E-01
   H -0.563698334E+01  0.396310611E+00 -0.192199874E+00
   H  0.568424240E+01 -0.216372976E+00  0.109146544E+00
     4
 # iter = 26000  time[fs]=26.00000
   C -0.110454508E+01  0.514119124E-01  0.491101187E-01
   C  0.108067233E+01 -0.842206538E-03  0.297376723E-01
   H -0.597976682E+01  0.418841741E+00 -0.205603972E+00
   H  0.601159524E+01 -0.230532077E+00  0.115555763E+00
     4
 # iter = 26500  time[fs]=26.50000
   C -0.115699162E+01  0.519135373E-01  0.513918369E-01
   C  0.112869255E+01 -0.794390194E-03  0.304157666E-01
   H -0.632730551E+01  0.441699951E+00 -0.219219249E+00
   H  0.634393817E+01 -0.244915955E+00  0.122043091E+00
     4
 # iter = 27000  time[fs]=27.00000
   C -0.121194294E+01  0.524635356E-01  0.537077001E-01
   C  0.117919858E+01 -0.802415513E-03  0.310695609E-01
   H -0.667908551E+01  0.464849676E+00 -0.233023203E+00
   H  0.668074995E+01 -0.259501729E+00  0.128600955E+00
     4
 # iter = 27500  time[fs]=27.50000
   C -0.126918624E+01  0.530561214E-01  0.560552665E-01
   C  0.123197839E+01 -0.859616648E-03  0.317004442E-01
   H -0.703466804E+01  0.488260633E+00 -0.246996633E+00
   H  0.702158279E+01 -0.274269675E+00  0.135222790E+00
     4
 # iter = 28000  time[fs]=28.00000
   C -0.132852661E+01  0.536862302E-01  0.584322732E-01
   C  0.128683786E+01 -0.960189870E-03  0.323097813E-01
   H -0.739367602E+01  0.511906860E+00 -0.261123044E+00
   H  0.736604981E+01 -0.289202701E+00  0.141902876E+00
     4
 # iter = 28500  time[fs]=28.50000
   C -0.138978643E+01  0.543494455E-01  0.608366278E-01
   C  0.134360024E+01 -0.109909288E-02  0.328988932E-01
   H -0.775578350E+01  0.535765952E+00 -0.275388168E+00
   H  0.771381489E+01 -0.304285915E+00  0.148636202E+00
     4
 # iter = 29000  time[fs]=29.00000
   C -0.145280457E+01  0.550419247E-01  0.632664001E-01
   C  0.140210524E+01 -0.127194884E-02  0.334690434E-01
   H -0.812070708E+01  0.559818463E+00 -0.289779596E+00
   H  0.806458453E+01 -0.319506276E+00  0.155418361E+00
     4
 # iter = 29500  time[fs]=29.50000
   C -0.151743517E+01  0.557603271E-01  0.657198121E-01
   C  0.146220781E+01 -0.147495833E-02  0.340214297E-01
   H -0.848819909E+01  0.584047412E+00 -0.304286467E+00
   H  0.841810116E+01 -0.334852313E+00  0.162245453E+00
     4
 # iter = 30000  time[fs]=30.00000
   C -0.158354645E+01  0.565017484E-01  0.681952291E-01
   C  0.152377698E+01 -0.170482044E-02  0.345571797E-01
   H -0.885804199E+01  0.608437902E+00 -0.318899234E+00
   H  0.877413773E+01 -0.350313887E+00  0.169114017E+00
     4
 # iter = 30500  time[fs]=30.50000
   C -0.165101942E+01  0.572636621E-01  0.706911490E-01
   C  0.158669452E+01 -0.195866341E-02  0.350773494E-01
   H -0.923004383E+01  0.632976795E+00 -0.333609459E+00
   H  0.913249320E+01 -0.365882001E+00  0.176020968E+00
     4
 # iter = 31000  time[fs]=31.00000
   C -0.171974669E+01  0.580438669E-01  0.732061929E-01
   C  0.165085373E+01 -0.223398430E-02  0.355829238E-01
   H -0.960403448E+01  0.657652452E+00 -0.348409653E+00
   H  0.949298882E+01 -0.381548638E+00  0.182963542E+00
     4
 # iter = 31500  time[fs]=31.50000
   C -0.178963128E+01  0.588404419E-01  0.757390949E-01
   C  0.171615833E+01 -0.252859698E-02  0.360748193E-01
   H -0.997986255E+01  0.682454520E+00 -0.363293140E+00
   H  0.985546509E+01 -0.397306626E+00  0.189939260E+00
     4
 # iter = 32000  time[fs]=32.00000
   C -0.186058556E+01  0.596517076E-01  0.782886930E-01
   C  0.178252132E+01 -0.284058750E-02  0.365538862E-01
   H -0.103573928E+02  0.707373750E+00 -0.378253946E+00
   H  0.102197791E+02 -0.413149532E+00  0.196945887E+00
     4
 # iter = 32500  time[fs]=32.50000
   C -0.193253028E+01  0.604761919E-01  0.808539203E-01
   C  0.184986404E+01 -0.316827602E-02  0.370209129E-01
   H -0.107365039E+02  0.732401853E+00 -0.393286706E+00
   H  0.105858025E+02 -0.429071556E+00  0.203981400E+00
     4
 # iter = 33000  time[fs]=33.00000
   C -0.200539367E+01  0.613126018E-01  0.834337965E-01
   C  0.191811529E+01 -0.351018426E-02  0.374766293E-01
   H -0.111170867E+02  0.757531367E+00 -0.408386583E+00
   H  0.109534194E+02 -0.445067464E+00  0.211043967E+00
     4
 # iter = 33500  time[fs]=33.50000
   C -0.207911066E+01  0.621597987E-01  0.860274204E-01
   C  0.198721052E+01 -0.386500790E-02  0.379217114E-01
   H -0.114990429E+02  0.782755560E+00 -0.423549207E+00
   H  0.113225250E+02 -0.461132509E+00  0.218131920E+00
     4
 # iter = 34000  time[fs]=34.00000
   C -0.215362215E+01  0.630167772E-01  0.886339628E-01
   C  0.205709112E+01 -0.423159293E-02  0.383567844E-01
   H -0.118822831E+02  0.808068333E+00 -0.438770610E+00
   H  0.116930243E+02 -0.477262376E+00  0.225243739E+00
     4
 # iter = 34500  time[fs]=34.50000
   C -0.222887441E+01  0.638826476E-01  0.912526598E-01
   C  0.212770380E+01 -0.460891562E-02  0.387824274E-01
   H -0.122667265E+02  0.833464148E+00 -0.454047184E+00
   H  0.120648309E+02 -0.493453137E+00  0.232378034E+00
     4
 # iter = 35000  time[fs]=35.00000
   C -0.230481846E+01  0.647566203E-01  0.938828074E-01
   C  0.219900003E+01 -0.499606535E-02  0.391991765E-01
   H -0.126522992E+02  0.858937962E+00 -0.469375641E+00
   H  0.124378658E+02 -0.509701200E+00  0.239533530E+00
     4
 # iter = 35500  time[fs]=35.50000
   C -0.238140962E+01  0.656379930E-01  0.965237555E-01
   C  0.227093552E+01 -0.539222999E-02  0.396075285E-01
   H -0.130389341E+02  0.884485168E+00 -0.484752969E+00
   H  0.128120571E+02 -0.526003275E+00  0.246709058E+00
     4
 # iter = 36000  time[fs]=36.00000
   C -0.245860705E+01  0.665261392E-01  0.991749035E-01
   C  0.234346981E+01 -0.579668336E-02  0.400079440E-01
   H -0.134265694E+02  0.910101550E+00 -0.500176412E+00
   H  0.131873385E+02 -0.542356344E+00  0.253903540E+00
     4
 # iter = 36500  time[fs]=36.50000
   C -0.253637337E+01  0.674204989E-01  0.101835696E+00
   C  0.241656585E+01 -0.620877446E-02  0.404008504E-01
   H -0.138151487E+02  0.935783238E+00 -0.515643433E+00
   H  0.135636494E+02 -0.558757628E+00  0.261115981E+00
     4
 # iter = 37000  time[fs]=37.00000
   C -0.261467426E+01  0.683205702E-01  0.104505617E+00
   C  0.249018967E+01 -0.662791828E-02  0.407866444E-01
   H -0.142046201E+02  0.961526673E+00 -0.531151699E+00
   H  0.139409338E+02 -0.575204567E+00  0.268345462E+00
     4
 # iter = 37500  time[fs]=37.50000
   C -0.269347822E+01  0.692259024E-01  0.107184190E+00
   C  0.256431009E+01 -0.705358783E-02  0.411656950E-01
   H -0.145949356E+02  0.987328577E+00 -0.546699056E+00
   H  0.143191403E+02 -0.591694794E+00  0.275591132E+00
     4
 # iter = 38000  time[fs]=38.00000
   C -0.277275626E+01  0.701360894E-01  0.109870972E+00
   C  0.263889838E+01 -0.748530724E-02  0.415383456E-01
   H -0.149860511E+02  0.101318592E+01 -0.562283512E+00
   H  0.146982212E+02 -0.608226120E+00  0.282852201E+00
     4
 # iter = 38500  time[fs]=38.50000
   C -0.285248167E+01  0.710507651E-01  0.112565550E+00
   C  0.271392811E+01 -0.792264586E-02  0.419049156E-01
   H -0.153779258E+02  0.103909590E+01 -0.577903222E+00
   H  0.150781323E+02 -0.624796515E+00  0.290127934E+00
     4
 # iter = 39000  time[fs]=39.00000
   C -0.293262976E+01  0.719695982E-01  0.115267541E+00
   C  0.278937485E+01 -0.836521310E-02  0.422657032E-01
   H -0.157705216E+02  0.106505591E+01 -0.593556472E+00
   H  0.154588326E+02 -0.641404091E+00  0.297417648E+00
     4
 # iter = 39500  time[fs]=39.50000
   C -0.301317775E+01  0.728922887E-01  0.117976586E+00
   C  0.286521606E+01 -0.881265392E-02  0.426209865E-01
   H -0.161638035E+02  0.109106354E+01 -0.609241671E+00
   H  0.158402842E+02 -0.658047094E+00  0.304720705E+00
     4
 # iter = 40000  time[fs]=40.00000
   C -0.309410450E+01  0.738185639E-01  0.120692352E+00
   C  0.294143083E+01 -0.926464495E-02  0.429710255E-01
   H -0.165577388E+02  0.111711655E+01 -0.624957336E+00
   H  0.162224517E+02 -0.674723888E+00  0.312036510E+00
     4
 # iter = 40500  time[fs]=40.50000
   C -0.317539044E+01  0.747481759E-01  0.123414527E+00
   C  0.301799979E+01 -0.972089106E-02  0.433160630E-01
   H -0.169522971E+02  0.114321285E+01 -0.640702083E+00
   H  0.166053019E+02 -0.691432948E+00  0.319364505E+00
     4
 # iter = 41000  time[fs]=41.00000
   C -0.325701738E+01  0.756808987E-01  0.126142820E+00
   C  0.309490497E+01 -0.101811224E-01  0.436563267E-01
   H -0.173474498E+02  0.116935048E+01 -0.656474620E+00
   H  0.169888042E+02 -0.708172845E+00  0.326704169E+00
     4
 # iter = 41500  time[fs]=41.50000
   C -0.333896840E+01  0.766165258E-01  0.128876956E+00
   C  0.317212963E+01 -0.106450917E-01  0.439920298E-01
   H -0.177431705E+02  0.119552761E+01 -0.672273738E+00
   H  0.173729296E+02 -0.724942244E+00  0.334055013E+00
     4
 # iter = 42000  time[fs]=42.00000
   C -0.342122777E+01  0.775548684E-01  0.131616681E+00
   C  0.324965821E+01 -0.111125721E-01  0.443233723E-01
   H -0.181394344E+02  0.122174254E+01 -0.688098306E+00
   H  0.177576512E+02 -0.741739892E+00  0.341416577E+00
     4
 # iter = 42500  time[fs]=42.50000
   C -0.350378078E+01  0.784957534E-01  0.134361753E+00
   C  0.332747618E+01 -0.115833550E-01  0.446505419E-01
   H -0.185362181E+02  0.124799366E+01 -0.703947260E+00
   H  0.181429437E+02 -0.758564616E+00  0.348788429E+00
     4
 # iter = 43000  time[fs]=43.00000
   C -0.358661373E+01  0.794390218E-01  0.137111947E+00
   C  0.340557001E+01 -0.120572482E-01  0.449737154E-01
   H -0.189334999E+02  0.127427948E+01 -0.719819603E+00
   H  0.185287834E+02 -0.775415310E+00  0.356170162E+00
     4
 # iter = 43500  time[fs]=43.50000
   C -0.366971381E+01  0.803845275E-01  0.139867051E+00
   C  0.348392701E+01 -0.125340746E-01  0.452930588E-01
   H -0.193312592E+02  0.130059858E+01 -0.735714395E+00
   H  0.189151478E+02 -0.792290936E+00  0.363561393E+00
     4
 # iter = 44000  time[fs]=44.00000
   C -0.375306900E+01  0.813321360E-01  0.142626864E+00
   C  0.356253534E+01 -0.130136703E-01  0.456087286E-01
   H -0.197294768E+02  0.132694964E+01 -0.751630754E+00
   H  0.193020162E+02 -0.809190515E+00  0.370961760E+00
     4
 # iter = 44500  time[fs]=44.50000
   C -0.383666807E+01  0.822817232E-01  0.145391198E+00
   C  0.364138389E+01 -0.134958839E-01  0.459208722E-01
   H -0.201281346E+02  0.135333139E+01 -0.767567846E+00
   H  0.196893685E+02 -0.826113124E+00  0.378370922E+00
     4
 # iter = 45000  time[fs]=45.00000
   C -0.392050046E+01  0.832331743E-01  0.148159875E+00
   C  0.372046223E+01 -0.139805749E-01  0.462296289E-01
   H -0.205272153E+02  0.137974266E+01 -0.783524885E+00
   H  0.200771862E+02 -0.843057891E+00  0.385788555E+00
     4
 # iter = 45500  time[fs]=45.50000
   C -0.400455628E+01  0.841863834E-01  0.150932727E+00
   C  0.379976059E+01 -0.144676131E-01  0.465351300E-01
   H -0.209267030E+02  0.140618234E+01 -0.799501129E+00
   H  0.204654517E+02 -0.860023994E+00  0.393214353E+00
     4
 # iter = 46000  time[fs]=46.00000
   C -0.408882619E+01  0.851412521E-01  0.153709597E+00
   C  0.387926976E+01 -0.149568773E-01  0.468374998E-01
   H -0.213265823E+02  0.143264937E+01 -0.815495875E+00
   H  0.208541482E+02 -0.877010654E+00  0.400648028E+00
     4
 # iter = 46500  time[fs]=46.50000
   C -0.417330144E+01  0.860976894E-01  0.156490333E+00
   C  0.395898108E+01 -0.154482549E-01  0.471368559E-01
   H -0.217268388E+02  0.145914276E+01 -0.831508458E+00
   H  0.212432602E+02 -0.894017133E+00  0.408089305E+00
     4
 # iter = 47000  time[fs]=47.00000
   C -0.425797376E+01  0.870556106E-01  0.159274794E+00
   C  0.403888640E+01 -0.159416409E-01  0.474333095E-01
   H -0.221274588E+02  0.148566157E+01 -0.847538248E+00
   H  0.216327725E+02 -0.911042732E+00  0.415537922E+00
     4
 # iter = 47500  time[fs]=47.50000
   C -0.434283535E+01  0.880149369E-01  0.162062845E+00
   C  0.411897803E+01 -0.164369372E-01  0.477269661E-01
   H -0.225284295E+02  0.151220489E+01 -0.863584648E+00
   H  0.220226711E+02 -0.928086788E+00  0.422993632E+00
     4
 # iter = 48000  time[fs]=48.00000
   C -0.442787887E+01  0.889755951E-01  0.164854358E+00
   C  0.419924870E+01 -0.169340525E-01  0.480179256E-01
   H -0.229297386E+02  0.153877189E+01 -0.879647091E+00
   H  0.224129426E+02 -0.945148671E+00  0.430456200E+00
     4
 # iter = 48500  time[fs]=48.50000
   C -0.451309735E+01  0.899375168E-01  0.167649213E+00
   C  0.427969157E+01 -0.174329010E-01  0.483062831E-01
   H -0.233313744E+02  0.156536175E+01 -0.895725037E+00
   H  0.228035742E+02 -0.962227785E+00  0.437925401E+00
     4
 # iter = 49000  time[fs]=49.00000
   C -0.459848423E+01  0.909006383E-01  0.170447294E+00
   C  0.436030012E+01 -0.179334028E-01  0.485921287E-01
   H -0.237333258E+02  0.159197371E+01 -0.911817975E+00
   H  0.231945539E+02 -0.979323558E+00  0.445401023E+00
     4
 # iter = 49500  time[fs]=49.50000
   C -0.468403328E+01  0.918649001E-01  0.173248491E+00
   C  0.444106824E+01 -0.184354827E-01  0.488755482E-01
   H -0.241355825E+02  0.161860705E+01 -0.927925417E+00
   H  0.235858701E+02 -0.996435451E+00  0.452882862E+00
     4
 # iter = 50000  time[fs]=50.00000
   C -0.476973860E+01  0.928302463E-01  0.176052702E+00
   C  0.452199010E+01 -0.189390703E-01  0.491566230E-01
   H -0.245381343E+02  0.164526107E+01 -0.944046898E+00
   H  0.239775118E+02 -0.101356295E+01  0.460370725E+00
     4
 # iter = 50500  time[fs]=50.50000
   C -0.485559460E+01  0.937966249E-01  0.178859825E+00
   C  0.460306018E+01 -0.194440993E-01  0.494354308E-01
   H -0.249409718E+02  0.167193511E+01 -0.960181976E+00
   H  0.243694686E+02 -0.103070555E+01  0.467864426E+00
     4
 # iter = 51000  time[fs]=51.00000
   C -0.494159597E+01  0.947639869E-01  0.181669768E+00
   C  0.468427325E+01 -0.199505075E-01  0.497120455E-01
   H -0.253440859E+02  0.169862854E+01 -0.976330229E+00
   H  0.247617307E+02 -0.104786280E+01  0.475363788E+00
     4
 # iter = 51500  time[fs]=51.50000
   C -0.502773767E+01  0.957322865E-01  0.184482440E+00
   C  0.476562434E+01 -0.204582364E-01  0.499865376E-01
   H -0.257474679E+02  0.172534076E+01 -0.992491254E+00
   H  0.251542883E+02 -0.106503425E+01  0.482868643E+00
     4
 # iter = 52000  time[fs]=52.00000
   C -0.511401492E+01  0.967014805E-01  0.187297755E+00
   C  0.484710873E+01 -0.209672308E-01  0.502589745E-01
   H -0.261511096E+02  0.175207120E+01 -0.100866467E+01
   H  0.255471327E+02 -0.108221946E+01  0.490378830E+00
     4
 # iter = 52500  time[fs]=52.50000
   C -0.520042314E+01  0.976715286E-01  0.190115632E+00
   C  0.492872191E+01 -0.214774386E-01  0.505294202E-01
   H -0.265550031E+02  0.177881932E+01 -0.102485010E+01
   H  0.259402549E+02 -0.109941803E+01  0.497894194E+00
     4
 # iter = 53000  time[fs]=53.00000
   C -0.528695801E+01  0.986423925E-01  0.192935992E+00
   C  0.501045963E+01 -0.219888108E-01  0.507979360E-01
   H -0.269591408E+02  0.180558458E+01 -0.104104719E+01
   H  0.263336469E+02 -0.111662956E+01  0.505414586E+00
     4
 # iter = 53500  time[fs]=53.50000
   C -0.537361539E+01  0.996140365E-01  0.195758759E+00
   C  0.509231779E+01 -0.225013009E-01  0.510645807E-01
   H -0.273635156E+02  0.183236649E+01 -0.105725562E+01
   H  0.267273006E+02 -0.113385369E+01  0.512939866E+00
     4
 # iter = 54000  time[fs]=54.00000
   C -0.546039134E+01  0.100586427E+00  0.198583864E+00
   C  0.517429252E+01 -0.230148651E-01  0.513294101E-01
   H -0.277681206E+02  0.185916457E+01 -0.107347506E+01
   H  0.271212085E+02 -0.115109005E+01  0.520469897E+00
     4
 # iter = 54500  time[fs]=54.50000
   C -0.554728210E+01  0.101559531E+00  0.201411236E+00
   C  0.525638011E+01 -0.235294619E-01  0.515924780E-01
   H -0.281729490E+02  0.188597835E+01 -0.108970519E+01
   H  0.275153633E+02 -0.116833831E+01  0.528004549E+00
     4
 # iter = 55000  time[fs]=55.00000
   C -0.563428408E+01  0.102533320E+00  0.204240811E+00
   C  0.533857703E+01 -0.240450520E-01  0.518538357E-01
   H -0.285779948E+02  0.191280741E+01 -0.110594573E+01
   H  0.279097582E+02 -0.118559812E+01  0.535543696E+00
     4
 # iter = 55500  time[fs]=55.50000
   C -0.572139387E+01  0.103507764E+00  0.207072526E+00
   C  0.542087990E+01 -0.245615981E-01  0.521135322E-01
   H -0.289832516E+02  0.193965131E+01 -0.112219639E+01
   H  0.283043863E+02 -0.120286918E+01  0.543087220E+00
     4
 # iter = 56000  time[fs]=56.00000
   C -0.580860817E+01  0.104482838E+00  0.209906320E+00
   C  0.550328549E+01 -0.250790650E-01  0.523716149E-01
   H -0.293887139E+02  0.196650966E+01 -0.113845689E+01
   H  0.286992414E+02 -0.122015118E+01  0.550635004E+00
     4
 # iter = 56500  time[fs]=56.50000
   C -0.589592387E+01  0.105458515E+00  0.212742135E+00
   C  0.558579073E+01 -0.255974190E-01  0.526281288E-01
   H -0.297943759E+02  0.199338207E+01 -0.115472697E+01
   H  0.290943173E+02 -0.123744383E+01  0.558186938E+00
     4
 # iter = 57000  time[fs]=57.00000
   C -0.598333796E+01  0.106434771E+00  0.215579917E+00
   C  0.566839265E+01 -0.261166284E-01  0.528831174E-01
   H -0.302002323E+02  0.202026815E+01 -0.117100639E+01
   H  0.294896080E+02 -0.125474685E+01  0.565742914E+00
     4
 # iter = 57500  time[fs]=57.50000
   C -0.607084757E+01  0.107411584E+00  0.218419611E+00
   C  0.575108843E+01 -0.266366628E-01  0.531366223E-01
   H -0.306062780E+02  0.204716756E+01 -0.118729490E+01
   H  0.298851080E+02 -0.127205997E+01  0.573302831E+00
     4
 # iter = 58000  time[fs]=58.00000
   C -0.615844995E+01  0.108388931E+00  0.221261167E+00
   C  0.583387536E+01 -0.271574934E-01  0.533886834E-01
   H -0.310125080E+02  0.207407994E+01 -0.120359226E+01
   H  0.302808118E+02 -0.128938293E+01  0.580866589E+00
     4
 # iter = 58500  time[fs]=58.50000
   C -0.624614248E+01  0.109366793E+00  0.224104536E+00
   C  0.591675086E+01 -0.276790930E-01  0.536393393E-01
   H -0.314189175E+02  0.210100498E+01 -0.121989826E+01
   H  0.306767141E+02 -0.130671548E+01  0.588434093E+00
     4
 # iter = 59000  time[fs]=59.00000
   C -0.633392261E+01  0.110345150E+00  0.226949670E+00
   C  0.599971242E+01 -0.282014352E-01  0.538886269E-01
   H -0.318255021E+02  0.212794234E+01 -0.123621268E+01
   H  0.310728099E+02 -0.132405739E+01  0.596005252E+00
     4
 # iter = 59500  time[fs]=59.50000
   C -0.642178794E+01  0.111323983E+00  0.229796524E+00
   C  0.608275766E+01 -0.287244953E-01  0.541365816E-01
   H -0.322322572E+02  0.215489172E+01 -0.125253530E+01
   H  0.314690943E+02 -0.134140842E+01  0.603579976E+00
     4
 # iter = 60000  time[fs]=60.00000
   C -0.650973612E+01  0.112303274E+00  0.232645053E+00
   C  0.616588429E+01 -0.292482495E-01  0.543832378E-01
   H -0.326391787E+02  0.218185283E+01 -0.126886594E+01
   H  0.318655627E+02 -0.135876835E+01  0.611158182E+00
     4
 # iter = 60500  time[fs]=60.50000
   C -0.659776492E+01  0.113283008E+00  0.235495217E+00
   C  0.624909010E+01 -0.297726751E-01  0.546286284E-01
   H -0.330462624E+02  0.220882537E+01 -0.128520439E+01
   H  0.322622106E+02 -0.137613696E+01  0.618739786E+00
     4
 # iter = 61000  time[fs]=61.00000
   C -0.668587220E+01  0.114263168E+00  0.238346974E+00
   C  0.633237299E+01 -0.302977507E-01  0.548727850E-01
   H -0.334535044E+02  0.223580908E+01 -0.130155047E+01
   H  0.326590336E+02 -0.139351405E+01  0.626324710E+00
     4
 # iter = 61500  time[fs]=61.50000
   C -0.677405588E+01  0.115243738E+00  0.241200284E+00
   C  0.641573092E+01 -0.308234553E-01  0.551157382E-01
   H -0.338609009E+02  0.226280369E+01 -0.131790401E+01
   H  0.330560275E+02 -0.141089942E+01  0.633912876E+00
     4
 # iter = 62000  time[fs]=62.00000
   C -0.686231399E+01  0.116224704E+00  0.244055111E+00
   C  0.649916193E+01 -0.313497695E-01  0.553575175E-01
   H -0.342684483E+02  0.228980894E+01 -0.133426482E+01
   H  0.334531884E+02 -0.142829287E+01  0.641504210E+00
     4
 # iter = 62500  time[fs]=62.50000
   C -0.695064460E+01  0.117206053E+00  0.246911419E+00
   C  0.658266413E+01 -0.318766742E-01  0.555981514E-01
   H -0.346761429E+02  0.231682459E+01 -0.135063274E+01
   H  0.338505122E+02 -0.144569423E+01  0.649098642E+00
     4
 # iter = 63000  time[fs]=63.00000
   C -0.703904587E+01  0.118187772E+00  0.249769170E+00
   C  0.666623573E+01 -0.324041513E-01  0.558376671E-01
   H -0.350839815E+02  0.234385039E+01 -0.136700761E+01
   H  0.342479952E+02 -0.146310329E+01  0.656696101E+00
     4
 # iter = 63500  time[fs]=63.50000
   C -0.712751603E+01  0.119169847E+00  0.252628333E+00
   C  0.674987496E+01 -0.329321836E-01  0.560760912E-01
   H -0.354919606E+02  0.237088612E+01 -0.138338927E+01
   H  0.346456338E+02 -0.148051991E+01  0.664296522E+00
     4
 # iter = 64000  time[fs]=64.00000
   C -0.721605338E+01  0.120152266E+00  0.255488874E+00
   C  0.683358016E+01 -0.334607545E-01  0.563134492E-01
   H -0.359000771E+02  0.239793155E+01 -0.139977757E+01
   H  0.350434245E+02 -0.149794390E+01  0.671899838E+00
     4
 # iter = 64500  time[fs]=64.50000
   C -0.730465626E+01  0.121135019E+00  0.258350761E+00
   C  0.691734969E+01 -0.339898481E-01  0.565497658E-01
   H -0.363083280E+02  0.242498647E+01 -0.141617237E+01
   H  0.354413639E+02 -0.151537510E+01  0.679505988E+00
     4
 # iter = 65000  time[fs]=65.00000
   C -0.739332309E+01  0.122118094E+00  0.261213965E+00
   C  0.700118199E+01 -0.345194492E-01  0.567850648E-01
   H -0.367167102E+02  0.245205067E+01 -0.143257352E+01
   H  0.358394486E+02 -0.153281336E+01  0.687114911E+00
     4
 # iter = 65500  time[fs]=65.50000
   C -0.748205232E+01  0.123101481E+00  0.264078454E+00
   C  0.708507557E+01 -0.350495431E-01  0.570193693E-01
   H -0.371252208E+02  0.247912394E+01 -0.144898089E+01
   H  0.362376756E+02 -0.155025852E+01  0.694726548E+00
     4
 # iter = 66000  time[fs]=66.00000
   C -0.757084249E+01  0.124085169E+00  0.266944202E+00
   C  0.716902895E+01 -0.355801158E-01  0.572527016E-01
   H -0.375338571E+02  0.250620610E+01 -0.146539434E+01
   H  0.366360416E+02 -0.156771044E+01  0.702340843E+00
     4
 # iter = 66500  time[fs]=66.50000
   C -0.765969216E+01  0.125069150E+00  0.269811179E+00
   C  0.725304073E+01 -0.361111538E-01  0.574850832E-01
   H -0.379426163E+02  0.253329695E+01 -0.148181374E+01
   H  0.370345438E+02 -0.158516897E+01  0.709957739E+00
     4
 # iter = 67000  time[fs]=67.00000
   C -0.774859995E+01  0.126053413E+00  0.272679360E+00
   C  0.733710957E+01 -0.366426442E-01  0.577165349E-01
   H -0.383514959E+02  0.256039631E+01 -0.149823898E+01
   H  0.374331792E+02 -0.160263398E+01  0.717577185E+00
     4
 # iter = 67500  time[fs]=67.50000
   C -0.783756453E+01  0.127037950E+00  0.275548719E+00
   C  0.742123414E+01 -0.371745745E-01  0.579470770E-01
   H -0.387604933E+02  0.258750400E+01 -0.151466993E+01
   H  0.378319451E+02 -0.162010532E+01  0.725199127E+00
     4
 # iter = 68000  time[fs]=68.00000
   C -0.792658461E+01  0.128022753E+00  0.278419229E+00
   C  0.750541317E+01 -0.377069328E-01  0.581767290E-01
   H -0.391696061E+02  0.261461985E+01 -0.153110647E+01
   H  0.382308388E+02 -0.163758288E+01  0.732823516E+00
     4
 # iter = 68500  time[fs]=68.50000
   C -0.801565894E+01  0.129007813E+00  0.281290868E+00
   C  0.758964545E+01 -0.382397076E-01  0.584055099E-01
   H -0.395788319E+02  0.264174370E+01 -0.154754849E+01
   H  0.386298575E+02 -0.165506653E+01  0.740450303E+00
     4
 # iter = 69000  time[fs]=69.00000
   C -0.810478632E+01  0.129993123E+00  0.284163611E+00
   C  0.767392978E+01 -0.387728877E-01  0.586334380E-01
   H -0.399881683E+02  0.266887537E+01 -0.156399588E+01
   H  0.390289988E+02 -0.167255613E+01  0.748079440E+00
     4
 # iter = 69500  time[fs]=69.50000
   C -0.819396558E+01  0.130978675E+00  0.287037436E+00
   C  0.775826502E+01 -0.393064625E-01  0.588605310E-01
   H -0.403976132E+02  0.269601472E+01 -0.158044854E+01
   H  0.394282602E+02 -0.169005158E+01  0.755710882E+00
     4
 # iter = 70000  time[fs]=70.00000
   C -0.828319558E+01  0.131964462E+00  0.289912320E+00
   C  0.784265006E+01 -0.398404218E-01  0.590868063E-01
   H -0.408071643E+02  0.272316160E+01 -0.159690635E+01
   H  0.398276393E+02 -0.170755276E+01  0.763344585E+00
     4
 # iter = 70500  time[fs]=70.50000
   C -0.837247525E+01  0.132950477E+00  0.292788243E+00
   C  0.792708382E+01 -0.403747556E-01  0.593122805E-01
   H -0.412168196E+02  0.275031585E+01 -0.161336923E+01
   H  0.402271338E+02 -0.172505956E+01  0.770980503E+00
     4
 # iter = 71000  time[fs]=71.00000
   C -0.846180351E+01  0.133936713E+00  0.295665182E+00
   C  0.801156526E+01 -0.409094544E-01  0.595369699E-01
   H -0.416265770E+02  0.277747733E+01 -0.162983706E+01
   H  0.406267414E+02 -0.174257186E+01  0.778618597E+00
     4
 # iter = 71500  time[fs]=71.50000
   C -0.855117934E+01  0.134923164E+00  0.298543118E+00
   C  0.809609337E+01 -0.414445090E-01  0.597608901E-01
   H -0.420364345E+02  0.280464590E+01 -0.164630977E+01
   H  0.410264598E+02 -0.176008957E+01  0.786258823E+00
     4
 # iter = 72000  time[fs]=72.00000
   C -0.864060174E+01  0.135909825E+00  0.301422032E+00
   C  0.818066717E+01 -0.419799105E-01  0.599840565E-01
   H -0.424463902E+02  0.283182143E+01 -0.166278725E+01
   H  0.414262871E+02 -0.177761257E+01  0.793901144E+00
     4
 # iter = 72500  time[fs]=72.50000
   C -0.873006976E+01  0.136896688E+00  0.304301904E+00
   C  0.826528572E+01 -0.425156504E-01  0.602064839E-01
   H -0.428564423E+02  0.285900378E+01 -0.167926941E+01
   H  0.418262211E+02 -0.179514078E+01  0.801545520E+00
     4
 # iter = 73000  time[fs]=73.00000
   C -0.881958245E+01  0.137883748E+00  0.307182715E+00
   C  0.834994809E+01 -0.430517203E-01  0.604281867E-01
   H -0.432665888E+02  0.288619283E+01 -0.169575618E+01
   H  0.422262598E+02 -0.181267409E+01  0.809191913E+00
     4
 # iter = 73500  time[fs]=73.50000
   C -0.890913891E+01  0.138871001E+00  0.310064448E+00
   C  0.843465340E+01 -0.435881124E-01  0.606491789E-01
   H -0.436768281E+02  0.291338846E+01 -0.171224745E+01
   H  0.426264012E+02 -0.183021241E+01  0.816840287E+00
     4
 # iter = 74000  time[fs]=74.00000
   C -0.899873825E+01  0.139858440E+00  0.312947086E+00
   C  0.851940078E+01 -0.441248188E-01  0.608694741E-01
   H -0.440871584E+02  0.294059053E+01 -0.172874316E+01
   H  0.430266434E+02 -0.184775565E+01  0.824490606E+00
     4
 # iter = 74500  time[fs]=74.50000
   C -0.908837963E+01  0.140846060E+00  0.315830610E+00
   C  0.860418938E+01 -0.446618321E-01  0.610890855E-01
   H -0.444975780E+02  0.296779894E+01 -0.174524322E+01
   H  0.434269847E+02 -0.186530371E+01  0.832142836E+00
     4
 # iter = 75000  time[fs]=75.00000
   C -0.917806222E+01  0.141833857E+00  0.318715005E+00
   C  0.868901840E+01 -0.451991452E-01  0.613080260E-01
   H -0.449080853E+02  0.299501357E+01 -0.176174755E+01
   H  0.438274231E+02 -0.188285652E+01  0.839796942E+00
     4
 # iter = 75500  time[fs]=75.50000
   C -0.926778519E+01  0.142821826E+00  0.321600255E+00
   C  0.877388704E+01 -0.457367510E-01  0.615263080E-01
   H -0.453186788E+02  0.302223431E+01 -0.177825608E+01
   H  0.442279570E+02 -0.190041399E+01  0.847452892E+00
     4
 # iter = 76000  time[fs]=76.00000
   C -0.935754779E+01  0.143809962E+00  0.324486343E+00
   C  0.885879454E+01 -0.462746428E-01  0.617439437E-01
   H -0.457293568E+02  0.304946104E+01 -0.179476874E+01
   H  0.446285846E+02 -0.191797603E+01  0.855110654E+00
     4
 # iter = 76500  time[fs]=76.50000
   C -0.944734924E+01  0.144798261E+00  0.327373256E+00
   C  0.894374013E+01 -0.468128141E-01  0.619609449E-01
   H -0.461401180E+02  0.307669367E+01 -0.181128544E+01
   H  0.450293042E+02 -0.193554256E+01  0.862770196E+00
     4
 # iter = 77000  time[fs]=77.00000
   C -0.953718880E+01  0.145786718E+00  0.330260977E+00
   C  0.902872311E+01 -0.473512586E-01  0.621773231E-01
   H -0.465509607E+02  0.310393210E+01 -0.182780612E+01
   H  0.454301143E+02 -0.195311351E+01  0.870431489E+00
     4
 # iter = 77500  time[fs]=77.50000
   C -0.962706575E+01  0.146775330E+00  0.333149493E+00
   C  0.911374276E+01 -0.478899701E-01  0.623930895E-01
   H -0.469618836E+02  0.313117621E+01 -0.184433072E+01
   H  0.458310133E+02 -0.197068881E+01  0.878094502E+00
     4
 # iter = 78000  time[fs]=78.00000
   C -0.971697941E+01  0.147764093E+00  0.336038789E+00
   C  0.919879839E+01 -0.484289428E-01  0.626082551E-01
   H -0.473728853E+02  0.315842591E+01 -0.186085916E+01
   H  0.462319996E+02 -0.198826836E+01  0.885759207E+00
     4
 # iter = 78500  time[fs]=78.50000
   C -0.980692908E+01  0.148753002E+00  0.338928851E+00
   C  0.928388934E+01 -0.489681709E-01  0.628228304E-01
   H -0.477839645E+02  0.318568112E+01 -0.187739139E+01
   H  0.466330717E+02 -0.200585212E+01  0.893425575E+00
     4
 # iter = 79000  time[fs]=79.00000
   C -0.989691411E+01  0.149742055E+00  0.341819667E+00
   C  0.936901496E+01 -0.495076489E-01  0.630368258E-01
   H -0.481951198E+02  0.321294173E+01 -0.189392733E+01
   H  0.470342283E+02 -0.202344000E+01  0.901093578E+00
     4
 # iter = 79500  time[fs]=79.50000
   C -0.998693384E+01  0.150731247E+00  0.344711224E+00
   C  0.945417461E+01 -0.500473713E-01  0.632502513E-01
   H -0.486063500E+02  0.324020765E+01 -0.191046693E+01
   H  0.474354677E+02 -0.204103193E+01  0.908763191E+00
     4
 # iter = 80000  time[fs]=80.00000
   C -0.100769877E+02  0.151720575E+00  0.347603508E+00
   C  0.953936769E+01 -0.505873330E-01  0.634631168E-01
   H -0.490176537E+02  0.326747880E+01 -0.192701012E+01
   H  0.478367888E+02 -0.205862785E+01  0.916434387E+00
