     4
 # iter = 25000  time[fs]=25.00000
   C -0.977461413E+00 -0.927537069E-02  0.289400508E-01
   C  0.993484362E+00  0.136019420E-01  0.162059267E-01
   H -0.533968625E+01  0.757711678E-01 -0.477612881E+00
   H  0.533095921E+01  0.468921096E+00  0.329398972E+00
     4
 # iter = 25500  time[fs]=25.50000
   C -0.102141347E+01 -0.101623374E-01  0.311495409E-01
   C  0.103475959E+01  0.109450681E-01  0.161773462E-01
   H -0.567103210E+01  0.792053448E-01 -0.508720292E+00
   H  0.565021627E+01  0.493810056E+00  0.351116085E+00
     4
 # iter = 26000  time[fs]=26.00000
   C -0.106828893E+01 -0.110939736E-01  0.334031078E-01
   C  0.107890910E+01  0.828368876E-02  0.161152060E-01
   H -0.600737796E+01  0.827035818E-01 -0.540326084E+00
   H  0.597506268E+01  0.519225055E+00  0.373205375E+00
     4
 # iter = 26500  time[fs]=26.50000
   C -0.111785052E+01 -0.120627173E-01  0.356984851E-01
   C  0.112570059E+01  0.561575572E-02  0.160204782E-01
   H -0.634817337E+01  0.862587041E-01 -0.572375588E+00
   H  0.630488837E+01  0.545107104E+00  0.395627702E+00
     4
 # iter = 27000  time[fs]=27.00000
   C -0.116987617E+01 -0.130622408E-01  0.380334812E-01
   C  0.117491634E+01  0.293960766E-02  0.158942757E-01
   H -0.669294938E+01  0.898646671E-01 -0.604822335E+00
   H  0.663917251E+01  0.571406250E+00  0.418349543E+00
     4
 # iter = 27500  time[fs]=27.50000
   C -0.122416023E+01 -0.140872719E-01  0.404059713E-01
   C  0.122635444E+01  0.253951631E-03  0.157378158E-01
   H -0.704130391E+01  0.935163301E-01 -0.637626545E+00
   H  0.697746777E+01  0.598079882E+00  0.441342008E+00
     4
 # iter = 28000  time[fs]=28.00000
   C -0.128051374E+01 -0.151334305E-01  0.428139006E-01
   C  0.127982923E+01 -0.244217513E-02  0.155523837E-01
   H -0.739289011E+01  0.972092839E-01 -0.670753937E+00
   H  0.731938774E+01  0.625091403E+00  0.464580052E+00
     4
 # iter = 28500  time[fs]=28.50000
   C -0.133876406E+01 -0.161970841E-01  0.452552914E-01
   C  0.133517098E+01 -0.514945126E-02  0.153392995E-01
   H -0.774740708E+01  0.100939719E+00 -0.704174786E+00
   H  0.766459677E+01  0.652409175E+00  0.488041840E+00
     4
 # iter = 29000  time[fs]=29.00000
   C -0.139875416E+01 -0.172752224E-01  0.477282502E-01
   C  0.139222520E+01 -0.786831806E-02  0.150998906E-01
   H -0.810459239E+01  0.104704320E+00 -0.737863168E+00
   H  0.801280182E+01  0.680005685E+00  0.511708240E+00
     4
 # iter = 29500  time[fs]=29.50000
   C -0.146034156E+01 -0.183653514E-01  0.502309741E-01
   C  0.145085168E+01 -0.105990231E-01  0.148354701E-01
   H -0.846421598E+01  0.108500187E+00 -0.771796358E+00
   H  0.836374579E+01  0.707856875E+00  0.535562406E+00
     4
 # iter = 30000  time[fs]=30.00000
   C -0.152339726E+01 -0.194654032E-01  0.527617540E-01
   C  0.151092339E+01 -0.133416591E-01  0.145473204E-01
   H -0.882607524E+01  0.112324766E+00 -0.805954330E+00
   H  0.871720205E+01  0.735941600E+00  0.559589433E+00
     4
 # iter = 30500  time[fs]=30.50000
   C -0.158780453E+01 -0.205736622E-01  0.553189769E-01
   C  0.157232541E+01 -0.160961971E-01  0.142366810E-01
   H -0.918999093E+01  0.116175801E+00 -0.840319359E+00
   H  0.907296995E+01  0.764241179E+00  0.583776079E+00
     4
 # iter = 31000  time[fs]=31.00000
   C -0.165345785E+01 -0.216887031E-01  0.579011252E-01
   C  0.163495380E+01 -0.188625142E-01  0.139047406E-01
   H -0.955580382E+01  0.120051282E+00 -0.874875689E+00
   H  0.943087117E+01  0.792739042E+00  0.608110531E+00
     4
 # iter = 31500  time[fs]=31.50000
   C -0.172026175E+01 -0.228093398E-01  0.605067750E-01
   C  0.169871453E+01 -0.216404165E-01  0.135526326E-01
   H -0.992337189E+01  0.123949421E+00 -0.909609253E+00
   H  0.979074655E+01  0.821420424E+00  0.632582211E+00
     4
 # iter = 32000  time[fs]=32.00000
   C -0.178812986E+01 -0.239345842E-01  0.631345933E-01
   C  0.176352250E+01 -0.244296581E-01  0.131814321E-01
   H -0.102925680E+02  0.127868610E+00 -0.944507450E+00
   H  0.101524535E+02  0.850272114E+00  0.657181612E+00
     4
 # iter = 32500  time[fs]=32.50000
   C -0.185698394E+01 -0.250636112E-01  0.657833340E-01
   C  0.182930063E+01 -0.272299552E-01  0.127921551E-01
   H -0.106632780E+02  0.131807409E+00 -0.979558947E+00
   H  0.105158640E+02  0.879282256E+00  0.681900163E+00
     4
 # iter = 33000  time[fs]=33.00000
   C -0.192675306E+01 -0.261957311E-01  0.684518336E-01
   C  0.189597906E+01 -0.300409987E-01  0.123857593E-01
   H -0.110353989E+02  0.135764512E+00 -0.101475352E+01
   H  0.108808625E+02  0.908440163E+00  0.706730107E+00
     4
 # iter = 33500  time[fs]=33.50000
   C -0.199737284E+01 -0.273303662E-01  0.711390066E-01
   C  0.196349434E+01 -0.328624632E-01  0.119631453E-01
   H -0.114088377E+02  0.139738743E+00 -0.105008191E+01
   H  0.112473445E+02  0.937736178E+00  0.731664409E+00
     4
 # iter = 34000  time[fs]=34.00000
   C -0.206878474E+01 -0.284670321E-01  0.738438407E-01
   C  0.203178880E+01 -0.356940140E-01  0.115251589E-01
   H -0.117835100E+02  0.143729028E+00 -0.108553572E+01
   H  0.116152152E+02  0.967161542E+00  0.756696666E+00
     4
 # iter = 34500  time[fs]=34.50000
   C -0.214093548E+01 -0.296053216E-01  0.765653922E-01
   C  0.210080996E+01 -0.385353133E-01  0.110725934E-01
   H -0.121593390E+02  0.147734393E+00 -0.112110731E+01
   H  0.119843885E+02  0.996708292E+00  0.781821037E+00
     4
 # iter = 35000  time[fs]=35.00000
   C -0.221377648E+01 -0.307448924E-01  0.793027809E-01
   C  0.217050995E+01 -0.413860240E-01  0.106061922E-01
   H -0.125362548E+02  0.151753948E+00 -0.115678968E+01
   H  0.123547856E+02  0.102636917E+01  0.807032179E+00
     4
 # iter = 35500  time[fs]=35.50000
   C -0.228726336E+01 -0.318854563E-01  0.820551861E-01
   C  0.224084505E+01 -0.442458130E-01  0.101266520E-01
   H -0.129141934E+02  0.155786876E+00 -0.119257646E+01
   H  0.127263347E+02  0.105613752E+01  0.832325191E+00
     4
 # iter = 36000  time[fs]=36.00000
   C -0.236135554E+01 -0.330267704E-01  0.848218421E-01
   C  0.231177530E+01 -0.471143538E-01  0.963462540E-02
   H -0.132930963E+02  0.159832430E+00 -0.122846177E+01
   H  0.130989699E+02  0.108600728E+01  0.857695573E+00
     4
 # iter = 36500  time[fs]=36.50000
   C -0.243601583E+01 -0.341686298E-01  0.876020341E-01
   C  0.238326408E+01 -0.499913280E-01  0.913072365E-02
   H -0.136729095E+02  0.163889921E+00 -0.126444024E+01
   H  0.134726306E+02  0.111597284E+01  0.883139175E+00
     4
 # iter = 37000  time[fs]=37.00000
   C -0.251121013E+01 -0.353108617E-01  0.903950947E-01
   C  0.245527776E+01 -0.528764267E-01  0.861551949E-02
   H -0.140535837E+02  0.167958714E+00 -0.130050690E+01
   H  0.138472612E+02  0.114602906E+01  0.908652172E+00
     4
 # iter = 37500  time[fs]=37.50000
   C -0.258690705E+01 -0.364533202E-01  0.932004000E-01
   C  0.252778547E+01 -0.557693511E-01  0.808954974E-02
   H -0.144350730E+02  0.172038225E+00 -0.133665716E+01
   H  0.142228103E+02  0.117617120E+01  0.934231023E+00
     4
 # iter = 38000  time[fs]=38.00000
   C -0.266307772E+01 -0.375958824E-01  0.960173667E-01
   C  0.260075878E+01 -0.586698131E-01  0.755331773E-02
   H -0.148173354E+02  0.176127910E+00 -0.137288678E+01
   H  0.145992303E+02  0.120639485E+01  0.959872448E+00
     4
 # iter = 38500  time[fs]=38.50000
   C -0.273969553E+01 -0.387384445E-01  0.988454485E-01
   C  0.267417146E+01 -0.615775356E-01  0.700729564E-02
   H -0.152003317E+02  0.180227266E+00 -0.140919184E+01
   H  0.149764773E+02  0.123669596E+01  0.985573404E+00
     4
 # iter = 39000  time[fs]=39.00000
   C -0.281673588E+01 -0.398809193E-01  0.101684134E+00
   C  0.274799932E+01 -0.644922525E-01  0.645192671E-02
   H -0.155840257E+02  0.184335828E+00 -0.144556868E+01
   H  0.153545105E+02  0.126707075E+01  0.101133106E+01
     4
 # iter = 39500  time[fs]=39.50000
   C -0.289417603E+01 -0.410232334E-01  0.104532944E+00
   C  0.282221995E+01 -0.674137085E-01  0.588762723E-02
   H -0.159683837E+02  0.188453159E+00 -0.148201390E+01
   H  0.157332919E+02  0.129751571E+01  0.103714278E+01
     4
 # iter = 40000  time[fs]=40.00000
   C -0.297199492E+01 -0.421653253E-01  0.107391428E+00
   C  0.289681263E+01 -0.703416593E-01  0.531478852E-02
   H -0.163533744E+02  0.192578856E+00 -0.151852436E+01
   H  0.161127862E+02  0.132802757E+01  0.106300611E+01
     4
 # iter = 40500  time[fs]=40.50000
   C -0.305017301E+01 -0.433071435E-01  0.110259164E+00
   C  0.297175813E+01 -0.732758710E-01  0.473377859E-02
   H -0.167389685E+02  0.196712540E+00 -0.155509708E+01
   H  0.164929606E+02  0.135860330E+01  0.108891874E+01
     4
 # iter = 41000  time[fs]=41.00000
   C -0.312869213E+01 -0.444486452E-01  0.113135754E+00
   C  0.304703857E+01 -0.762161197E-01  0.414494387E-02
   H -0.171251388E+02  0.200853859E+00 -0.159172933E+01
   H  0.168737844E+02  0.138924004E+01  0.111487854E+01
     4
 # iter = 41500  time[fs]=41.50000
   C -0.320753542E+01 -0.455897949E-01  0.116020826E+00
   C  0.312263735E+01 -0.791621917E-01  0.354861068E-02
   H -0.175118599E+02  0.205002481E+00 -0.162841852E+01
   H  0.172552288E+02  0.141993512E+01  0.114088348E+01
     4
 # iter = 42000  time[fs]=42.00000
   C -0.328668714E+01 -0.467305635E-01  0.118914027E+00
   C  0.319853898E+01 -0.821138824E-01  0.294508662E-02
   H -0.178991077E+02  0.209158097E+00 -0.166516222E+01
   H  0.176372669E+02  0.145068607E+01  0.116693168E+01
     4
 # iter = 42500  time[fs]=42.50000
   C -0.336613262E+01 -0.478709271E-01  0.121815026E+00
   C  0.327472903E+01 -0.850709966E-01  0.233466189E-02
   H -0.182868601E+02  0.213320415E+00 -0.170195817E+01
   H  0.180198735E+02  0.148149053E+01  0.119302136E+01
     4
 # iter = 43000  time[fs]=43.00000
   C -0.344585816E+01 -0.490108665E-01  0.124723510E+00
   C  0.335119403E+01 -0.880333477E-01  0.171761050E-02
   H -0.186750959E+02  0.217489163E+00 -0.173880425E+01
   H  0.184030250E+02  0.151234632E+01  0.121915086E+01
     4
 # iter = 43500  time[fs]=43.50000
   C -0.352585095E+01 -0.501503664E-01  0.127639184E+00
   C  0.342792137E+01 -0.910007575E-01  0.109419131E-02
   H -0.190637954E+02  0.221664084E+00 -0.177569844E+01
   H  0.187866992E+02  0.154325137E+01  0.124531860E+01
     4
 # iter = 44000  time[fs]=44.00000
   C -0.360609900E+01 -0.512894150E-01  0.130561770E+00
   C  0.350489927E+01 -0.939730555E-01  0.464649138E-03
   H -0.194529402E+02  0.225844934E+00 -0.181263885E+01
   H  0.191708750E+02  0.157420373E+01  0.127152311E+01
     4
 # iter = 44500  time[fs]=44.50000
   C -0.368659107E+01 -0.524280032E-01  0.133491003E+00
   C  0.358211665E+01 -0.969500790E-01 -0.170784367E-03
   H -0.198425126E+02  0.230031487E+00 -0.184962370E+01
   H  0.195555328E+02  0.160520156E+01  0.129776298E+01
     4
 # iter = 45000  time[fs]=45.00000
   C -0.376731662E+01 -0.535661245E-01  0.136426635E+00
   C  0.365956316E+01 -0.999316724E-01 -0.811889819E-03
   H -0.202324962E+02  0.234223525E+00 -0.188665132E+01
   H  0.199406541E+02  0.163624315E+01  0.132403690E+01
     4
 # iter = 45500  time[fs]=45.50000
   C -0.384826573E+01 -0.547037745E-01  0.139368429E+00
   C  0.373722905E+01 -0.102917687E+00 -0.145845930E-02
   H -0.206228754E+02  0.238420845E+00 -0.192372012E+01
   H  0.203262211E+02  0.166732686E+01  0.135034362E+01
     4
 # iter = 46000  time[fs]=46.00000
   C -0.392942909E+01 -0.558409506E-01  0.142316161E+00
   C  0.381510516E+01 -0.105907981E+00 -0.211029560E-02
   H -0.210136355E+02  0.242623255E+00 -0.196082858E+01
   H  0.207122175E+02  0.169845114E+01  0.137668195E+01
     4
 # iter = 46500  time[fs]=46.50000
   C -0.401079793E+01 -0.569776517E-01  0.145269619E+00
   C  0.389318287E+01 -0.108902418E+00 -0.276721156E-02
   H -0.214047625E+02  0.246830572E+00 -0.199797530E+01
   H  0.210986273E+02  0.172961452E+01  0.140305079E+01
     4
 # iter = 47000  time[fs]=47.00000
   C -0.409236399E+01 -0.581138782E-01  0.148228601E+00
   C  0.397145405E+01 -0.111900867E+00 -0.342902940E-02
   H -0.217962434E+02  0.251042623E+00 -0.203515892E+01
   H  0.214854359E+02  0.176081563E+01  0.142944905E+01
     4
 # iter = 47500  time[fs]=47.50000
   C -0.417411947E+01 -0.592496314E-01  0.151192916E+00
   C  0.404991104E+01 -0.114903205E+00 -0.409558015E-02
   H -0.221880655E+02  0.255259244E+00 -0.207237816E+01
   H  0.218726291E+02  0.179205316E+01  0.145587575E+01
     4
 # iter = 48000  time[fs]=48.00000
   C -0.425605701E+01 -0.603849138E-01  0.154162381E+00
   C  0.412854661E+01 -0.117909312E+00 -0.476670310E-02
   H -0.225802171E+02  0.259480278E+00 -0.210963181E+01
   H  0.222601935E+02  0.182332584E+01  0.148232991E+01
     4
 # iter = 48500  time[fs]=48.50000
   C -0.433816965E+01 -0.615197284E-01  0.157136823E+00
   C  0.420735392E+01 -0.120919074E+00 -0.544224527E-02
   H -0.229726869E+02  0.263705579E+00 -0.214691872E+01
   H  0.226481165E+02  0.185463251E+01  0.150881063E+01
     4
 # iter = 49000  time[fs]=49.00000
   C -0.442045082E+01 -0.626540791E-01  0.160116078E+00
   C  0.428632651E+01 -0.123932381E+00 -0.612206097E-02
   H -0.233654642E+02  0.267935004E+00 -0.218423779E+01
   H  0.230363860E+02  0.188597203E+01  0.153531705E+01
     4
 # iter = 49500  time[fs]=49.50000
   C -0.450289429E+01 -0.637879704E-01  0.163099988E+00
   C  0.436545826E+01 -0.126949129E+00 -0.680601135E-02
   H -0.237585388E+02  0.272168421E+00 -0.222158797E+01
   H  0.234249905E+02  0.191734333E+01  0.156184834E+01
     4
 # iter = 50000  time[fs]=50.00000
   C -0.458549416E+01 -0.649214070E-01  0.166088403E+00
   C  0.444474336E+01 -0.129969216E+00 -0.749396399E-02
   H -0.241519011E+02  0.276405700E+00 -0.225896828E+01
   H  0.238139192E+02  0.194874539E+01  0.158840371E+01
     4
 # iter = 50500  time[fs]=50.50000
   C -0.466824483E+01 -0.660543944E-01  0.169081182E+00
   C  0.452417632E+01 -0.132992547E+00 -0.818579253E-02
   H -0.245455418E+02  0.280646722E+00 -0.229637775E+01
   H  0.242031616E+02  0.198017724E+01  0.161498241E+01
     4
 # iter = 51000  time[fs]=51.00000
   C -0.475114099E+01 -0.671869381E-01  0.172078186E+00
   C  0.460375193E+01 -0.136019030E+00 -0.888137630E-02
   H -0.249394522E+02  0.284891369E+00 -0.233381550E+01
   H  0.245927077E+02  0.201163796E+01  0.164158372E+01
     4
 # iter = 51500  time[fs]=51.50000
   C -0.483417759E+01 -0.683190439E-01  0.175079286E+00
   C  0.468346522E+01 -0.139048574E+00 -0.958060003E-02
   H -0.253336237E+02  0.289139530E+00 -0.237128065E+01
   H  0.249825483E+02  0.204312664E+01  0.166820697E+01
     4
 # iter = 52000  time[fs]=52.00000
   C -0.491734984E+01 -0.694507180E-01  0.178084358E+00
   C  0.476331148E+01 -0.142081094E+00 -0.102833535E-01
   H -0.257280486E+02  0.293391101E+00 -0.240877239E+01
   H  0.253726741E+02  0.207464246E+01  0.169485150E+01
     4
 # iter = 52500  time[fs]=52.50000
   C -0.500065318E+01 -0.705819665E-01  0.181093283E+00
   C  0.484328624E+01 -0.145116510E+00 -0.109895313E-01
   H -0.261227190E+02  0.297645979E+00 -0.244628992E+01
   H  0.257630767E+02  0.210618460E+01  0.172151668E+01
     4
 # iter = 53000  time[fs]=53.00000
   C -0.508408326E+01 -0.717127959E-01  0.184105946E+00
   C  0.492338523E+01 -0.148154741E+00 -0.116990325E-01
   H -0.265176278E+02  0.301904067E+00 -0.248383248E+01
   H  0.261537478E+02  0.213775229E+01  0.174820192E+01
     4
 # iter = 53500  time[fs]=53.50000
   C -0.516763595E+01 -0.728432124E-01  0.187122239E+00
   C  0.500360439E+01 -0.151195713E+00 -0.124117605E-01
   H -0.269127679E+02  0.306165274E+00 -0.252139936E+01
   H  0.265446794E+02  0.216934479E+01  0.177490665E+01
     4
 # iter = 54000  time[fs]=54.00000
   C -0.525130729E+01 -0.739732227E-01  0.190142057E+00
   C  0.508393984E+01 -0.154239351E+00 -0.131276227E-01
   H -0.273081325E+02  0.310429509E+00 -0.255898987E+01
   H  0.269358641E+02  0.220096139E+01  0.180163031E+01
     4
 # iter = 54500  time[fs]=54.50000
   C -0.533509354E+01 -0.751028332E-01  0.193165299E+00
   C  0.516438788E+01 -0.157285587E+00 -0.138465304E-01
   H -0.277037154E+02  0.314696689E+00 -0.259660335E+01
   H  0.273272946E+02  0.223260141E+01  0.182837238E+01
     4
 # iter = 55000  time[fs]=55.00000
   C -0.541899110E+01 -0.762320505E-01  0.196191871E+00
   C  0.524494501E+01 -0.160334352E+00 -0.145683984E-01
   H -0.280995104E+02  0.318966732E+00 -0.263423915E+01
   H  0.277189640E+02  0.226426421E+01  0.185513236E+01
     4
 # iter = 55500  time[fs]=55.50000
   C -0.550299653E+01 -0.773608810E-01  0.199221680E+00
   C  0.532560783E+01 -0.163385582E+00 -0.152931449E-01
   H -0.284955115E+02  0.323239559E+00 -0.267189668E+01
   H  0.281108656E+02  0.229594915E+01  0.188190975E+01
     4
 # iter = 56000  time[fs]=56.00000
   C -0.558710657E+01 -0.784893313E-01  0.202254637E+00
   C  0.540637314E+01 -0.166439213E+00 -0.160206917E-01
   H -0.288917132E+02  0.327515095E+00 -0.270957533E+01
   H  0.285029932E+02  0.232765565E+01  0.190870411E+01
     4
 # iter = 56500  time[fs]=56.50000
   C -0.567131806E+01 -0.796174077E-01  0.205290657E+00
   C  0.548723786E+01 -0.169495186E+00 -0.167509632E-01
   H -0.292881100E+02  0.331793269E+00 -0.274727457E+01
   H  0.288953405E+02  0.235938312E+01  0.193551497E+01
     4
 # iter = 57000  time[fs]=57.00000
   C -0.575562802E+01 -0.807451166E-01  0.208329660E+00
   C  0.556819904E+01 -0.172553442E+00 -0.174838872E-01
   H -0.296846967E+02  0.336074010E+00 -0.278499383E+01
   H  0.292879017E+02  0.239113101E+01  0.196234191E+01
     4
 # iter = 57500  time[fs]=57.50000
   C -0.584003357E+01 -0.818724644E-01  0.211371565E+00
   C  0.564925387E+01 -0.175613926E+00 -0.182193938E-01
   H -0.300814683E+02  0.340357252E+00 -0.282273261E+01
   H  0.296806712E+02  0.242289879E+01  0.198918452E+01
     4
 # iter = 58000  time[fs]=58.00000
   C -0.592453195E+01 -0.829994574E-01  0.214416299E+00
   C  0.573039964E+01 -0.178676582E+00 -0.189574162E-01
   H -0.304784200E+02  0.344642932E+00 -0.286049041E+01
   H  0.300736435E+02  0.245468595E+01  0.201604240E+01
     4
 # iter = 58500  time[fs]=58.50000
   C -0.600912054E+01 -0.841261015E-01  0.217463788E+00
   C  0.581163376E+01 -0.181741359E+00 -0.196978899E-01
   H -0.308755472E+02  0.348930987E+00 -0.289826674E+01
   H  0.304668134E+02  0.248649201E+01  0.204291516E+01
     4
 # iter = 59000  time[fs]=59.00000
   C -0.609379679E+01 -0.852524031E-01  0.220513963E+00
   C  0.589295375E+01 -0.184808207E+00 -0.204407528E-01
   H -0.312728454E+02  0.353221357E+00 -0.293606114E+01
   H  0.308601759E+02  0.251831647E+01  0.206980244E+01
     4
 # iter = 59500  time[fs]=59.50000
   C -0.617855828E+01 -0.863783679E-01  0.223566755E+00
   C  0.597435723E+01 -0.187877076E+00 -0.211859451E-01
   H -0.316703103E+02  0.357513987E+00 -0.297387317E+01
   H  0.312537262E+02  0.255015890E+01  0.209670389E+01
     4
 # iter = 60000  time[fs]=60.00000
   C -0.626340268E+01 -0.875040019E-01  0.226622101E+00
   C  0.605584190E+01 -0.190947919E+00 -0.219334092E-01
   H -0.320679379E+02  0.361808820E+00 -0.301170240E+01
   H  0.316474597E+02  0.258201885E+01  0.212361915E+01
     4
 # iter = 60500  time[fs]=60.50000
   C -0.634832775E+01 -0.886293110E-01  0.229679937E+00
   C  0.613740559E+01 -0.194020692E+00 -0.226830895E-01
   H -0.324657240E+02  0.366105804E+00 -0.304954841E+01
   H  0.320413717E+02  0.261389589E+01  0.215054791E+01
     4
 # iter = 61000  time[fs]=61.00000
   C -0.643333134E+01 -0.897543008E-01  0.232740204E+00
   C  0.621904616E+01 -0.197095349E+00 -0.234349325E-01
   H -0.328636650E+02  0.370404886E+00 -0.308741081E+01
   H  0.324354581E+02  0.264578962E+01  0.217748984E+01
     4
 # iter = 61500  time[fs]=61.50000
   C -0.651841138E+01 -0.908789768E-01  0.235802843E+00
   C  0.630076160E+01 -0.200171849E+00 -0.241888864E-01
   H -0.332617570E+02  0.374706019E+00 -0.312528921E+01
   H  0.328297145E+02  0.267769965E+01  0.220444463E+01
     4
 # iter = 62000  time[fs]=62.00000
   C -0.660356589E+01 -0.920033447E-01  0.238867798E+00
   C  0.638254995E+01 -0.203250150E+00 -0.249449014E-01
   H -0.336599966E+02  0.379009153E+00 -0.316318323E+01
   H  0.332241371E+02  0.270962559E+01  0.223141199E+01
     4
 # iter = 62500  time[fs]=62.50000
   C -0.668879293E+01 -0.931274097E-01  0.241935015E+00
   C  0.646440933E+01 -0.206330213E+00 -0.257029292E-01
   H -0.340583802E+02  0.383314243E+00 -0.320109252E+01
   H  0.336187220E+02  0.274156708E+01  0.225839163E+01
     4
 # iter = 63000  time[fs]=63.00000
   C -0.677409068E+01 -0.942511771E-01  0.245004441E+00
   C  0.654633793E+01 -0.209411998E+00 -0.264629234E-01
   H -0.344569046E+02  0.387621245E+00 -0.323901673E+01
   H  0.340134652E+02  0.277352377E+01  0.228538327E+01
     4
 # iter = 63500  time[fs]=63.50000
   C -0.685945735E+01 -0.953746522E-01  0.248076027E+00
   C  0.662833402E+01 -0.212495469E+00 -0.272248390E-01
   H -0.348555665E+02  0.391930114E+00 -0.327695553E+01
   H  0.344083634E+02  0.280549530E+01  0.231238665E+01
     4
 # iter = 64000  time[fs]=64.00000
   C -0.694489124E+01 -0.964978401E-01  0.251149722E+00
   C  0.671039591E+01 -0.215580589E+00 -0.279886324E-01
   H -0.352543629E+02  0.396240810E+00 -0.331490859E+01
   H  0.348034129E+02  0.283748135E+01  0.233940151E+01
     4
 # iter = 64500  time[fs]=64.50000
   C -0.703039069E+01 -0.976207456E-01  0.254225480E+00
   C  0.679252199E+01 -0.218667323E+00 -0.287542617E-01
   H -0.356532907E+02  0.400553293E+00 -0.335287559E+01
   H  0.351986103E+02  0.286948160E+01  0.236642759E+01
     4
 # iter = 65000  time[fs]=65.00000
   C -0.711595411E+01 -0.987433737E-01  0.257303255E+00
   C  0.687471069E+01 -0.221755638E+00 -0.295216861E-01
   H -0.360523470E+02  0.404867522E+00 -0.339085624E+01
   H  0.355939525E+02  0.290149573E+01  0.239346465E+01
     4
 # iter = 65500  time[fs]=65.50000
   C -0.720157997E+01 -0.998657291E-01  0.260383002E+00
   C  0.695696052E+01 -0.224845501E+00 -0.302908665E-01
   H -0.364515290E+02  0.409183461E+00 -0.342885024E+01
   H  0.359894361E+02  0.293352345E+01  0.242051246E+01
     4
 # iter = 66000  time[fs]=66.00000
   C -0.728726678E+01 -0.100987817E+00  0.263464680E+00
   C  0.703927001E+01 -0.227936878E+00 -0.310617645E-01
   H -0.368508341E+02  0.413501073E+00 -0.346685731E+01
   H  0.363850583E+02  0.296556448E+01  0.244757079E+01
     4
 # iter = 66500  time[fs]=66.50000
   C -0.737301313E+01 -0.102109641E+00  0.266548246E+00
   C  0.712163777E+01 -0.231029741E+00 -0.318343434E-01
   H -0.372502594E+02  0.417820323E+00 -0.350487717E+01
   H  0.367808159E+02  0.299761851E+01  0.247463942E+01
     4
 # iter = 67000  time[fs]=67.00000
   C -0.745881761E+01 -0.103231206E+00  0.269633660E+00
   C  0.720406243E+01 -0.234124057E+00 -0.326085675E-01
   H -0.376498026E+02  0.422141177E+00 -0.354290955E+01
   H  0.371767061E+02  0.302968529E+01  0.250171814E+01
     4
 # iter = 67500  time[fs]=67.50000
   C -0.754467890E+01 -0.104352516E+00  0.272720883E+00
   C  0.728654270E+01 -0.237219800E+00 -0.333844020E-01
   H -0.380494612E+02  0.426463600E+00 -0.358095419E+01
   H  0.375727261E+02  0.306176455E+01  0.252880674E+01
     4
 # iter = 68000  time[fs]=68.00000
   C -0.763059572E+01 -0.105473577E+00  0.275809878E+00
   C  0.736907730E+01 -0.240316939E+00 -0.341618135E-01
   H -0.384492326E+02  0.430787562E+00 -0.361901085E+01
   H  0.379688733E+02  0.309385603E+01  0.255590501E+01
     4
 # iter = 68500  time[fs]=68.50000
   C -0.771656680E+01 -0.106594391E+00  0.278900608E+00
   C  0.745166502E+01 -0.243415447E+00 -0.349407695E-01
   H -0.388491147E+02  0.435113030E+00 -0.365707928E+01
   H  0.383651450E+02  0.312595949E+01  0.258301277E+01
     4
 # iter = 69000  time[fs]=69.00000
   C -0.780259094E+01 -0.107714963E+00  0.281993037E+00
   C  0.753430466E+01 -0.246515298E+00 -0.357212384E-01
   H -0.392491052E+02  0.439439975E+00 -0.369515924E+01
   H  0.387615387E+02  0.315807468E+01  0.261012983E+01
     4
 # iter = 69500  time[fs]=69.50000
   C -0.788866697E+01 -0.108835298E+00  0.285087132E+00
   C  0.761699509E+01 -0.249616467E+00 -0.365031895E-01
   H -0.396492019E+02  0.443768367E+00 -0.373325051E+01
   H  0.391580518E+02  0.319020137E+01  0.263725599E+01
     4
 # iter = 70000  time[fs]=70.00000
   C -0.797479377E+01 -0.109955399E+00  0.288182858E+00
   C  0.769973519E+01 -0.252718926E+00 -0.372865932E-01
   H -0.400494027E+02  0.448098177E+00 -0.377135287E+01
   H  0.395546822E+02  0.322233933E+01  0.266439109E+01
     4
 # iter = 70500  time[fs]=70.50000
   C -0.806097024E+01 -0.111075269E+00  0.291280184E+00
   C  0.778252390E+01 -0.255822653E+00 -0.380714207E-01
   H -0.404497054E+02  0.452429379E+00 -0.380946609E+01
   H  0.399514273E+02  0.325448834E+01  0.269153495E+01
     4
 # iter = 71000  time[fs]=71.00000
   C -0.814719531E+01 -0.112194913E+00  0.294379078E+00
   C  0.786536016E+01 -0.258927623E+00 -0.388576440E-01
   H -0.408501082E+02  0.456761945E+00 -0.384758997E+01
   H  0.403482850E+02  0.328664820E+01  0.271868740E+01
     4
 # iter = 71500  time[fs]=71.50000
   C -0.823346797E+01 -0.113314335E+00  0.297479509E+00
   C  0.794824299E+01 -0.262033813E+00 -0.396452359E-01
   H -0.412506091E+02  0.461095848E+00 -0.388572430E+01
   H  0.407452530E+02  0.331881868E+01  0.274584828E+01
     4
 # iter = 72000  time[fs]=72.00000
   C -0.831978721E+01 -0.114433537E+00  0.300581448E+00
   C  0.803117139E+01 -0.265141201E+00 -0.404341699E-01
   H -0.416512062E+02  0.465431064E+00 -0.392386889E+01
   H  0.411423293E+02  0.335099960E+01  0.277301743E+01
     4
 # iter = 72500  time[fs]=72.50000
   C -0.840615206E+01 -0.115552524E+00  0.303684866E+00
   C  0.811414442E+01 -0.268249764E+00 -0.412244205E-01
   H -0.420518977E+02  0.469767568E+00 -0.396202355E+01
   H  0.415395119E+02  0.338319075E+01  0.280019470E+01
     4
 # iter = 73000  time[fs]=73.00000
   C -0.849256160E+01 -0.116671299E+00  0.306789734E+00
   C  0.819716117E+01 -0.271359482E+00 -0.420159627E-01
   H -0.424526817E+02  0.474105335E+00 -0.400018808E+01
   H  0.419367986E+02  0.341539194E+01  0.282737993E+01
     4
 # iter = 73500  time[fs]=73.50000
   C -0.857901491E+01 -0.117789865E+00  0.309896026E+00
   C  0.828022075E+01 -0.274470332E+00 -0.428087722E-01
   H -0.428535566E+02  0.478444343E+00 -0.403836231E+01
   H  0.423341875E+02  0.344760299E+01  0.285457298E+01
     4
 # iter = 74000  time[fs]=74.00000
   C -0.866551112E+01 -0.118908226E+00  0.313003716E+00
   C  0.836332229E+01 -0.277582296E+00 -0.436028255E-01
   H -0.432545207E+02  0.482784569E+00 -0.407654605E+01
   H  0.427316768E+02  0.347982371E+01  0.288177371E+01
     4
 # iter = 74500  time[fs]=74.50000
   C -0.875204936E+01 -0.120026385E+00  0.316112776E+00
   C  0.844646495E+01 -0.280695354E+00 -0.443980996E-01
   H -0.436555724E+02  0.487125991E+00 -0.411473914E+01
   H  0.431292646E+02  0.351205393E+01  0.290898199E+01
     4
 # iter = 75000  time[fs]=75.00000
   C -0.883862881E+01 -0.121144345E+00  0.319223183E+00
   C  0.852964793E+01 -0.283809486E+00 -0.451945723E-01
   H -0.440567100E+02  0.491468586E+00 -0.415294141E+01
   H  0.435269491E+02  0.354429349E+01  0.293619766E+01
     4
 # iter = 75500  time[fs]=75.50000
   C -0.892524865E+01 -0.122262109E+00  0.322334912E+00
   C  0.861287042E+01 -0.286924673E+00 -0.459922218E-01
   H -0.444579320E+02  0.495812336E+00 -0.419115270E+01
   H  0.439247285E+02  0.357654221E+01  0.296342061E+01
     4
 # iter = 76000  time[fs]=76.00000
   C -0.901190812E+01 -0.123379680E+00  0.325447939E+00
   C  0.869613167E+01 -0.290040898E+00 -0.467910269E-01
   H -0.448592369E+02  0.500157218E+00 -0.422937284E+01
   H  0.443226013E+02  0.360879993E+01  0.299065071E+01
     4
 # iter = 76500  time[fs]=76.50000
   C -0.909860643E+01 -0.124497062E+00  0.328562241E+00
   C  0.877943092E+01 -0.293158142E+00 -0.475909672E-01
   H -0.452606232E+02  0.504503213E+00 -0.426760169E+01
   H  0.447205656E+02  0.364106649E+01  0.301788784E+01
     4
 # iter = 77000  time[fs]=77.00000
   C -0.918534287E+01 -0.125614256E+00  0.331677796E+00
   C  0.886276745E+01 -0.296276389E+00 -0.483920225E-01
   H -0.456620896E+02  0.508850301E+00 -0.430583909E+01
   H  0.451186200E+02  0.367334174E+01  0.304513186E+01
     4
 # iter = 77500  time[fs]=77.50000
   C -0.927211670E+01 -0.126731266E+00  0.334794581E+00
   C  0.894614056E+01 -0.299395621E+00 -0.491941734E-01
   H -0.460636346E+02  0.513198465E+00 -0.434408489E+01
   H  0.455167628E+02  0.370562554E+01  0.307238267E+01
     4
 # iter = 78000  time[fs]=78.00000
   C -0.935892722E+01 -0.127848096E+00  0.337912575E+00
   C  0.902954956E+01 -0.302515821E+00 -0.499974008E-01
   H -0.464652568E+02  0.517547686E+00 -0.438233895E+01
   H  0.459149924E+02  0.373791773E+01  0.309964015E+01
     4
 # iter = 78500  time[fs]=78.50000
   C -0.944577376E+01 -0.128964746E+00  0.341031758E+00
   C  0.911299379E+01 -0.305636975E+00 -0.508016861E-01
   H -0.468669550E+02  0.521897945E+00 -0.442060114E+01
   H  0.463133076E+02  0.377021817E+01  0.312690418E+01
     4
 # iter = 79000  time[fs]=79.00000
   C -0.953265565E+01 -0.130081221E+00  0.344152109E+00
   C  0.919647259E+01 -0.308759066E+00 -0.516070115E-01
   H -0.472687278E+02  0.526249225E+00 -0.445887131E+01
   H  0.467117066E+02  0.380252673E+01  0.315417466E+01
     4
 # iter = 79500  time[fs]=79.50000
   C -0.961957225E+01 -0.131197523E+00  0.347273608E+00
   C  0.927998534E+01 -0.311882078E+00 -0.524133591E-01
   H -0.476705740E+02  0.530601510E+00 -0.449714934E+01
   H  0.471101883E+02  0.383484326E+01  0.318145149E+01
     4
 # iter = 80000  time[fs]=80.00000
   C -0.970652294E+01 -0.132313654E+00  0.350396236E+00
   C  0.936353143E+01 -0.315005998E+00 -0.532207119E-01
   H -0.480724924E+02  0.534954782E+00 -0.453543509E+01
   H  0.475087511E+02  0.386716764E+01  0.320873455E+01
