     4
 # iter = 25000  time[fs]=25.00000
   C -0.989073055E+00 -0.406882451E-01 -0.238620053E-01
   C  0.100174272E+01  0.281913747E-03 -0.191875673E-01
   H -0.522026442E+01 -0.442153914E+00 -0.588054375E+00
   H  0.526098462E+01  0.417028025E+00  0.581985351E+00
     4
 # iter = 25500  time[fs]=25.50000
   C -0.103529287E+01 -0.403597484E-01 -0.213303518E-01
   C  0.104528650E+01 -0.563914515E-03 -0.203961069E-01
   H -0.555421745E+01 -0.468845762E+00 -0.622475794E+00
   H  0.557878953E+01  0.444871563E+00  0.621795354E+00
     4
 # iter = 26000  time[fs]=26.00000
   C -0.108451397E+01 -0.400749412E-01 -0.187762082E-01
   C  0.109181479E+01 -0.136950338E-02 -0.216336790E-01
   H -0.589357824E+01 -0.496003607E+00 -0.657534990E+00
   H  0.590220347E+01  0.473222502E+00  0.662321645E+00
     4
 # iter = 26500  time[fs]=26.50000
   C -0.113648480E+01 -0.398268648E-01 -0.161974311E-01
   C  0.114107621E+01 -0.214172962E-02 -0.229021656E-01
   H -0.623773309E+01 -0.523574028E+00 -0.693158202E+00
   H  0.623061067E+01  0.502026432E+00  0.703487321E+00
     4
 # iter = 27000  time[fs]=27.00000
   C -0.119097102E+01 -0.396095252E-01 -0.135925550E-01
   C  0.119283685E+01 -0.288646966E-02 -0.242027364E-01
   H -0.658616182E+01 -0.551511929E+00 -0.729283315E+00
   H  0.656348575E+01  0.531236851E+00  0.745226722E+00
     4
 # iter = 27500  time[fs]=27.50000
   C -0.124775661E+01 -0.394178119E-01 -0.109606995E-01
   C  0.124688129E+01 -0.360869735E-02 -0.255359633E-01
   H -0.693842047E+01 -0.579778958E+00 -0.765857601E+00
   H  0.690037777E+01  0.560813765E+00  0.787483417E+00
     4
 # iter = 28000  time[fs]=28.00000
   C -0.130664401E+01 -0.392473987E-01 -0.830146730E-02
   C  0.130301261E+01 -0.431259320E-02 -0.269019347E-01
   H -0.729412776E+01 -0.608342263E+00 -0.802835976E+00
   H  0.724089743E+01  0.590722573E+00  0.830208613E+00
     4
 # iter = 28500  time[fs]=28.50000
   C -0.136745350E+01 -0.390946416E-01 -0.561484598E-02
   C  0.136105181E+01 -0.500165322E-02 -0.283003621E-01
   H -0.765295423E+01 -0.637173520E+00 -0.840179620E+00
   H  0.758470678E+01  0.620933177E+00  0.873359882E+00
     4
 # iter = 29000  time[fs]=29.00000
   C -0.143002221E+01 -0.389564814E-01 -0.290112034E-02
   C  0.142083674E+01 -0.567879048E-02 -0.297306722E-01
   H -0.801461358E+01 -0.666248159E+00 -0.877854901E+00
   H  0.793151096E+01  0.651419254E+00  0.916900127E+00
     4
 # iter = 29500  time[fs]=29.50000
   C -0.149420297E+01 -0.388303553E-01 -0.160797761E-03
   C  0.148222092E+01 -0.634642629E-02 -0.311920836E-01
   H -0.837885572E+01 -0.695544748E+00 -0.915832510E+00
   H  0.828105141E+01  0.682157670E+00  0.960796754E+00
     4
 # iter = 30000  time[fs]=30.00000
   C -0.155986294E+01 -0.387141184E-01  0.260545333E-02
   C  0.154507222E+01 -0.700656976E-02 -0.326836703E-01
   H -0.874546108E+01 -0.725044487E+00 -0.954086762E+00
   H  0.863310035E+01  0.713128000E+00  0.100502098E+01
     4
 # iter = 30500  time[fs]=30.50000
   C -0.162688236E+01 -0.386059769E-01  0.539685296E-02
   C  0.160927150E+01 -0.766088608E-02 -0.342044106E-01
   H -0.911423600E+01 -0.754730809E+00 -0.992595039E+00
   H  0.898745625E+01  0.744312132E+00  0.104954730E+01
     4
 # iter = 31000  time[fs]=31.00000
   C -0.169515321E+01 -0.385044300E-01  0.821254865E-02
   C  0.167471140E+01 -0.831075430E-02 -0.357532262E-01
   H -0.948500891E+01 -0.784589045E+00 -0.103133733E+01
   H  0.934394008E+01  0.775693936E+00  0.109435298E+01
     4
 # iter = 31500  time[fs]=31.50000
   C -0.176457809E+01 -0.384082220E-01  0.110516457E-01
   C  0.174129509E+01 -0.895731580E-02 -0.373290120E-01
   H -0.985762715E+01 -0.814606151E+00 -0.107029583E+01
   H  0.970239214E+01  0.807258996E+00  0.113941770E+01
     4
 # iter = 32000  time[fs]=32.00000
   C -0.183506905E+01 -0.383163014E-01  0.139132301E-01
   C  0.180893516E+01 -0.960151474E-02 -0.389306579E-01
   H -0.102319544E+02 -0.844770479E+00 -0.110945469E+01
   H  0.100626695E+02  0.838994376E+00  0.118472325E+01
     4
 # iter = 32500  time[fs]=32.50000
   C -0.190654662E+01 -0.382277871E-01  0.167963859E-01
   C  0.187755268E+01 -0.102441317E-01 -0.405570655E-01
   H -0.106078686E+02 -0.875071590E+00 -0.114879967E+01
   H  0.104246437E+02  0.870888431E+00  0.123025320E+01
     4
 # iter = 33000  time[fs]=33.00000
   C -0.197893891E+01 -0.381419403E-01  0.197002081E-01
   C  0.194707623E+01 -0.108858113E-01 -0.422071601E-01
   H -0.109852597E+02 -0.905500097E+00 -0.118831799E+01
   H  0.107881991E+02  0.902930644E+00  0.127599274E+01
     4
 # iter = 33500  time[fs]=33.50000
   C -0.205218076E+01 -0.380581412E-01  0.226238114E-01
   C  0.201744112E+01 -0.115270857E-01 -0.438798985E-01
   H -0.113640286E+02 -0.936047526E+00 -0.122799811E+01
   H  0.111532310E+02  0.935111488E+00  0.132192843E+01
     4
 # iter = 34000  time[fs]=34.00000
   C -0.212621306E+01 -0.379758692E-01  0.255663369E-01
   C  0.208858866E+01 -0.121683931E-01 -0.455742746E-01
   H -0.117440856E+02 -0.966706205E+00 -0.126782959E+01
   H  0.115196445E+02  0.967422304E+00  0.136804807E+01
     4
 # iter = 34500  time[fs]=34.50000
   C -0.220098207E+01 -0.378946872E-01  0.285269562E-01
   C  0.216046550E+01 -0.128100937E-01 -0.472893230E-01
   H -0.121253491E+02 -0.997469171E+00 -0.130780295E+01
   H  0.118873535E+02  0.999855206E+00  0.141434053E+01
     4
 # iter = 35000  time[fs]=35.00000
   C -0.227643887E+01 -0.378142279E-01  0.315048741E-01
   C  0.223302310E+01 -0.134524831E-01 -0.490241209E-01
   H -0.125077451E+02 -0.102833008E+01 -0.134790956E+01
   H  0.122562792E+02  0.103240299E+01  0.146079565E+01
     4
 # iter = 35500  time[fs]=35.50000
   C -0.235253883E+01 -0.377341830E-01  0.344993299E-01
   C  0.230621719E+01 -0.140958023E-01 -0.507777883E-01
   H -0.128912057E+02 -0.105928314E+01 -0.138814154E+01
   H  0.126263499E+02  0.106505905E+01  0.150740412E+01
     4
 # iter = 36000  time[fs]=36.00000
   C -0.242924121E+01 -0.376542933E-01  0.375095980E-01
   C  0.238000733E+01 -0.147402475E-01 -0.525494885E-01
   H -0.132756692E+02 -0.109032306E+01 -0.142849169E+01
   H  0.129974996E+02  0.109781735E+01  0.155415741E+01
     4
 # iter = 36500  time[fs]=36.50000
   C -0.250650868E+01 -0.375743416E-01  0.405349880E-01
   C  0.245435651E+01 -0.153859770E-01 -0.543384268E-01
   H -0.136610786E+02 -0.112144496E+01 -0.146895338E+01
   H  0.133696680E+02  0.113067230E+01  0.160104764E+01
     4
 # iter = 37000  time[fs]=37.00000
   C -0.258430706E+01 -0.374941459E-01  0.435748435E-01
   C  0.252923082E+01 -0.160331175E-01 -0.561438499E-01
   H -0.140473818E+02 -0.115264439E+01 -0.150952055E+01
   H  0.137427994E+02  0.116361877E+01  0.164806756E+01
     4
 # iter = 37500  time[fs]=37.50000
   C -0.266260494E+01 -0.374135539E-01  0.466285416E-01
   C  0.260459913E+01 -0.166817694E-01 -0.579650437E-01
   H -0.144345306E+02 -0.118391721E+01 -0.155018758E+01
   H  0.141168424E+02  0.119665202E+01  0.169521049E+01
     4
 # iter = 38000  time[fs]=38.00000
   C -0.274137343E+01 -0.373324388E-01  0.496954917E-01
   C  0.268043281E+01 -0.173320109E-01 -0.598013320E-01
   H -0.148224808E+02 -0.121525962E+01 -0.159094930E+01
   H  0.144917498E+02  0.122976766E+01  0.174247022E+01
     4
 # iter = 38500  time[fs]=38.50000
   C -0.282058592E+01 -0.372506948E-01  0.527751341E-01
   C  0.275670547E+01 -0.179839020E-01 -0.616520752E-01
   H -0.152111911E+02 -0.124666810E+01 -0.163180092E+01
   H  0.148674777E+02  0.126296162E+01  0.178984100E+01
     4
 # iter = 39000  time[fs]=39.00000
   C -0.290021785E+01 -0.371682347E-01  0.558669382E-01
   C  0.283339277E+01 -0.186374867E-01 -0.635166674E-01
   H -0.156006237E+02 -0.127813938E+01 -0.167273800E+01
   H  0.152439853E+02  0.129623011E+01  0.183731749E+01
     4
 # iter = 39500  time[fs]=39.50000
   C -0.298024653E+01 -0.370849868E-01  0.589704019E-01
   C  0.291047222E+01 -0.192927966E-01 -0.653945357E-01
   H -0.159907432E+02 -0.130967044E+01 -0.171375642E+01
   H  0.156212348E+02  0.132956963E+01  0.188489472E+01
     4
 # iter = 40000  time[fs]=40.00000
   C -0.306065094E+01 -0.370008922E-01  0.620850494E-01
   C  0.298792302E+01 -0.199498519E-01 -0.672851377E-01
   H -0.163815168E+02 -0.134125845E+01 -0.175485235E+01
   H  0.159991912E+02  0.136297688E+01  0.193256806E+01
     4
 # iter = 40500  time[fs]=40.50000
   C -0.314141160E+01 -0.369159036E-01  0.652104301E-01
   C  0.306572585E+01 -0.206086643E-01 -0.691879601E-01
   H -0.167729138E+02 -0.137290079E+01 -0.179602222E+01
   H  0.163778216E+02  0.139644881E+01  0.198033317E+01
     4
 # iter = 41000  time[fs]=41.00000
   C -0.322251043E+01 -0.368299831E-01  0.683461170E-01
   C  0.314386282E+01 -0.212692375E-01 -0.711025168E-01
   H -0.171649059E+02 -0.140459500E+01 -0.183726268E+01
   H  0.167570955E+02  0.142998257E+01  0.202818603E+01
     4
 # iter = 41500  time[fs]=41.50000
   C -0.330393062E+01 -0.367431011E-01  0.714917056E-01
   C  0.322231726E+01 -0.219315691E-01 -0.730283475E-01
   H -0.175574663E+02 -0.143633880E+01 -0.187857063E+01
   H  0.171369843E+02  0.146357547E+01  0.207612283E+01
     4
 # iter = 42000  time[fs]=42.00000
   C -0.338565650E+01 -0.366552347E-01  0.746468126E-01
   C  0.330107369E+01 -0.225956516E-01 -0.749650162E-01
   H -0.179505702E+02 -0.146813003E+01 -0.191994315E+01
   H  0.175174611E+02  0.149722501E+01  0.212414005E+01
     4
 # iter = 42500  time[fs]=42.50000
   C -0.346767349E+01 -0.365663673E-01  0.778110743E-01
   C  0.338011764E+01 -0.232614730E-01 -0.769121093E-01
   H -0.183441942E+02 -0.149996668E+01 -0.196137750E+01
   H  0.178985010E+02  0.153092882E+01  0.217223433E+01
     4
 # iter = 43000  time[fs]=43.00000
   C -0.354996795E+01 -0.364764870E-01  0.809841459E-01
   C  0.345943563E+01 -0.239290179E-01 -0.788692349E-01
   H -0.187383165E+02 -0.153184688E+01 -0.200287113E+01
   H  0.182800804E+02  0.156468471E+01  0.222040255E+01
     4
 # iter = 43500  time[fs]=43.50000
   C -0.363252717E+01 -0.363855866E-01  0.841657001E-01
   C  0.353901507E+01 -0.245982679E-01 -0.808360210E-01
   H -0.191329165E+02 -0.156376884E+01 -0.204442161E+01
   H  0.186621772E+02  0.159849057E+01  0.226864177E+01
     4
 # iter = 44000  time[fs]=44.00000
   C -0.371533921E+01 -0.362936621E-01  0.873554261E-01
   C  0.361884414E+01 -0.252692022E-01 -0.828121144E-01
   H -0.195279748E+02 -0.159573090E+01 -0.208602669E+01
   H  0.190447705E+02  0.163234447E+01  0.231694921E+01
     4
 # iter = 44500  time[fs]=44.50000
   C -0.379839292E+01 -0.362007132E-01  0.905530287E-01
   C  0.369891182E+01 -0.259417983E-01 -0.847971799E-01
   H -0.199234733E+02 -0.162773149E+01 -0.212768422E+01
   H  0.194278408E+02  0.166624453E+01  0.236532225E+01
     4
 # iter = 45000  time[fs]=45.00000
   C -0.388167782E+01 -0.361067417E-01  0.937582273E-01
   C  0.377920773E+01 -0.266160321E-01 -0.867908987E-01
   H -0.203193948E+02 -0.165976913E+01 -0.216939220E+01
   H  0.198113696E+02  0.170018903E+01  0.241375842E+01
     4
 # iter = 45500  time[fs]=45.50000
   C -0.396518408E+01 -0.360117519E-01  0.969707551E-01
   C  0.385972215E+01 -0.272918784E-01 -0.887929677E-01
   H -0.207157231E+02 -0.169184241E+01 -0.221114872E+01
   H  0.201953395E+02  0.173417630E+01  0.246225538E+01
     4
 # iter = 46000  time[fs]=46.00000
   C -0.404890245E+01 -0.359157502E-01  0.100190358E+00
   C  0.394044592E+01 -0.279693110E-01 -0.908030987E-01
   H -0.211124430E+02 -0.172395002E+01 -0.225295198E+01
   H  0.205797340E+02  0.176820480E+01  0.251081093E+01
     4
 # iter = 46500  time[fs]=46.50000
   C -0.413282422E+01 -0.358187441E-01  0.103416795E+00
   C  0.402137044E+01 -0.286483033E-01 -0.928210172E-01
   H -0.215095400E+02 -0.175609071E+01 -0.229480028E+01
   H  0.209645375E+02  0.180227303E+01  0.255942296E+01
     4
 # iter = 47000  time[fs]=47.00000
   C -0.421694121E+01 -0.357207429E-01  0.106649836E+00
   C  0.410248761E+01 -0.293288279E-01 -0.948464619E-01
   H -0.219070004E+02 -0.178826328E+01 -0.233669202E+01
   H  0.213497352E+02  0.183637960E+01  0.260808950E+01
     4
 # iter = 47500  time[fs]=47.50000
   C -0.430124567E+01 -0.356217568E-01  0.109889260E+00
   C  0.418378977E+01 -0.300108575E-01 -0.968791836E-01
   H -0.223048114E+02 -0.182046663E+01 -0.237862566E+01
   H  0.217353131E+02  0.187052318E+01  0.265680866E+01
     4
 # iter = 48000  time[fs]=48.00000
   C -0.438573031E+01 -0.355217968E-01  0.113134860E+00
   C  0.426526972E+01 -0.306943645E-01 -0.989189447E-01
   H -0.227029605E+02 -0.185269969E+01 -0.242059977E+01
   H  0.221212581E+02  0.190470251E+01  0.270557866E+01
     4
 # iter = 48500  time[fs]=48.50000
   C -0.447038824E+01 -0.354208749E-01  0.116386435E+00
   C  0.434692063E+01 -0.313793214E-01 -0.100965519E+00
   H -0.231014362E+02 -0.188496144E+01 -0.246261296E+01
   H  0.225075574E+02  0.193891640E+01  0.275439779E+01
     4
 # iter = 49000  time[fs]=49.00000
   C -0.455521293E+01 -0.353190036E-01  0.119643795E+00
   C  0.442873605E+01 -0.320657006E-01 -0.103018689E+00
   H -0.235002273E+02 -0.191725093E+01 -0.250466393E+01
   H  0.228941992E+02  0.197316369E+01  0.280326444E+01
     4
 # iter = 49500  time[fs]=49.50000
   C -0.464019822E+01 -0.352161957E-01  0.122906757E+00
   C  0.451070989E+01 -0.327534748E-01 -0.105078250E+00
   H -0.238993235E+02 -0.194956723E+01 -0.254675144E+01
   H  0.232811721E+02  0.200744331E+01  0.285217708E+01
     4
 # iter = 50000  time[fs]=50.00000
   C -0.472533825E+01 -0.351124647E-01  0.126175149E+00
   C  0.459283637E+01 -0.334426171E-01 -0.107144003E+00
   H -0.242987145E+02 -0.198190949E+01 -0.258887431E+01
   H  0.236684652E+02  0.204175421E+01  0.290113423E+01
     4
 # iter = 50500  time[fs]=50.50000
   C -0.481062748E+01 -0.350078242E-01  0.129448804E+00
   C  0.467511001E+01 -0.341331007E-01 -0.109215759E+00
   H -0.246983910E+02 -0.201427688E+01 -0.263103141E+01
   H  0.240560683E+02  0.207609543E+01  0.295013449E+01
     4
 # iter = 51000  time[fs]=51.00000
   C -0.489606064E+01 -0.349022879E-01  0.132727563E+00
   C  0.475752560E+01 -0.348248992E-01 -0.111293338E+00
   H -0.250983438E+02 -0.204666860E+01 -0.267322166E+01
   H  0.244439714E+02  0.211046601E+01  0.299917654E+01
     4
 # iter = 51500  time[fs]=51.50000
   C -0.498163275E+01 -0.347958698E-01  0.136011273E+00
   C  0.484007821E+01 -0.355179867E-01 -0.113376568E+00
   H -0.254985643E+02 -0.207908390E+01 -0.271544404E+01
   H  0.248321653E+02  0.214486505E+01  0.304825911E+01
     4
 # iter = 52000  time[fs]=52.00000
   C -0.506733905E+01 -0.346885840E-01  0.139299789E+00
   C  0.492276315E+01 -0.362123377E-01 -0.115465281E+00
   H -0.258990441E+02 -0.211152207E+01 -0.275769757E+01
   H  0.252206409E+02  0.217929171E+01  0.309738097E+01
     4
 # iter = 52500  time[fs]=52.50000
   C -0.515317503E+01 -0.345804444E-01  0.142592971E+00
   C  0.500557595E+01 -0.369079269E-01 -0.117559321E+00
   H -0.262997755E+02 -0.214398241E+01 -0.279998133E+01
   H  0.256093899E+02  0.221374516E+01  0.314654096E+01
     4
 # iter = 53000  time[fs]=53.00000
   C -0.523913638E+01 -0.344714652E-01  0.145890686E+00
   C  0.508851237E+01 -0.376047298E-01 -0.119658534E+00
   H -0.267007509E+02 -0.217646427E+01 -0.284229440E+01
   H  0.259984038E+02  0.224822462E+01  0.319573797E+01
     4
 # iter = 53500  time[fs]=53.50000
   C -0.532521901E+01 -0.343616602E-01  0.149192804E+00
   C  0.517156835E+01 -0.383027223E-01 -0.121762775E+00
   H -0.271019630E+02 -0.220896702E+01 -0.288463595E+01
   H  0.263876751E+02  0.228272933E+01  0.324497094E+01
     4
 # iter = 54000  time[fs]=54.00000
   C -0.541141901E+01 -0.342510434E-01  0.152499203E+00
   C  0.525474005E+01 -0.390018807E-01 -0.123871904E+00
   H -0.275034050E+02 -0.224149006E+01 -0.292700515E+01
   H  0.267771961E+02  0.231725859E+01  0.329423884E+01
     4
 # iter = 54500  time[fs]=54.50000
   C -0.549773266E+01 -0.341396285E-01  0.155809765E+00
   C  0.533802379E+01 -0.397021817E-01 -0.125985786E+00
   H -0.279050702E+02 -0.227403282E+01 -0.296940122E+01
   H  0.271669598E+02  0.235181169E+01  0.334354071E+01
     4
 # iter = 55000  time[fs]=55.00000
   C -0.558415641E+01 -0.340274291E-01  0.159124376E+00
   C  0.542141605E+01 -0.404036029E-01 -0.128104292E+00
   H -0.283069523E+02 -0.230659474E+01 -0.301182341E+01
   H  0.275569593E+02  0.238638798E+01  0.339287559E+01
     4
 # iter = 55500  time[fs]=55.50000
   C -0.567068687E+01 -0.339144587E-01  0.162442926E+00
   C  0.550491348E+01 -0.411061219E-01 -0.130227298E+00
   H -0.287090454E+02 -0.233917529E+01 -0.305427099E+01
   H  0.279471880E+02  0.242098683E+01  0.344224260E+01
     4
 # iter = 56000  time[fs]=56.00000
   C -0.575732077E+01 -0.338007306E-01  0.165765311E+00
   C  0.558851288E+01 -0.418097172E-01 -0.132354685E+00
   H -0.291113434E+02 -0.237177397E+01 -0.309674328E+01
   H  0.283376395E+02  0.245560763E+01  0.349164086E+01
     4
 # iter = 56500  time[fs]=56.50000
   C -0.584405503E+01 -0.336862579E-01  0.169091430E+00
   C  0.567221119E+01 -0.425143675E-01 -0.134486338E+00
   H -0.295138410E+02 -0.240439029E+01 -0.313923962E+01
   H  0.287283080E+02  0.249024979E+01  0.354106955E+01
     4
 # iter = 57000  time[fs]=57.00000
   C -0.593088668E+01 -0.335710535E-01  0.172421186E+00
   C  0.575600547E+01 -0.432200523E-01 -0.136622147E+00
   H -0.299165326E+02 -0.243702377E+01 -0.318175936E+01
   H  0.291191874E+02  0.252491275E+01  0.359052788E+01
     4
 # iter = 57500  time[fs]=57.50000
   C -0.601781287E+01 -0.334551302E-01  0.175754486E+00
   C  0.583989292E+01 -0.439267512E-01 -0.138762005E+00
   H -0.303194132E+02 -0.246967398E+01 -0.322430189E+01
   H  0.295102724E+02  0.255959598E+01  0.364001507E+01
     4
 # iter = 58000  time[fs]=58.00000
   C -0.610483088E+01 -0.333385003E-01  0.179091239E+00
   C  0.592387085E+01 -0.446344447E-01 -0.140905810E+00
   H -0.307224778E+02 -0.250234048E+01 -0.326686663E+01
   H  0.299015574E+02  0.259429895E+01  0.368953039E+01
     4
 # iter = 58500  time[fs]=58.50000
   C -0.619193810E+01 -0.332211763E-01  0.182431358E+00
   C  0.600793668E+01 -0.453431134E-01 -0.143053464E+00
   H -0.311257216E+02 -0.253502284E+01 -0.330945301E+01
   H  0.302930373E+02  0.262902116E+01  0.373907312E+01
     4
 # iter = 59000  time[fs]=59.00000
   C -0.627913202E+01 -0.331031702E-01  0.185774761E+00
   C  0.609208794E+01 -0.460527386E-01 -0.145204871E+00
   H -0.315291401E+02 -0.256772068E+01 -0.335206048E+01
   H  0.306847072E+02  0.266376214E+01  0.378864259E+01
     4
 # iter = 59500  time[fs]=59.50000
   C -0.636641025E+01 -0.329844938E-01  0.189121367E+00
   C  0.617632226E+01 -0.467633020E-01 -0.147359939E+00
   H -0.319327289E+02 -0.260043360E+01 -0.339468852E+01
   H  0.310765623E+02  0.269852142E+01  0.383823814E+01
     4
 # iter = 60000  time[fs]=60.00000
   C -0.645377048E+01 -0.328651588E-01  0.192471097E+00
   C  0.626063737E+01 -0.474747857E-01 -0.149518581E+00
   H -0.323364838E+02 -0.263316123E+01 -0.343733663E+01
   H  0.314685980E+02  0.273329855E+01  0.388785914E+01
     4
 # iter = 60500  time[fs]=60.50000
   C -0.654121049E+01 -0.327451765E-01  0.195823878E+00
   C  0.634503109E+01 -0.481871722E-01 -0.151680711E+00
   H -0.327404005E+02 -0.266590323E+01 -0.348000431E+01
   H  0.318608098E+02  0.276809310E+01  0.393750496E+01
     4
 # iter = 61000  time[fs]=61.00000
   C -0.662872816E+01 -0.326245581E-01  0.199179636E+00
   C  0.642950130E+01 -0.489004446E-01 -0.153846246E+00
   H -0.331444753E+02 -0.269865923E+01 -0.352269109E+01
   H  0.322531935E+02  0.280290466E+01  0.398717502E+01
     4
 # iter = 61500  time[fs]=61.50000
   C -0.671632144E+01 -0.325033146E-01  0.202538302E+00
   C  0.651404600E+01 -0.496145862E-01 -0.156015108E+00
   H -0.335487043E+02 -0.273142891E+01 -0.356539653E+01
   H  0.326457449E+02  0.283773283E+01  0.403686876E+01
     4
 # iter = 62000  time[fs]=62.00000
   C -0.680398837E+01 -0.323814567E-01  0.205899808E+00
   C  0.659866324E+01 -0.503295809E-01 -0.158187218E+00
   H -0.339530838E+02 -0.276421195E+01 -0.360812018E+01
   H  0.330384601E+02  0.287257722E+01  0.408658561E+01
     4
 # iter = 62500  time[fs]=62.50000
   C -0.689172704E+01 -0.322589950E-01  0.209264089E+00
   C  0.668335115E+01 -0.510454128E-01 -0.160362503E+00
   H -0.343576103E+02 -0.279700803E+01 -0.365086163E+01
   H  0.334313352E+02  0.290743746E+01  0.413632506E+01
     4
 # iter = 63000  time[fs]=63.00000
   C -0.697953564E+01 -0.321359397E-01  0.212631082E+00
   C  0.676810793E+01 -0.517620667E-01 -0.162540892E+00
   H -0.347622803E+02 -0.282981686E+01 -0.369362046E+01
   H  0.338243665E+02  0.294231319E+01  0.418608658E+01
     4
 # iter = 63500  time[fs]=63.50000
   C -0.706741241E+01 -0.320123009E-01  0.216000726E+00
   C  0.685293185E+01 -0.524795273E-01 -0.164722314E+00
   H -0.351670907E+02 -0.286263815E+01 -0.373639628E+01
   H  0.342175504E+02  0.297720405E+01  0.423586969E+01
     4
 # iter = 64000  time[fs]=64.00000
   C -0.715535565E+01 -0.318880885E-01  0.219372962E+00
   C  0.693782125E+01 -0.531977802E-01 -0.166906702E+00
   H -0.355720382E+02 -0.289547161E+01 -0.377918871E+01
   H  0.346108835E+02  0.301210971E+01  0.428567390E+01
     4
 # iter = 64500  time[fs]=64.50000
   C -0.724336374E+01 -0.317633122E-01  0.222747733E+00
   C  0.702277450E+01 -0.539168109E-01 -0.169093992E+00
   H -0.359771197E+02 -0.292831698E+01 -0.382199738E+01
   H  0.350043625E+02  0.304702985E+01  0.433549874E+01
     4
 # iter = 65000  time[fs]=65.00000
   C -0.733143510E+01 -0.316379813E-01  0.226124984E+00
   C  0.710779007E+01 -0.546366055E-01 -0.171284120E+00
   H -0.363823322E+02 -0.296117400E+01 -0.386482193E+01
   H  0.353979840E+02  0.308196414E+01  0.438534378E+01
     4
 # iter = 65500  time[fs]=65.50000
   C -0.741956822E+01 -0.315121052E-01  0.229504661E+00
   C  0.719286645E+01 -0.553571505E-01 -0.173477026E+00
   H -0.367876729E+02 -0.299404241E+01 -0.390766203E+01
   H  0.357917450E+02  0.311691229E+01  0.443520857E+01
     4
 # iter = 66000  time[fs]=66.00000
   C -0.750776163E+01 -0.313856930E-01  0.232886713E+00
   C  0.727800220E+01 -0.560784325E-01 -0.175672650E+00
   H -0.371931390E+02 -0.302692196E+01 -0.395051733E+01
   H  0.361856424E+02  0.315187399E+01  0.448509270E+01
     4
 # iter = 66500  time[fs]=66.50000
   C -0.759601391E+01 -0.312587535E-01  0.236271088E+00
   C  0.736319592E+01 -0.568004385E-01 -0.177870935E+00
   H -0.375987277E+02 -0.305981243E+01 -0.399338752E+01
   H  0.365796733E+02  0.318684897E+01  0.453499575E+01
     4
 # iter = 67000  time[fs]=67.00000
   C -0.768432370E+01 -0.311312953E-01  0.239657739E+00
   C  0.744844627E+01 -0.575231559E-01 -0.180071826E+00
   H -0.380044365E+02 -0.309271358E+01 -0.403627227E+01
   H  0.369738348E+02  0.322183694E+01  0.458491734E+01
     4
 # iter = 67500  time[fs]=67.50000
   C -0.777268968E+01 -0.310033271E-01  0.243046619E+00
   C  0.753375194E+01 -0.582465725E-01 -0.182275269E+00
   H -0.384102629E+02 -0.312562518E+01 -0.407917129E+01
   H  0.373681243E+02  0.325683764E+01  0.463485707E+01
     4
 # iter = 68000  time[fs]=68.00000
   C -0.786111057E+01 -0.308748570E-01  0.246437681E+00
   C  0.761911168E+01 -0.589706760E-01 -0.184481212E+00
   H -0.388162043E+02 -0.315854703E+01 -0.412208429E+01
   H  0.377625390E+02  0.329185079E+01  0.468481459E+01
     4
 # iter = 68500  time[fs]=68.50000
   C -0.794958514E+01 -0.307458932E-01  0.249830882E+00
   C  0.770452426E+01 -0.596954548E-01 -0.186689605E+00
   H -0.392222584E+02 -0.319147890E+01 -0.416501097E+01
   H  0.381570764E+02  0.332687616E+01  0.473478952E+01
     4
 # iter = 69000  time[fs]=69.00000
   C -0.803811220E+01 -0.306164438E-01  0.253226178E+00
   C  0.778998852E+01 -0.604208973E-01 -0.188900397E+00
   H -0.396284229E+02 -0.322442061E+01 -0.420795107E+01
   H  0.385517339E+02  0.336191350E+01  0.478478153E+01
     4
 # iter = 69500  time[fs]=69.50000
   C -0.812669058E+01 -0.304865163E-01  0.256623527E+00
   C  0.787550331E+01 -0.611469924E-01 -0.191113542E+00
   H -0.400346956E+02 -0.325737195E+01 -0.425090430E+01
   H  0.389465092E+02  0.339696256E+01  0.483479026E+01
     4
 # iter = 70000  time[fs]=70.00000
   C -0.821531918E+01 -0.303561186E-01  0.260022889E+00
   C  0.796106753E+01 -0.618737291E-01 -0.193328993E+00
   H -0.404410743E+02 -0.329033273E+01 -0.429387042E+01
   H  0.393413998E+02  0.343202313E+01  0.488481540E+01
     4
 # iter = 70500  time[fs]=70.50000
   C -0.830399690E+01 -0.302252580E-01  0.263424224E+00
   C  0.804668012E+01 -0.626010967E-01 -0.195546705E+00
   H -0.408475569E+02 -0.332330277E+01 -0.433684917E+01
   H  0.397364034E+02  0.346709496E+01  0.493485663E+01
     4
 # iter = 71000  time[fs]=71.00000
   C -0.839272271E+01 -0.300939418E-01  0.266827495E+00
   C  0.813234004E+01 -0.633290848E-01 -0.197766635E+00
   H -0.412541413E+02 -0.335628189E+01 -0.437984031E+01
   H  0.401315180E+02  0.350217785E+01  0.498491362E+01
     4
 # iter = 71500  time[fs]=71.50000
   C -0.848149558E+01 -0.299621772E-01  0.270232664E+00
   C  0.821804628E+01 -0.640576831E-01 -0.199988740E+00
   H -0.416608256E+02 -0.338926990E+01 -0.442284359E+01
   H  0.405267412E+02  0.353727158E+01  0.503498609E+01
     4
 # iter = 72000  time[fs]=72.00000
   C -0.857031453E+01 -0.298299712E-01  0.273639695E+00
   C  0.830379788E+01 -0.647868817E-01 -0.202212979E+00
   H -0.420676078E+02 -0.342226665E+01 -0.446585879E+01
   H  0.409220711E+02  0.357237595E+01  0.508507374E+01
     4
 # iter = 72500  time[fs]=72.50000
   C -0.865917860E+01 -0.296973306E-01  0.277048552E+00
   C  0.838959390E+01 -0.655166708E-01 -0.204439312E+00
   H -0.424744861E+02 -0.345527196E+01 -0.450888568E+01
   H  0.413175055E+02  0.360749076E+01  0.513517628E+01
     4
 # iter = 73000  time[fs]=73.00000
   C -0.874808688E+01 -0.295642621E-01  0.280459202E+00
   C  0.847543342E+01 -0.662470410E-01 -0.206667700E+00
   H -0.428814586E+02 -0.348828568E+01 -0.455192404E+01
   H  0.417130425E+02  0.364261581E+01  0.518529345E+01
     4
 # iter = 73500  time[fs]=73.50000
   C -0.883703846E+01 -0.294307722E-01  0.283871611E+00
   C  0.856131557E+01 -0.669779829E-01 -0.208898104E+00
   H -0.432885236E+02 -0.352130765E+01 -0.459497365E+01
   H  0.421086802E+02  0.367775091E+01  0.523542496E+01
     4
 # iter = 74000  time[fs]=74.00000
   C -0.892603247E+01 -0.292968674E-01  0.287285748E+00
   C  0.864723947E+01 -0.677094875E-01 -0.211130489E+00
   H -0.436956794E+02 -0.355433771E+01 -0.463803432E+01
   H  0.425044167E+02  0.371289589E+01  0.528557056E+01
     4
 # iter = 74500  time[fs]=74.50000
   C -0.901506806E+01 -0.291625540E-01  0.290701580E+00
   C  0.873320430E+01 -0.684415459E-01 -0.213364818E+00
   H -0.441029242E+02 -0.358737573E+01 -0.468110584E+01
   H  0.429002501E+02  0.374805055E+01  0.533572999E+01
     4
 # iter = 75000  time[fs]=75.00000
   C -0.910414442E+01 -0.290278381E-01  0.294119077E+00
   C  0.881920925E+01 -0.691741493E-01 -0.215601055E+00
   H -0.445102566E+02 -0.362042155E+01 -0.472418802E+01
   H  0.432961788E+02  0.378321474E+01  0.538590301E+01
     4
 # iter = 75500  time[fs]=75.50000
   C -0.919326074E+01 -0.288927257E-01  0.297538209E+00
   C  0.890525353E+01 -0.699072893E-01 -0.217839168E+00
   H -0.449176748E+02 -0.365347504E+01 -0.476728066E+01
   H  0.436922009E+02  0.381838827E+01  0.543608937E+01
     4
 # iter = 76000  time[fs]=76.00000
   C -0.928241626E+01 -0.287572227E-01  0.300958947E+00
   C  0.899133638E+01 -0.706409576E-01 -0.220079123E+00
   H -0.453251773E+02 -0.368653606E+01 -0.481038358E+01
   H  0.440883149E+02  0.385357099E+01  0.548628884E+01
     4
 # iter = 76500  time[fs]=76.50000
   C -0.937161021E+01 -0.286213349E-01  0.304381264E+00
   C  0.907745706E+01 -0.713751460E-01 -0.222320888E+00
   H -0.457327627E+02 -0.371960448E+01 -0.485349659E+01
   H  0.444845190E+02  0.388876272E+01  0.553650119E+01
     4
 # iter = 77000  time[fs]=77.00000
   C -0.946084187E+01 -0.284850680E-01  0.307805130E+00
   C  0.916361484E+01 -0.721098467E-01 -0.224564431E+00
   H -0.461404294E+02 -0.375268016E+01 -0.489661953E+01
   H  0.448808118E+02  0.392396333E+01  0.558672619E+01
     4
 # iter = 77500  time[fs]=77.50000
   C -0.955011053E+01 -0.283484275E-01  0.311230520E+00
   C  0.924980903E+01 -0.728450518E-01 -0.226809721E+00
   H -0.465481762E+02 -0.378576299E+01 -0.493975222E+01
   H  0.452771916E+02  0.395917264E+01  0.563696364E+01
     4
 # iter = 78000  time[fs]=78.00000
   C -0.963941549E+01 -0.282114188E-01  0.314657408E+00
   C  0.933603894E+01 -0.735807538E-01 -0.229056730E+00
   H -0.469560014E+02 -0.381885284E+01 -0.498289450E+01
   H  0.456736569E+02  0.399439053E+01  0.568721331E+01
     4
 # iter = 78500  time[fs]=78.50000
   C -0.972875609E+01 -0.280740472E-01  0.318085767E+00
   C  0.942230391E+01 -0.743169451E-01 -0.231305426E+00
   H -0.473639039E+02 -0.385194959E+01 -0.502604619E+01
   H  0.460702063E+02  0.402961683E+01  0.573747501E+01
     4
 # iter = 79000  time[fs]=79.00000
   C -0.981813166E+01 -0.279363180E-01  0.321515574E+00
   C  0.950860330E+01 -0.750536187E-01 -0.233555783E+00
   H -0.477718824E+02 -0.388505313E+01 -0.506920715E+01
   H  0.464668383E+02  0.406485141E+01  0.578774852E+01
     4
 # iter = 79500  time[fs]=79.50000
   C -0.990754157E+01 -0.277982362E-01  0.324946803E+00
   C  0.959493648E+01 -0.757907672E-01 -0.235807773E+00
   H -0.481799354E+02 -0.391816334E+01 -0.511237721E+01
   H  0.468635516E+02  0.410009413E+01  0.583803366E+01
     4
 # iter = 80000  time[fs]=80.00000
   C -0.999698520E+01 -0.276598069E-01  0.328379432E+00
   C  0.968130284E+01 -0.765283837E-01 -0.238061368E+00
   H -0.485880618E+02 -0.395128011E+01 -0.515555624E+01
   H  0.472603448E+02  0.413534485E+01  0.588833023E+01
