     4
 # iter = 25000  time[fs]=25.00000
   C -0.947692833E+00  0.412062901E-02  0.173279902E-01
   C  0.100439403E+01  0.320726406E-01  0.823660825E-02
   H -0.520674228E+01 -0.475837089E+00 -0.634085609E+00
   H  0.521853105E+01  0.555262875E+00  0.587967289E+00
     4
 # iter = 25500  time[fs]=25.50000
   C -0.990460154E+00  0.641187925E-02  0.201829222E-01
   C  0.104687730E+01  0.312084959E-01  0.647934510E-02
   H -0.553361576E+01 -0.504059443E+00 -0.674513489E+00
   H  0.553516881E+01  0.590386338E+00  0.624272162E+00
     4
 # iter = 26000  time[fs]=26.00000
   C -0.103628122E+01  0.868194438E-02  0.230870656E-01
   C  0.109237900E+01  0.303559749E-01  0.467270947E-02
   H -0.586572034E+01 -0.532809543E+00 -0.715641676E+00
   H  0.585746137E+01  0.626152285E+00  0.661279276E+00
     4
 # iter = 26500  time[fs]=26.50000
   C -0.108490553E+01  0.109376614E-01  0.260409171E-01
   C  0.114065206E+01  0.295090033E-01  0.281612477E-02
   H -0.620247279E+01 -0.562026870E+00 -0.757391753E+00
   H  0.618478441E+01  0.662491043E+00  0.698911172E+00
     4
 # iter = 27000  time[fs]=27.00000
   C -0.113609833E+01  0.131846530E-01  0.290443472E-01
   C  0.119146475E+01  0.286626539E-01  0.909669099E-03
   H -0.654337717E+01 -0.591660363E+00 -0.799697310E+00
   H  0.651660577E+01  0.699343204E+00  0.737102054E+00
     4
 # iter = 27500  time[fs]=27.50000
   C -0.118964212E+01  0.154274674E-01  0.320967062E-01
   C  0.124460222E+01  0.278130096E-01 -0.104603956E-02
   H -0.688800903E+01 -0.621666608E+00 -0.842501675E+00
   H  0.685246907E+01  0.736657784E+00  0.775795635E+00
     4
 # iter = 28000  time[fs]=28.00000
   C -0.124533712E+01  0.176697288E-01  0.351969355E-01
   C  0.129986704E+01  0.269570169E-01 -0.304996112E-02
   H -0.723600288E+01 -0.652008426E+00 -0.885756161E+00
   H  0.719198061E+01  0.774390753E+00  0.814943448E+00
     4
 # iter = 28500  time[fs]=28.50000
   C -0.130300094E+01  0.199142852E-01  0.383436724E-01
   C  0.135707891E+01  0.260923437E-01 -0.510074190E-02
   H -0.758704215E+01 -0.682653769E+00 -0.929418666E+00
   H  0.753479890E+01  0.812503874E+00  0.854503500E+00
     4
 # iter = 29000  time[fs]=29.00000
   C -0.136246785E+01  0.221633417E-01  0.415353408E-01
   C  0.141607393E+01  0.252172511E-01 -0.719680846E-02
   H -0.794085114E+01 -0.713574840E+00 -0.973452569E+00
   H  0.788062618E+01  0.850963754E+00  0.894439200E+00
     4
 # iter = 29500  time[fs]=29.50000
   C -0.142358769E+01  0.244185783E-01  0.447702273E-01
   C  0.147670359E+01  0.243304807E-01 -0.933644510E-02
   H -0.829718854E+01 -0.744747390E+00 -0.101782584E+01
   H  0.822920151E+01  0.889741085E+00  0.934718489E+00
     4
 # iter = 30000  time[fs]=30.00000
   C -0.148622470E+01  0.266812508E-01  0.480465410E-01
   C  0.153883356E+01  0.234311587E-01 -0.115178557E-01
   H -0.865584209E+01 -0.776150152E+00 -0.106251031E+01
   H  0.858029515E+01  0.928810017E+00  0.975313144E+00
     4
 # iter = 30500  time[fs]=30.50000
   C -0.155025625E+01  0.289522737E-01  0.513624607E-01
   C  0.160234252E+01  0.225187168E-01 -0.137392118E-01
   H -0.901662424E+01 -0.807764383E+00 -0.110748110E+01
   H  0.893370396E+01  0.968147652E+00  0.101619820E+01
     4
 # iter = 31000  time[fs]=31.00000
   C -0.161557163E+01  0.312322905E-01  0.547161704E-01
   C  0.166712092E+01  0.215928261E-01 -0.159986884E-01
   H -0.937936858E+01 -0.839573488E+00 -0.115271615E+01
   H  0.928924755E+01  0.100773362E+01  0.105735146E+01
     4
 # iter = 31500  time[fs]=31.50000
   C -0.168207085E+01  0.335217297E-01  0.581058853E-01
   C  0.173306985E+01  0.206533446E-01 -0.182944911E-01
   H -0.974392687E+01 -0.871562707E+00 -0.119819576E+01
   H  0.964676510E+01  0.104754972E+01  0.109875315E+01
     4
 # iter = 32000  time[fs]=32.00000
   C -0.174966362E+01  0.358208508E-01  0.615298702E-01
   C  0.180009992E+01  0.197002740E-01 -0.206248742E-01
   H -0.101101665E+02 -0.903718862E+00 -0.124390235E+01
   H  0.100061127E+02  0.108757965E+01  0.114038554E+01
     4
 # iter = 32500  time[fs]=32.50000
   C -0.181826827E+01  0.381297813E-01  0.649864519E-01
   C  0.186813033E+01  0.187337255E-01 -0.229881541E-01
   H -0.104779685E+02 -0.936030141E+00 -0.128982012E+01
   H  0.103671612E+02  0.112780872E+01  0.118223270E+01
     4
 # iter = 33000  time[fs]=33.00000
   C -0.188781086E+01  0.404485461E-01  0.684740274E-01
   C  0.193708792E+01  0.177538925E-01 -0.253827170E-01
   H -0.108472258E+02 -0.968485919E+00 -0.133593481E+01
   H  0.107297941E+02  0.116822369E+01  0.122428026E+01
     4
 # iter = 33500  time[fs]=33.50000
   C -0.195822442E+01  0.427770916E-01  0.719910681E-01
   C  0.200690640E+01  0.167610291E-01 -0.278070240E-01
   H -0.112178415E+02 -0.100107661E+01 -0.138223356E+01
   H  0.110939063E+02  0.120881257E+01  0.126651522E+01
     4
 # iter = 34000  time[fs]=34.00000
   C -0.202944811E+01  0.451153042E-01  0.755361222E-01
   C  0.207752559E+01  0.157554331E-01 -0.302596127E-01
   H -0.115897280E+02 -0.103379352E+01 -0.142870469E+01
   H  0.114594025E+02  0.124956446E+01  0.130892579E+01
     4
 # iter = 34500  time[fs]=34.50000
   C -0.210142666E+01  0.474630254E-01  0.791078143E-01
   C  0.214889079E+01  0.147374327E-01 -0.327390978E-01
   H -0.119628055E+02 -0.106662877E+01 -0.147533760E+01
   H  0.118261959E+02  0.129046944E+01  0.135150124E+01
     4
 # iter = 35000  time[fs]=35.00000
   C -0.217410973E+01  0.498200638E-01  0.827048445E-01
   C  0.222095218E+01  0.137073757E-01 -0.352441694E-01
   H -0.123370015E+02 -0.109957519E+01 -0.152212260E+01
   H  0.121942075E+02  0.133151845E+01  0.139423175E+01
     4
 # iter = 35500  time[fs]=35.50000
   C -0.224745140E+01  0.521862040E-01  0.863259860E-01
   C  0.229366436E+01  0.126656219E-01 -0.377735913E-01
   H -0.127122497E+02 -0.113262621E+01 -0.156905083E+01
   H  0.125633653E+02  0.137270321E+01  0.143710837E+01
     4
 # iter = 36000  time[fs]=36.00000
   C -0.232140976E+01  0.545612148E-01  0.899700825E-01
   C  0.236698583E+01  0.116125366E-01 -0.403261982E-01
   H -0.130884893E+02 -0.116577583E+01 -0.161611420E+01
   H  0.129336031E+02  0.141401610E+01  0.148012289E+01
     4
 # iter = 36500  time[fs]=36.50000
   C -0.239594641E+01  0.569448542E-01  0.936360448E-01
   C  0.244087863E+01  0.105484857E-01 -0.429008921E-01
   H -0.134656646E+02 -0.119901855E+01 -0.166330525E+01
   H  0.133048603E+02  0.145545013E+01  0.152326774E+01
     4
 # iter = 37000  time[fs]=37.00000
   C -0.247102618E+01  0.593368743E-01  0.973228477E-01
   C  0.251530796E+01  0.947383219E-02 -0.454966392E-01
   H -0.138437243E+02 -0.123234929E+01 -0.171061712E+01
   H  0.136770810E+02  0.149699886E+01  0.156653595E+01
     4
 # iter = 37500  time[fs]=37.50000
   C -0.254661678E+01  0.617370250E-01  0.101029526E+00
   C  0.259024188E+01  0.838893350E-02 -0.481124665E-01
   H -0.142226212E+02 -0.126576340E+01 -0.175804348E+01
   H  0.140502137E+02  0.153865631E+01  0.160992112E+01
     4
 # iter = 38000  time[fs]=38.00000
   C -0.262268851E+01  0.641450564E-01  0.104755172E+00
   C  0.266565101E+01  0.729413935E-02 -0.507474581E-01
   H -0.146023117E+02 -0.129925656E+01 -0.180557848E+01
   H  0.144242110E+02  0.158041700E+01  0.165341729E+01
     4
 # iter = 38500  time[fs]=38.50000
   C -0.269921402E+01  0.665607209E-01  0.108498930E+00
   C  0.274150830E+01  0.618979039E-02 -0.534007518E-01
   H -0.149827553E+02 -0.133282477E+01 -0.185321669E+01
   H  0.147990288E+02  0.162227580E+01  0.169701895E+01
     4
 # iter = 39000  time[fs]=39.00000
   C -0.277616806E+01  0.689837749E-01  0.112259995E+00
   C  0.281778879E+01  0.507621717E-02 -0.560715359E-01
   H -0.153639147E+02 -0.136646434E+01 -0.190095309E+01
   H  0.151746263E+02  0.166422798E+01  0.174072099E+01
     4
 # iter = 39500  time[fs]=39.50000
   C -0.285352731E+01  0.714139799E-01  0.116037611E+00
   C  0.289446942E+01  0.395373950E-02 -0.587590459E-01
   H -0.157457551E+02 -0.140017184E+01 -0.194878301E+01
   H  0.155509658E+02  0.170626912E+01  0.178451866E+01
     4
 # iter = 40000  time[fs]=40.00000
   C -0.293127019E+01  0.738511036E-01  0.119831063E+00
   C  0.297152884E+01  0.282266608E-02 -0.614625615E-01
   H -0.161282440E+02 -0.143394406E+01 -0.199670208E+01
   H  0.159280119E+02  0.174839511E+01  0.182840752E+01
     4
 # iter = 40500  time[fs]=40.50000
   C -0.300937670E+01  0.762949199E-01  0.123639678E+00
   C  0.304894729E+01  0.168329430E-02 -0.641814036E-01
   H -0.165113515E+02 -0.146777802E+01 -0.204470626E+01
   H  0.163057318E+02  0.179060212E+01  0.187238344E+01
     4
 # iter = 41000  time[fs]=41.00000
   C -0.308782827E+01  0.787452098E-01  0.127462821E+00
   C  0.312670639E+01  0.535910254E-03 -0.669149320E-01
   H -0.168950493E+02 -0.150167096E+01 -0.209279174E+01
   H  0.166840948E+02  0.183288656E+01  0.191644256E+01
     4
 # iter = 41500  time[fs]=41.50000
   C -0.316660765E+01  0.812017616E-01  0.131299894E+00
   C  0.320478910E+01 -0.619211192E-03 -0.696625422E-01
   H -0.172793113E+02 -0.153562026E+01 -0.214095498E+01
   H  0.170630724E+02  0.187524508E+01  0.196058127E+01
     4
 # iter = 42000  time[fs]=42.00000
   C -0.324569877E+01  0.836643708E-01  0.135150332E+00
   C  0.328317954E+01 -0.178180618E-02 -0.724236638E-01
   H -0.176641128E+02 -0.156962350E+01 -0.218919266E+01
   H  0.174426376E+02  0.191767452E+01  0.200479618E+01
     4
 # iter = 42500  time[fs]=42.50000
   C -0.332508666E+01  0.861328402E-01  0.139013600E+00
   C  0.336186290E+01 -0.295162160E-02 -0.751977577E-01
   H -0.180494307E+02 -0.160367839E+01 -0.223750167E+01
   H  0.178227655E+02  0.196017194E+01  0.204908412E+01
     4
 # iter = 43000  time[fs]=43.00000
   C -0.340475735E+01  0.886069798E-01  0.142889193E+00
   C  0.344082539E+01 -0.412841480E-02 -0.779843141E-01
   H -0.184352436E+02 -0.163778279E+01 -0.228587907E+01
   H  0.182034325E+02  0.200273456E+01  0.209344209E+01
     4
 # iter = 43500  time[fs]=43.50000
   C -0.348469779E+01  0.910866071E-01  0.146776635E+00
   C  0.352005410E+01 -0.531195324E-02 -0.807828510E-01
   H -0.188215310E+02 -0.167193470E+01 -0.233432211E+01
   H  0.185846163E+02  0.204535978E+01  0.213786729E+01
     4
 # iter = 44000  time[fs]=44.00000
   C -0.356489577E+01  0.935715461E-01  0.150675473E+00
   C  0.359953695E+01 -0.650201411E-02 -0.835929119E-01
   H -0.192082738E+02 -0.170613223E+01 -0.238282821E+01
   H  0.189662962E+02  0.208804514E+01  0.218235709E+01
     4
 # iter = 44500  time[fs]=44.50000
   C -0.364533984E+01  0.960616281E-01  0.154585279E+00
   C  0.367926265E+01 -0.769838398E-02 -0.864140645E-01
   H -0.195954541E+02 -0.174037357E+01 -0.243139492E+01
   H  0.193484525E+02  0.213078832E+01  0.222690898E+01
     4
 # iter = 45000  time[fs]=45.00000
   C -0.372601928E+01  0.985566906E-01  0.158505646E+00
   C  0.375922060E+01 -0.890085841E-02 -0.892458989E-01
   H -0.199830549E+02 -0.177465707E+01 -0.248001993E+01
   H  0.197310669E+02  0.217358713E+01  0.227152061E+01
     4
 # iter = 45500  time[fs]=45.50000
   C -0.380692401E+01  0.101056578E+00  0.162436191E+00
   C  0.383940084E+01 -0.101092416E-01 -0.920880264E-01
   H -0.203710602E+02 -0.180898113E+01 -0.252870108E+01
   H  0.201141217E+02  0.221643952E+01  0.231618977E+01
     4
 # iter = 46000  time[fs]=46.00000
   C -0.388804458E+01  0.103561140E+00  0.166376548E+00
   C  0.391979403E+01 -0.113233459E-01 -0.949400778E-01
   H -0.207594549E+02 -0.184334424E+01 -0.257743629E+01
   H  0.204976006E+02  0.225934351E+01  0.236091434E+01
     4
 # iter = 46500  time[fs]=46.50000
   C -0.396937207E+01  0.106070234E+00  0.170326370E+00
   C  0.400039136E+01 -0.125429917E-01 -0.978017029E-01
   H -0.211482246E+02 -0.187774500E+01 -0.262622363E+01
   H  0.208814878E+02  0.230229726E+01  0.240569234E+01
     4
 # iter = 47000  time[fs]=47.00000
   C -0.405089810E+01  0.108583722E+00  0.174285326E+00
   C  0.408118455E+01 -0.137680067E-01 -0.100672568E+00
   H -0.215373559E+02 -0.191218205E+01 -0.267506125E+01
   H  0.212657688E+02  0.234529902E+01  0.245052188E+01
     4
 # iter = 47500  time[fs]=47.50000
   C -0.413261476E+01  0.111101470E+00  0.178253104E+00
   C  0.416216579E+01 -0.149982259E-01 -0.103552357E+00
   H -0.219268358E+02 -0.194665412E+01 -0.272394739E+01
   H  0.216504294E+02  0.238834713E+01  0.249540118E+01
     4
 # iter = 48000  time[fs]=48.00000
   C -0.421451459E+01  0.113623351E+00  0.182229405E+00
   C  0.424332770E+01 -0.162334912E-01 -0.106440768E+00
   H -0.223166523E+02 -0.198116001E+01 -0.277288040E+01
   H  0.220354565E+02  0.243143999E+01  0.254032853E+01
     4
 # iter = 48500  time[fs]=48.50000
   C -0.429659053E+01  0.116149245E+00  0.186213945E+00
   C  0.432466333E+01 -0.174736509E-01 -0.109337515E+00
   H -0.227067938E+02 -0.201569856E+01 -0.282185870E+01
   H  0.224208374E+02  0.247457612E+01  0.258530233E+01
     4
 # iter = 49000  time[fs]=49.00000
   C -0.437883593E+01  0.118679032E+00  0.190206453E+00
   C  0.440616608E+01 -0.187185594E-01 -0.112242322E+00
   H -0.230972492E+02 -0.205026869E+01 -0.287088079E+01
   H  0.228065601E+02  0.251775408E+01  0.263032103E+01
     4
 # iter = 49500  time[fs]=49.50000
   C -0.446124447E+01  0.121212600E+00  0.194206670E+00
   C  0.448782974E+01 -0.199680773E-01 -0.115154930E+00
   H -0.234880083E+02 -0.208486936E+01 -0.291994524E+01
   H  0.231926134E+02  0.256097252E+01  0.267538318E+01
     4
 # iter = 50000  time[fs]=50.00000
   C -0.454381018E+01  0.123749842E+00  0.198214351E+00
   C  0.456964841E+01 -0.212220706E-01 -0.118075089E+00
   H -0.238790610E+02 -0.211949958E+01 -0.296905069E+01
   H  0.235789863E+02  0.260423014E+01  0.272048739E+01
     4
 # iter = 50500  time[fs]=50.50000
   C -0.462652740E+01  0.126290652E+00  0.202229261E+00
   C  0.465161648E+01 -0.224804108E-01 -0.121002562E+00
   H -0.242703978E+02 -0.215415841E+01 -0.301819585E+01
   H  0.239656685E+02  0.264752570E+01  0.276563233E+01
     4
 # iter = 51000  time[fs]=51.00000
   C -0.470939076E+01  0.128834931E+00  0.206251174E+00
   C  0.473372866E+01 -0.237429744E-01 -0.123937122E+00
   H -0.246620099E+02 -0.218884495E+01 -0.306737947E+01
   H  0.243526503E+02  0.269085803E+01  0.281081673E+01
     4
 # iter = 51500  time[fs]=51.50000
   C -0.479239515E+01  0.131382583E+00  0.210279877E+00
   C  0.481597992E+01 -0.250096428E-01 -0.126878552E+00
   H -0.250538886E+02 -0.222355835E+01 -0.311660039E+01
   H  0.247399223E+02  0.273422601E+01  0.285603939E+01
     4
 # iter = 52000  time[fs]=52.00000
   C -0.487553574E+01  0.133933514E+00  0.214315164E+00
   C  0.489836546E+01 -0.262803020E-01 -0.129826644E+00
   H -0.254460256E+02 -0.225829779E+01 -0.316585747E+01
   H  0.251274755E+02  0.277762856E+01  0.290129916E+01
     4
 # iter = 52500  time[fs]=52.50000
   C -0.495880790E+01  0.136487636E+00  0.218356838E+00
   C  0.498088073E+01 -0.275548425E-01 -0.132781201E+00
   H -0.258384132E+02 -0.229306249E+01 -0.321514963E+01
   H  0.255153013E+02  0.282106466E+01  0.294659494E+01
     4
 # iter = 53000  time[fs]=53.00000
   C -0.504220725E+01  0.139044863E+00  0.222404712E+00
   C  0.506352141E+01 -0.288331590E-01 -0.135742031E+00
   H -0.262310438E+02 -0.232785170E+01 -0.326447586E+01
   H  0.259033917E+02  0.286453332E+01  0.299192566E+01
     4
 # iter = 53500  time[fs]=53.50000
   C -0.512572962E+01  0.141605112E+00  0.226458605E+00
   C  0.514628336E+01 -0.301151502E-01 -0.138708954E+00
   H -0.266239104E+02 -0.236266471E+01 -0.331383516E+01
   H  0.262917388E+02  0.290803361E+01  0.303729032E+01
     4
 # iter = 54000  time[fs]=54.00000
   C -0.520937102E+01  0.144168305E+00  0.230518345E+00
   C  0.522916267E+01 -0.314007184E-01 -0.141681793E+00
   H -0.270170060E+02 -0.239750084E+01 -0.336322658E+01
   H  0.266803352E+02  0.295156462E+01  0.308268796E+01
     4
 # iter = 54500  time[fs]=54.50000
   C -0.529312766E+01  0.146734363E+00  0.234583767E+00
   C  0.531215558E+01 -0.326897700E-01 -0.144660383E+00
   H -0.274103241E+02 -0.243235943E+01 -0.341264923E+01
   H  0.270691737E+02  0.299512550E+01  0.312811765E+01
     4
 # iter = 55000  time[fs]=55.00000
   C -0.537699592E+01  0.149303215E+00  0.238654712E+00
   C  0.539525852E+01 -0.339822144E-01 -0.147644563E+00
   H -0.278038584E+02 -0.246723985E+01 -0.346210224E+01
   H  0.274582474E+02  0.303871541E+01  0.317357850E+01
     4
 # iter = 55500  time[fs]=55.50000
   C -0.546097233E+01  0.151874788E+00  0.242731027E+00
   C  0.547846808E+01 -0.352779646E-01 -0.150634178E+00
   H -0.281976029E+02 -0.250214150E+01 -0.351158478E+01
   H  0.278475498E+02  0.308233357E+01  0.321906966E+01
     4
 # iter = 56000  time[fs]=56.00000
   C -0.554505359E+01  0.154449013E+00  0.246812566E+00
   C  0.556178098E+01 -0.365769367E-01 -0.153629081E+00
   H -0.285915518E+02 -0.253706381E+01 -0.356109605E+01
   H  0.282370746E+02  0.312597921E+01  0.326459031E+01
     4
 # iter = 56500  time[fs]=56.50000
   C -0.562923654E+01  0.157025826E+00  0.250899189E+00
   C  0.564519412E+01 -0.378790498E-01 -0.156629130E+00
   H -0.289856996E+02 -0.257200622E+01 -0.361063528E+01
   H  0.286268157E+02  0.316965160E+01  0.331013967E+01
     4
 # iter = 57000  time[fs]=57.00000
   C -0.571351815E+01  0.159605161E+00  0.254990761E+00
   C  0.572870450E+01 -0.391842260E-01 -0.159634187E+00
   H -0.293800409E+02 -0.260696819E+01 -0.366020174E+01
   H  0.290167673E+02  0.321335004E+01  0.335571699E+01
     4
 # iter = 57500  time[fs]=57.50000
   C -0.579789553E+01  0.162186958E+00  0.259087150E+00
   C  0.581230927E+01 -0.404923899E-01 -0.162644122E+00
   H -0.297745705E+02 -0.264194923E+01 -0.370979472E+01
   H  0.294069239E+02  0.325707385E+01  0.340132152E+01
     4
 # iter = 58000  time[fs]=58.00000
   C -0.588236591E+01  0.164771157E+00  0.263188234E+00
   C  0.589600571E+01 -0.418034690E-01 -0.165658808E+00
   H -0.301692837E+02 -0.267694882E+01 -0.375941354E+01
   H  0.297972802E+02  0.330082239E+01  0.344695259E+01
     4
 # iter = 58500  time[fs]=58.50000
   C -0.596692664E+01  0.167357700E+00  0.267293890E+00
   C  0.597979117E+01 -0.431173932E-01 -0.168678123E+00
   H -0.305641757E+02 -0.271196651E+01 -0.380905754E+01
   H  0.301878308E+02  0.334459503E+01  0.349260952E+01
     4
 # iter = 59000  time[fs]=59.00000
   C -0.605157516E+01  0.169946532E+00  0.271404004E+00
   C  0.606366316E+01 -0.444340947E-01 -0.171701951E+00
   H -0.309592418E+02 -0.274700184E+01 -0.385872610E+01
   H  0.305785709E+02  0.338839116E+01  0.353829166E+01
     4
 # iter = 59500  time[fs]=59.50000
   C -0.613630902E+01  0.172537600E+00  0.275518464E+00
   C  0.614761926E+01 -0.457535083E-01 -0.174730178E+00
   H -0.313544778E+02 -0.278205436E+01 -0.390841860E+01
   H  0.309694958E+02  0.343221020E+01  0.358399839E+01
     4
 # iter = 60000  time[fs]=60.00000
   C -0.622112590E+01  0.175130851E+00  0.279637162E+00
   C  0.623165715E+01 -0.470755708E-01 -0.177762696E+00
   H -0.317498794E+02 -0.281712365E+01 -0.395813447E+01
   H  0.313606007E+02  0.347605161E+01  0.362972911E+01
     4
 # iter = 60500  time[fs]=60.50000
   C -0.630602352E+01  0.177726236E+00  0.283759995E+00
   C  0.631577462E+01 -0.484002210E-01 -0.180799399E+00
   H -0.321454425E+02 -0.285220931E+01 -0.400787313E+01
   H  0.317518813E+02  0.351991483E+01  0.367548324E+01
     4
 # iter = 61000  time[fs]=61.00000
   C -0.639099974E+01  0.180323706E+00  0.287886862E+00
   C  0.639996953E+01 -0.497273999E-01 -0.183840187E+00
   H -0.325411633E+02 -0.288731095E+01 -0.405763405E+01
   H  0.321433334E+02  0.356379935E+01  0.372126023E+01
     4
 # iter = 61500  time[fs]=61.50000
   C -0.647605246E+01  0.182923214E+00  0.292017668E+00
   C  0.648423983E+01 -0.510570505E-01 -0.186884962E+00
   H -0.329370378E+02 -0.292242818E+01 -0.410741670E+01
   H  0.325349527E+02  0.360770467E+01  0.376705953E+01
     4
 # iter = 62000  time[fs]=62.00000
   C -0.656117969E+01  0.185524714E+00  0.296152318E+00
   C  0.656858354E+01 -0.523891175E-01 -0.189933629E+00
   H -0.333330626E+02 -0.295756064E+01 -0.415722056E+01
   H  0.329267353E+02  0.365163030E+01  0.381288062E+01
     4
 # iter = 62500  time[fs]=62.50000
   C -0.664637951E+01  0.188128164E+00  0.300290723E+00
   C  0.665299877E+01 -0.537235474E-01 -0.192986098E+00
   H -0.337292341E+02 -0.299270797E+01 -0.420704516E+01
   H  0.333186774E+02  0.369557578E+01  0.385872301E+01
     4
 # iter = 63000  time[fs]=63.00000
   C -0.673165005E+01  0.190733520E+00  0.304432796E+00
   C  0.673748368E+01 -0.550602885E-01 -0.196042281E+00
   H -0.341255488E+02 -0.302786985E+01 -0.425689002E+01
   H  0.337107753E+02  0.373954065E+01  0.390458620E+01
     4
 # iter = 63500  time[fs]=63.50000
   C -0.681698953E+01  0.193340741E+00  0.308578453E+00
   C  0.682203652E+01 -0.563992905E-01 -0.199102093E+00
   H -0.345220036E+02 -0.306304592E+01 -0.430675469E+01
   H  0.341030254E+02  0.378352448E+01  0.395046974E+01
     4
 # iter = 64000  time[fs]=64.00000
   C -0.690239625E+01  0.195949787E+00  0.312727613E+00
   C  0.690665559E+01 -0.577405050E-01 -0.202165451E+00
   H -0.349185951E+02 -0.309823589E+01 -0.435663871E+01
   H  0.344954243E+02  0.382752684E+01  0.399637316E+01
     4
 # iter = 64500  time[fs]=64.50000
   C -0.698786852E+01  0.198560620E+00  0.316880198E+00
   C  0.699133926E+01 -0.590838849E-01 -0.205232277E+00
   H -0.353153204E+02 -0.313343944E+01 -0.440654167E+01
   H  0.348879686E+02  0.387154733E+01  0.404229604E+01
     4
 # iter = 65000  time[fs]=65.00000
   C -0.707340477E+01  0.201173201E+00  0.321036131E+00
   C  0.707608595E+01 -0.604293846E-01 -0.208302493E+00
   H -0.357121765E+02 -0.316865626E+01 -0.445646316E+01
   H  0.352806550E+02  0.391558555E+01  0.408823794E+01
     4
 # iter = 65500  time[fs]=65.50000
   C -0.715900345E+01  0.203787495E+00  0.325195339E+00
   C  0.716089413E+01 -0.617769598E-01 -0.211376025E+00
   H -0.361091605E+02 -0.320388608E+01 -0.450640276E+01
   H  0.356734805E+02  0.395964112E+01  0.413419845E+01
     4
 # iter = 66000  time[fs]=66.00000
   C -0.724466307E+01  0.206403467E+00  0.329357751E+00
   C  0.724576235E+01 -0.631265678E-01 -0.214452801E+00
   H -0.365062697E+02 -0.323912862E+01 -0.455636010E+01
   H  0.360664420E+02  0.400371366E+01  0.418017718E+01
     4
 # iter = 66500  time[fs]=66.50000
   C -0.733038219E+01  0.209021081E+00  0.333523299E+00
   C  0.733068919E+01 -0.644781668E-01 -0.217532752E+00
   H -0.369035013E+02 -0.327438360E+01 -0.460633480E+01
   H  0.364595367E+02  0.404780283E+01  0.422617374E+01
     4
 # iter = 67000  time[fs]=67.00000
   C -0.741615943E+01  0.211640306E+00  0.337691914E+00
   C  0.741567328E+01 -0.658317166E-01 -0.220615810E+00
   H -0.373008528E+02 -0.330965076E+01 -0.465632649E+01
   H  0.368527616E+02  0.409190828E+01  0.427218776E+01
     4
 # iter = 67500  time[fs]=67.50000
   C -0.750199345E+01  0.214261108E+00  0.341863533E+00
   C  0.750071330E+01 -0.671871778E-01 -0.223701909E+00
   H -0.376983216E+02 -0.334492986E+01 -0.470633483E+01
   H  0.372461140E+02  0.413602966E+01  0.431821888E+01
     4
 # iter = 68000  time[fs]=68.00000
   C -0.758788294E+01  0.216883456E+00  0.346038093E+00
   C  0.758580796E+01 -0.685445127E-01 -0.226790986E+00
   H -0.380959053E+02 -0.338022063E+01 -0.475635948E+01
   H  0.376395913E+02  0.418016664E+01  0.436426675E+01
     4
 # iter = 68500  time[fs]=68.50000
   C -0.767382667E+01  0.219507321E+00  0.350215534E+00
   C  0.767095605E+01 -0.699036840E-01 -0.229882980E+00
   H -0.384936015E+02 -0.341552285E+01 -0.480640009E+01
   H  0.380331909E+02  0.422431893E+01  0.441033103E+01
     4
 # iter = 69000  time[fs]=69.00000
   C -0.775982342E+01  0.222132671E+00  0.354395795E+00
   C  0.775615635E+01 -0.712646561E-01 -0.232977832E+00
   H -0.388914079E+02 -0.345083629E+01 -0.485645636E+01
   H  0.384269103E+02  0.426848620E+01  0.445641139E+01
     4
 # iter = 69500  time[fs]=69.50000
   C -0.784587202E+01  0.224759479E+00  0.358578821E+00
   C  0.784140772E+01 -0.726273940E-01 -0.236075482E+00
   H -0.392893224E+02 -0.348616072E+01 -0.490652796E+01
   H  0.388207470E+02  0.431266816E+01  0.450250750E+01
     4
 # iter = 70000  time[fs]=70.00000
   C -0.793197132E+01  0.227387717E+00  0.362764556E+00
   C  0.792670905E+01 -0.739918639E-01 -0.239175875E+00
   H -0.396873426E+02 -0.352149591E+01 -0.495661461E+01
   H  0.392146987E+02  0.435686451E+01  0.454861907E+01
     4
 # iter = 70500  time[fs]=70.50000
   C -0.801812025E+01  0.230017358E+00  0.366952946E+00
   C  0.801205923E+01 -0.753580328E-01 -0.242278957E+00
   H -0.400854667E+02 -0.355684167E+01 -0.500671600E+01
   H  0.396087632E+02  0.440107499E+01  0.459474578E+01
     4
 # iter = 71000  time[fs]=71.00000
   C -0.810431772E+01  0.232648374E+00  0.371143939E+00
   C  0.809745724E+01 -0.767258686E-01 -0.245384675E+00
   H -0.404836924E+02 -0.359219779E+01 -0.505683184E+01
   H  0.400029382E+02  0.444529931E+01  0.464088735E+01
     4
 # iter = 71500  time[fs]=71.50000
   C -0.819056272E+01  0.235280741E+00  0.375337483E+00
   C  0.818290205E+01 -0.780953404E-01 -0.248492977E+00
   H -0.408820179E+02 -0.362756406E+01 -0.510696187E+01
   H  0.403972215E+02  0.448953722E+01  0.468704349E+01
     4
 # iter = 72000  time[fs]=72.00000
   C -0.827685424E+01  0.237914434E+00  0.379533530E+00
   C  0.826839268E+01 -0.794664177E-01 -0.251603813E+00
   H -0.412804411E+02 -0.366294030E+01 -0.515710582E+01
   H  0.407916111E+02  0.453378845E+01  0.473321393E+01
     4
 # iter = 72500  time[fs]=72.50000
   C -0.836319132E+01  0.240549428E+00  0.383732032E+00
   C  0.835392817E+01 -0.808390712E-01 -0.254717136E+00
   H -0.416789604E+02 -0.369832631E+01 -0.520726341E+01
   H  0.411861050E+02  0.457805275E+01  0.477939839E+01
     4
 # iter = 73000  time[fs]=73.00000
   C -0.844957301E+01  0.243185699E+00  0.387932942E+00
   C  0.843950760E+01 -0.822132720E-01 -0.257832897E+00
   H -0.420775737E+02 -0.373372191E+01 -0.525743440E+01
   H  0.415807011E+02  0.462232988E+01  0.482559662E+01
     4
 # iter = 73500  time[fs]=73.50000
   C -0.853599841E+01  0.245823225E+00  0.392136214E+00
   C  0.852513008E+01 -0.835889924E-01 -0.260951051E+00
   H -0.424762794E+02 -0.376912693E+01 -0.530761854E+01
   H  0.419753976E+02  0.466661960E+01  0.487180836E+01
     4
 # iter = 74000  time[fs]=74.00000
   C -0.862246664E+01  0.248461984E+00  0.396341806E+00
   C  0.861079472E+01 -0.849662050E-01 -0.264071553E+00
   H -0.428750758E+02 -0.380454119E+01 -0.535781560E+01
   H  0.423701925E+02  0.471092169E+01  0.491803336E+01
     4
 # iter = 74500  time[fs]=74.50000
   C -0.870897683E+01  0.251101952E+00  0.400549674E+00
   C  0.869650070E+01 -0.863448835E-01 -0.267194361E+00
   H -0.432739611E+02 -0.383996452E+01 -0.540802532E+01
   H  0.427650841E+02  0.475523592E+01  0.496427139E+01
     4
 # iter = 75000  time[fs]=75.00000
   C -0.879552816E+01  0.253743110E+00  0.404759776E+00
   C  0.878224718E+01 -0.877250020E-01 -0.270319432E+00
   H -0.436729339E+02 -0.387539676E+01 -0.545824750E+01
   H  0.431600706E+02  0.479956207E+01  0.501052220E+01
     4
 # iter = 75500  time[fs]=75.50000
   C -0.888211982E+01  0.256385436E+00  0.408972072E+00
   C  0.886803337E+01 -0.891065354E-01 -0.273446724E+00
   H -0.440719924E+02 -0.391083776E+01 -0.550848190E+01
   H  0.435551503E+02  0.484389992E+01  0.505678558E+01
     4
 # iter = 76000  time[fs]=76.00000
   C -0.896875102E+01  0.259028910E+00  0.413186522E+00
   C  0.895385850E+01 -0.904894593E-01 -0.276576198E+00
   H -0.444711351E+02 -0.394628735E+01 -0.555872831E+01
   H  0.439503215E+02  0.488824929E+01  0.510306130E+01
     4
 # iter = 76500  time[fs]=76.50000
   C -0.905542099E+01  0.261673513E+00  0.417403088E+00
   C  0.903972182E+01 -0.918737497E-01 -0.279707816E+00
   H -0.448703607E+02 -0.398174538E+01 -0.560898653E+01
   H  0.443455825E+02  0.493260995E+01  0.514934915E+01
     4
 # iter = 77000  time[fs]=77.00000
   C -0.914212901E+01  0.264319224E+00  0.421621733E+00
   C  0.912562259E+01 -0.932593834E-01 -0.282841538E+00
   H -0.452696675E+02 -0.401721171E+01 -0.565925633E+01
   H  0.447409319E+02  0.497698172E+01  0.519564891E+01
     4
 # iter = 77500  time[fs]=77.50000
   C -0.922887435E+01  0.266966027E+00  0.425842420E+00
   C  0.921156011E+01 -0.946463377E-01 -0.285977329E+00
   H -0.456690542E+02 -0.405268619E+01 -0.570953754E+01
   H  0.451363681E+02  0.502136440E+01  0.524196038E+01
     4
 # iter = 78000  time[fs]=78.00000
   C -0.931565631E+01  0.269613901E+00  0.430065113E+00
   C  0.929753369E+01 -0.960345905E-01 -0.289115152E+00
   H -0.460685194E+02 -0.408816869E+01 -0.575982994E+01
   H  0.455318894E+02  0.506575781E+01  0.528828336E+01
     4
 # iter = 78500  time[fs]=78.50000
   C -0.940247420E+01  0.272262831E+00  0.434289779E+00
   C  0.938354265E+01 -0.974241201E-01 -0.292254973E+00
   H -0.464680617E+02 -0.412365906E+01 -0.581013336E+01
   H  0.459274946E+02  0.511016177E+01  0.533461766E+01
     4
 # iter = 79000  time[fs]=79.00000
   C -0.948932737E+01  0.274912797E+00  0.438516383E+00
   C  0.946958634E+01 -0.988149057E-01 -0.295396756E+00
   H -0.468676799E+02 -0.415915719E+01 -0.586044761E+01
   H  0.463231822E+02  0.515457610E+01  0.538096308E+01
     4
 # iter = 79500  time[fs]=79.50000
   C -0.957621517E+01  0.277563783E+00  0.442744892E+00
   C  0.955566413E+01 -0.100206926E+00 -0.298540470E+00
   H -0.472673727E+02 -0.419466292E+01 -0.591077250E+01
   H  0.467189507E+02  0.519900062E+01  0.542731944E+01
     4
 # iter = 80000  time[fs]=80.00000
   C -0.966313697E+01  0.280215773E+00  0.446975274E+00
   C  0.964177540E+01 -0.101600163E+00 -0.301686081E+00
   H -0.476671388E+02 -0.423017615E+01 -0.596110786E+01
   H  0.471147988E+02  0.524343518E+01  0.547368657E+01
