     4
 # iter = 25000  time[fs]=25.00000
   C -0.100792727E+01 -0.472782332E-01  0.423140338E-01
   C  0.989778046E+00  0.628977152E-02  0.324776059E-02
   H -0.532673633E+01 -0.441662142E+00 -0.398977997E+00
   H  0.540497664E+01  0.456803699E+00 -0.287165567E+00
     4
 # iter = 25500  time[fs]=25.50000
   C -0.105519546E+01 -0.476629253E-01  0.455936032E-01
   C  0.103256667E+01  0.490100769E-02  0.556523912E-02
   H -0.566227657E+01 -0.469303610E+00 -0.423338464E+00
   H  0.572518396E+01  0.484379799E+00 -0.301725268E+00
     4
 # iter = 26000  time[fs]=26.00000
   C -0.110536555E+01 -0.481112431E-01  0.489602074E-01
   C  0.107820906E+01  0.356580979E-02  0.785756409E-02
   H -0.600285839E+01 -0.497362870E+00 -0.448112193E+00
   H  0.605101041E+01  0.512494407E+00 -0.316614281E+00
     4
 # iter = 26500  time[fs]=26.50000
   C -0.115819405E+01 -0.486139804E-01  0.524045643E-01
   C  0.112646551E+01  0.227592857E-02  0.101270830E-01
   H -0.634792097E+01 -0.525793592E+00 -0.473252672E+00
   H  0.638184988E+01  0.541089712E+00 -0.331795905E+00
     4
 # iter = 27000  time[fs]=27.00000
   C -0.121345485E+01 -0.491632016E-01  0.559185572E-01
   C  0.117711336E+01  0.102426171E-02  0.123760410E-01
   H -0.669698724E+01 -0.554556408E+00 -0.498720567E+00
   H  0.671718388E+01  0.570116344E+00 -0.347239013E+00
     4
 # iter = 27500  time[fs]=27.50000
   C -0.127093994E+01 -0.497521123E-01  0.594950837E-01
   C  0.122994773E+01 -0.195256056E-03  0.146065316E-01
   H -0.704964880E+01 -0.583617633E+00 -0.524482358E+00
   H  0.705656628E+01  0.599531870E+00 -0.362917022E+00
     4
 # iter = 28000  time[fs]=28.00000
   C -0.133045929E+01 -0.503749217E-01  0.631279227E-01
   C  0.128478146E+01 -0.138777490E-02  0.168204729E-01
   H -0.740555383E+01 -0.612948264E+00 -0.550509266E+00
   H  0.739961103E+01  0.629299600E+00 -0.378807069E+00
     4
 # iter = 28500  time[fs]=28.50000
   C -0.139184017E+01 -0.510267082E-01  0.668116166E-01
   C  0.134144440E+01 -0.255765117E-02  0.190196015E-01
   H -0.776439752E+01 -0.642523176E+00 -0.576776426E+00
   H  0.774598230E+01  0.659387626E+00 -0.394889371E+00
     4
 # iter = 29000  time[fs]=29.00000
   C -0.145492609E+01 -0.517032951E-01  0.705413697E-01
   C  0.139978240E+01 -0.370856080E-02  0.212054768E-01
   H -0.812591436E+01 -0.672320485E+00 -0.603262220E+00
   H  0.809538648E+01  0.689768053E+00 -0.411146711E+00
     4
 # iter = 29500  time[fs]=29.50000
   C -0.151957564E+01 -0.524011389E-01  0.743129588E-01
   C  0.145965617E+01 -0.484360151E-02  0.233794911E-01
   H -0.848987185E+01 -0.702321024E+00 -0.629947745E+00
   H  0.844756560E+01  0.720416367E+00 -0.427564019E+00
     4
 # iter = 30000  time[fs]=30.00000
   C -0.158566113E+01 -0.531172328E-01  0.781226563E-01
   C  0.152093995E+01 -0.596538238E-02  0.255428830E-01
   H -0.885606547E+01 -0.732507930E+00 -0.656816389E+00
   H  0.880229200E+01  0.751310930E+00 -0.444128040E+00
     4
 # iter = 30500  time[fs]=30.50000
   C -0.165306739E+01 -0.538490223E-01  0.819671643E-01
   C  0.158352032E+01 -0.707610121E-02  0.276967516E-01
   H -0.922431444E+01 -0.762866291E+00 -0.683853481E+00
   H  0.915936393E+01  0.782432551E+00 -0.460827061E+00
     4
 # iter = 31000  time[fs]=31.00000
   C -0.172169049E+01 -0.545943341E-01  0.858435570E-01
   C  0.164729495E+01 -0.817761035E-02  0.298420715E-01
   H -0.959445836E+01 -0.793382871E+00 -0.711046004E+00
   H  0.951860185E+01  0.813764142E+00 -0.477650682E+00
     4
 # iter = 31500  time[fs]=31.50000
   C -0.179143664E+01 -0.553513163E-01  0.897492322E-01
   C  0.171217149E+01 -0.927147237E-02  0.319797058E-01
   H -0.996635427E+01 -0.824045866E+00 -0.738382360E+00
   H  0.987984538E+01  0.845290429E+00 -0.494589633E+00
     4
 # iter = 32000  time[fs]=32.00000
   C -0.186222110E+01 -0.561183874E-01  0.936818694E-01
   C  0.177806652E+01 -0.103590068E-01  0.341104196E-01
   H -0.103398743E+02 -0.854844716E+00 -0.765852179E+00
   H  0.102429507E+02  0.876997705E+00 -0.511635618E+00
     4
 # iter = 32500  time[fs]=32.50000
   C -0.193396722E+01 -0.568941937E-01  0.976393932E-01
   C  0.184490462E+01 -0.114413294E-01  0.362348911E-01
   H -0.107149037E+02 -0.885769935E+00 -0.793446146E+00
   H  0.106077886E+02  0.908873630E+00 -0.528781188E+00
     4
 # iter = 33000  time[fs]=33.00000
   C -0.200660562E+01 -0.576775743E-01  0.101619943E+00
   C  0.191261752E+01 -0.125193846E-01  0.383537225E-01
   H -0.110913391E+02 -0.916812974E+00 -0.821155873E+00
   H  0.109742424E+02  0.940907059E+00 -0.546019626E+00
     4
 # iter = 33500  time[fs]=33.50000
   C -0.208007338E+01 -0.584675311E-01  0.105621845E+00
   C  0.198114331E+01 -0.135939729E-01  0.404674488E-01
   H -0.114690872E+02 -0.947966105E+00 -0.848973776E+00
   H  0.113422063E+02  0.973087891E+00 -0.563344861E+00
     4
 # iter = 34000  time[fs]=34.00000
   C -0.215431333E+01 -0.592632037E-01  0.109643593E+00
   C  0.205042577E+01 -0.146657738E-01  0.425765461E-01
   H -0.118480632E+02 -0.979222321E+00 -0.876892980E+00
   H  0.117115846E+02  0.100540695E+01 -0.580751387E+00
     4
 # iter = 34500  time[fs]=34.50000
   C -0.222927349E+01 -0.600638491E-01  0.113683823E+00
   C  0.212041377E+01 -0.157353644E-01  0.446814386E-01
   H -0.122281904E+02 -0.101057525E+01 -0.904907235E+00
   H  0.120822899E+02  0.103785587E+01 -0.598234196E+00
     4
 # iter = 35000  time[fs]=35.00000
   C -0.230490649E+01 -0.608688240E-01  0.117741301E+00
   C  0.219106075E+01 -0.168032358E-01  0.467825053E-01
   H -0.126093985E+02 -0.104201908E+01 -0.933010839E+00
   H  0.124542426E+02  0.107042701E+01 -0.615788718E+00
     4
 # iter = 35500  time[fs]=35.50000
   C -0.238116908E+01 -0.616775699E-01  0.121814905E+00
   C  0.226232420E+01 -0.178698058E-01  0.488800850E-01
   H -0.129916237E+02 -0.107354849E+01 -0.961198583E+00
   H  0.128273698E+02  0.110311338E+01 -0.633410777E+00
     4
 # iter = 36000  time[fs]=36.00000
   C -0.245802174E+01 -0.624896014E-01  0.125903616E+00
   C  0.233416526E+01 -0.189354303E-01  0.509744810E-01
   H -0.133748073E+02 -0.110515863E+01 -0.989465692E+00
   H  0.132016047E+02  0.113590855E+01 -0.651096545E+00
     4
 # iter = 36500  time[fs]=36.50000
   C -0.253542825E+01 -0.633044954E-01  0.130006503E+00
   C  0.240654837E+01 -0.200004125E-01  0.530659657E-01
   H -0.137588955E+02 -0.113684501E+01 -0.101780778E+01
   H  0.135768860E+02  0.116880661E+01 -0.668842504E+00
     4
 # iter = 37000  time[fs]=37.00000
   C -0.261335539E+01 -0.641218821E-01  0.134122713E+00
   C  0.247944090E+01 -0.210650109E-01  0.551547840E-01
   H -0.141438387E+02 -0.116860353E+01 -0.104622081E+01
   H  0.139531570E+02  0.120180210E+01 -0.686645416E+00
     4
 # iter = 37500  time[fs]=37.50000
   C -0.269177265E+01 -0.649414383E-01  0.138251468E+00
   C  0.255281286E+01 -0.221294458E-01  0.572411564E-01
   H -0.145295914E+02 -0.120043038E+01 -0.107470105E+01
   H  0.143303656E+02  0.123489001E+01 -0.704502291E+00
     4
 # iter = 38000  time[fs]=38.00000
   C -0.277065193E+01 -0.657628804E-01  0.142392051E+00
   C  0.262663667E+01 -0.231939048E-01  0.593252818E-01
   H -0.149161115E+02 -0.123232205E+01 -0.110324507E+01
   H  0.147084634E+02  0.126806566E+01 -0.722410367E+00
     4
 # iter = 38500  time[fs]=38.50000
   C -0.284996732E+01 -0.665859594E-01  0.146543803E+00
   C  0.270088691E+01 -0.242585476E-01  0.614073401E-01
   H -0.153033598E+02 -0.126427530E+01 -0.113184967E+01
   H  0.150874059E+02  0.130132473E+01 -0.740367085E+00
     4
 # iter = 39000  time[fs]=39.00000
   C -0.292969490E+01 -0.674104562E-01  0.150706118E+00
   C  0.277554009E+01 -0.253235100E-01  0.634874939E-01
   H -0.156913003E+02 -0.129628711E+01 -0.116051190E+01
   H  0.154671515E+02  0.133466321E+01 -0.758370070E+00
     4
 # iter = 39500  time[fs]=39.50000
   C -0.300981255E+01 -0.682361778E-01  0.154878433E+00
   C  0.285057451E+01 -0.263889071E-01  0.655658909E-01
   H -0.160798994E+02 -0.132835468E+01 -0.118922900E+01
   H  0.158476616E+02  0.136807735E+01 -0.776417114E+00
     4
 # iter = 40000  time[fs]=40.00000
   C -0.309029978E+01 -0.690629539E-01  0.159060232E+00
   C  0.292597007E+01 -0.274548365E-01  0.676426651E-01
   H -0.164691258E+02 -0.136047539E+01 -0.121799842E+01
   H  0.162289003E+02  0.140156369E+01 -0.794506161E+00
     4
 # iter = 40500  time[fs]=40.50000
   C -0.317113758E+01 -0.698906339E-01  0.163251032E+00
   C  0.300170812E+01 -0.285213805E-01  0.697179385E-01
   H -0.168589505E+02 -0.139264681E+01 -0.124681776E+01
   H  0.166108342E+02  0.143511897E+01 -0.812635295E+00
     4
 # iter = 41000  time[fs]=41.00000
   C -0.325230829E+01 -0.707190847E-01  0.167450388E+00
   C  0.307777136E+01 -0.295886083E-01  0.717918222E-01
   H -0.172493462E+02 -0.142486668E+01 -0.127568480E+01
   H  0.169934320E+02  0.146874014E+01 -0.830802724E+00
     4
 # iter = 41500  time[fs]=41.50000
   C -0.333379550E+01 -0.715481881E-01  0.171657886E+00
   C  0.315414367E+01 -0.306565780E-01  0.738644176E-01
   H -0.176402876E+02 -0.145713287E+01 -0.130459746E+01
   H  0.173766644E+02  0.150242436E+01 -0.849006775E+00
     4
 # iter = 42000  time[fs]=42.00000
   C -0.341558389E+01 -0.723778397E-01  0.175873138E+00
   C  0.323081005E+01 -0.317253375E-01  0.759358173E-01
   H -0.180317509E+02 -0.148944339E+01 -0.133355377E+01
   H  0.177605040E+02  0.153616898E+01 -0.867245877E+00
     4
 # iter = 42500  time[fs]=42.50000
   C -0.349765920E+01 -0.732079465E-01  0.180095785E+00
   C  0.330775653E+01 -0.327949266E-01  0.780061062E-01
   H -0.184237139E+02 -0.152179637E+01 -0.136255191E+01
   H  0.181449252E+02  0.156997147E+01 -0.885518561E+00
     4
 # iter = 43000  time[fs]=43.00000
   C -0.358000809E+01 -0.740384258E-01  0.184325491E+00
   C  0.338497004E+01 -0.338653777E-01  0.800753621E-01
   H -0.188161557E+02 -0.155419007E+01 -0.139159016E+01
   H  0.185299039E+02  0.160382949E+01 -0.903823443E+00
     4
 # iter = 43500  time[fs]=43.50000
   C -0.366261811E+01 -0.748692045E-01  0.188561941E+00
   C  0.346243837E+01 -0.349367170E-01  0.821436561E-01
   H -0.192090565E+02 -0.158662282E+01 -0.142066690E+01
   H  0.189154173E+02  0.163774082E+01 -0.922159225E+00
     4
 # iter = 44000  time[fs]=44.00000
   C -0.374547757E+01 -0.757002170E-01  0.192804841E+00
   C  0.354015009E+01 -0.360089650E-01  0.842110539E-01
   H -0.196023981E+02 -0.161909310E+01 -0.144978061E+01
   H  0.193014441E+02  0.167170338E+01 -0.940524683E+00
     4
 # iter = 44500  time[fs]=44.50000
   C -0.382857555E+01 -0.765314054E-01  0.197053915E+00
   C  0.361809448E+01 -0.370821376E-01  0.862776158E-01
   H -0.199961630E+02 -0.165159943E+01 -0.147892985E+01
   H  0.196879643E+02  0.170571521E+01 -0.958918665E+00
     4
 # iter = 45000  time[fs]=45.00000
   C -0.391190177E+01 -0.773627178E-01  0.201308904E+00
   C  0.369626149E+01 -0.381562466E-01  0.883433974E-01
   H -0.203903347E+02 -0.168414044E+01 -0.150811327E+01
   H  0.200749588E+02  0.173977443E+01 -0.977340083E+00
     4
 # iter = 45500  time[fs]=45.50000
   C -0.399544659E+01 -0.781941081E-01  0.205569564E+00
   C  0.377464169E+01 -0.392313003E-01  0.904084499E-01
   H -0.207848979E+02 -0.171671482E+01 -0.153732959E+01
   H  0.204624098E+02  0.177387930E+01 -0.995787909E+00
     4
 # iter = 46000  time[fs]=46.00000
   C -0.407920095E+01 -0.790255351E-01  0.209835667E+00
   C  0.385322619E+01 -0.403073039E-01  0.924728206E-01
   H -0.211798379E+02 -0.174932135E+01 -0.156657760E+01
   H  0.208503002E+02  0.180802816E+01 -0.101426117E+01
     4
 # iter = 46500  time[fs]=46.50000
   C -0.416315629E+01 -0.798569624E-01  0.214106996E+00
   C  0.393200664E+01 -0.413842599E-01  0.945365533E-01
   H -0.215751408E+02 -0.178195886E+01 -0.159585616E+01
   H  0.212386142E+02  0.184221943E+01 -0.103275895E+01
     4
 # iter = 47000  time[fs]=47.00000
   C -0.424730457E+01 -0.806883571E-01  0.218383349E+00
   C  0.401097516E+01 -0.424621685E-01  0.965996885E-01
   H -0.219707936E+02 -0.181462625E+01 -0.162516418E+01
   H  0.216273364E+02  0.187645162E+01 -0.105128038E+01
     4
 # iter = 47500  time[fs]=47.50000
   C -0.433163820E+01 -0.815196904E-01  0.222664533E+00
   C  0.409012432E+01 -0.435410280E-01  0.986622637E-01
   H -0.223667839E+02 -0.184732248E+01 -0.165450064E+01
   H  0.220164526E+02  0.191072332E+01 -0.106982463E+01
     4
 # iter = 48000  time[fs]=48.00000
   C -0.441615000E+01 -0.823509364E-01  0.226950367E+00
   C  0.416944712E+01 -0.446208351E-01  0.100724314E+00
   H -0.227631000E+02 -0.188004654E+01 -0.168386455E+01
   H  0.224059490E+02  0.194503318E+01 -0.108839091E+01
     4
 # iter = 48500  time[fs]=48.50000
   C -0.450083321E+01 -0.831820719E-01  0.231240679E+00
   C  0.424893691E+01 -0.457015848E-01  0.102785871E+00
   H -0.231597306E+02 -0.191279751E+01 -0.171325501E+01
   H  0.227958128E+02  0.197937993E+01 -0.110697849E+01
     4
 # iter = 49000  time[fs]=49.00000
   C -0.458568140E+01 -0.840130767E-01  0.235535308E+00
   C  0.432858745E+01 -0.467832711E-01  0.104846965E+00
   H -0.235566651E+02 -0.194557448E+01 -0.174267111E+01
   H  0.231860316E+02  0.201376235E+01 -0.112558665E+01
     4
 # iter = 49500  time[fs]=49.50000
   C -0.467068852E+01 -0.848439325E-01  0.239834098E+00
   C  0.440839278E+01 -0.478658867E-01  0.106907625E+00
   H -0.239538935E+02 -0.197837660E+01 -0.177211203E+01
   H  0.235765936E+02  0.204817929E+01 -0.114421472E+01
     4
 # iter = 50000  time[fs]=50.00000
   C -0.475584880E+01 -0.856746233E-01  0.244136904E+00
   C  0.448834728E+01 -0.489494235E-01  0.108967876E+00
   H -0.243514061E+02 -0.201120306E+01 -0.180157696E+01
   H  0.239674878E+02  0.208262964E+01 -0.116286206E+01
     4
 # iter = 50500  time[fs]=50.50000
   C -0.484115679E+01 -0.865051347E-01  0.248443588E+00
   C  0.456844564E+01 -0.500338729E-01  0.111027742E+00
   H -0.247491938E+02 -0.204405309E+01 -0.183106516E+01
   H  0.243587034E+02  0.211711236E+01 -0.118152806E+01
     4
 # iter = 51000  time[fs]=51.00000
   C -0.492660730E+01 -0.873354543E-01  0.252754018E+00
   C  0.464868277E+01 -0.511192251E-01  0.113087246E+00
   H -0.251472480E+02 -0.207692595E+01 -0.186057588E+01
   H  0.247502305E+02  0.215162644E+01 -0.120021213E+01
     4
 # iter = 51500  time[fs]=51.50000
   C -0.501219543E+01 -0.881655710E-01  0.257068068E+00
   C  0.472905388E+01 -0.522054703E-01  0.115146409E+00
   H -0.255455602E+02 -0.210982094E+01 -0.189010844E+01
   H  0.251420592E+02  0.218617093E+01 -0.121891373E+01
     4
 # iter = 52000  time[fs]=52.00000
   C -0.509791649E+01 -0.889954751E-01  0.261385620E+00
   C  0.480955439E+01 -0.532925981E-01  0.117205251E+00
   H -0.259441226E+02 -0.214273738E+01 -0.191966218E+01
   H  0.255341804E+02  0.222074492E+01 -0.123763231E+01
     4
 # iter = 52500  time[fs]=52.50000
   C -0.518376603E+01 -0.898251579E-01  0.265706561E+00
   C  0.489017996E+01 -0.543805975E-01  0.119263790E+00
   H -0.263429276E+02 -0.217567464E+01 -0.194923647E+01
   H  0.259265853E+02  0.225534752E+01 -0.125636737E+01
     4
 # iter = 53000  time[fs]=53.00000
   C -0.526973981E+01 -0.906546122E-01  0.270030782E+00
   C  0.497092645E+01 -0.554694576E-01  0.121322044E+00
   H -0.267419678E+02 -0.220863209E+01 -0.197883070E+01
   H  0.263192654E+02  0.228997791E+01 -0.127511843E+01
     4
 # iter = 53500  time[fs]=53.50000
   C -0.535583380E+01 -0.914838315E-01  0.274358180E+00
   C  0.505178992E+01 -0.565591669E-01  0.123380028E+00
   H -0.271412365E+02 -0.224160916E+01 -0.200844429E+01
   H  0.267122126E+02  0.232463528E+01 -0.129388502E+01
     4
 # iter = 54000  time[fs]=54.00000
   C -0.544204415E+01 -0.923128102E-01  0.278688656E+00
   C  0.513276660E+01 -0.576497142E-01  0.125437759E+00
   H -0.275407270E+02 -0.227460528E+01 -0.203807670E+01
   H  0.271054193E+02  0.235931888E+01 -0.131266669E+01
     4
 # iter = 54500  time[fs]=54.50000
   C -0.552836718E+01 -0.931415436E-01  0.283022118E+00
   C  0.521385292E+01 -0.587410878E-01  0.127495249E+00
   H -0.279404330E+02 -0.230761991E+01 -0.206772738E+01
   H  0.274988781E+02  0.239402795E+01 -0.133146303E+01
     4
 # iter = 55000  time[fs]=55.00000
   C -0.561479939E+01 -0.939700277E-01  0.287358475E+00
   C  0.529504545E+01 -0.598332759E-01  0.129552513E+00
   H -0.283403482E+02 -0.234065254E+01 -0.209739584E+01
   H  0.278925818E+02  0.242876181E+01 -0.135027361E+01
     4
 # iter = 55500  time[fs]=55.50000
   C -0.570133742E+01 -0.947982591E-01  0.291697642E+00
   C  0.537634092E+01 -0.609262671E-01  0.131609563E+00
   H -0.287404671E+02 -0.237370267E+01 -0.212708159E+01
   H  0.282865237E+02  0.246351977E+01 -0.136909806E+01
     4
 # iter = 56000  time[fs]=56.00000
   C -0.578797808E+01 -0.956262351E-01  0.296039536E+00
   C  0.545773620E+01 -0.620200495E-01  0.133666410E+00
   H -0.291407838E+02 -0.240676983E+01 -0.215678415E+01
   H  0.286806972E+02  0.249830119E+01 -0.138793598E+01
     4
 # iter = 56500  time[fs]=56.50000
   C -0.587471830E+01 -0.964539535E-01  0.300384078E+00
   C  0.553922831E+01 -0.631146115E-01  0.135723067E+00
   H -0.295412931E+02 -0.243985356E+01 -0.218650308E+01
   H  0.290750962E+02  0.253310544E+01 -0.140678704E+01
     4
 # iter = 57000  time[fs]=57.00000
   C -0.596155515E+01 -0.972814124E-01  0.304731195E+00
   C  0.562081438E+01 -0.642099414E-01  0.137779542E+00
   H -0.299419899E+02 -0.247295341E+01 -0.221623794E+01
   H  0.294697145E+02  0.256793192E+01 -0.142565086E+01
     4
 # iter = 57500  time[fs]=57.50000
   C -0.604848583E+01 -0.981086106E-01  0.309080812E+00
   C  0.570249168E+01 -0.653060278E-01  0.139835847E+00
   H -0.303428691E+02 -0.250606898E+01 -0.224598833E+01
   H  0.298645465E+02  0.260278007E+01 -0.144452713E+01
     4
 # iter = 58000  time[fs]=58.00000
   C -0.613550764E+01 -0.989355471E-01  0.313432862E+00
   C  0.578425759E+01 -0.664028591E-01  0.141891989E+00
   H -0.307439260E+02 -0.253919986E+01 -0.227575384E+01
   H  0.302595865E+02  0.263764931E+01 -0.146341553E+01
     4
 # iter = 58500  time[fs]=58.50000
   C -0.622261800E+01 -0.997622214E-01  0.317787277E+00
   C  0.586610959E+01 -0.675004239E-01  0.143947979E+00
   H -0.311451560E+02 -0.257234565E+01 -0.230553409E+01
   H  0.306548292E+02  0.267253914E+01 -0.148231573E+01
     4
 # iter = 59000  time[fs]=59.00000
   C -0.630981445E+01 -0.100588633E+00  0.322143994E+00
   C  0.594804527E+01 -0.685987111E-01  0.146003824E+00
   H -0.315465548E+02 -0.260550598E+01 -0.233532870E+01
   H  0.310502695E+02  0.270744902E+01 -0.150122746E+01
     4
 # iter = 59500  time[fs]=59.50000
   C -0.639709461E+01 -0.101414783E+00  0.326502952E+00
   C  0.603006231E+01 -0.696977094E-01  0.148059532E+00
   H -0.319481180E+02 -0.263868049E+01 -0.236513733E+01
   H  0.314459025E+02  0.274237846E+01 -0.152015041E+01
     4
 # iter = 60000  time[fs]=60.00000
   C -0.648445620E+01 -0.102240670E+00  0.330864092E+00
   C  0.611215849E+01 -0.707974079E-01  0.150115110E+00
   H -0.323498417E+02 -0.267186884E+01 -0.239495963E+01
   H  0.318417233E+02  0.277732699E+01 -0.153908432E+01
     4
 # iter = 60500  time[fs]=60.50000
   C -0.657189703E+01 -0.103066296E+00  0.335227357E+00
   C  0.619433168E+01 -0.718977956E-01  0.152170565E+00
   H -0.327517218E+02 -0.270507068E+01 -0.242479527E+01
   H  0.322377274E+02  0.281229415E+01 -0.155802892E+01
     4
 # iter = 61000  time[fs]=61.00000
   C -0.665941499E+01 -0.103891660E+00  0.339592693E+00
   C  0.627657982E+01 -0.729988620E-01  0.154225905E+00
   H -0.331537546E+02 -0.273828569E+01 -0.245464393E+01
   H  0.326339103E+02  0.284727950E+01 -0.157698395E+01
     4
 # iter = 61500  time[fs]=61.50000
   C -0.674700807E+01 -0.104716765E+00  0.343960047E+00
   C  0.635890095E+01 -0.741005965E-01  0.156281133E+00
   H -0.335559364E+02 -0.277151357E+01 -0.248450530E+01
   H  0.330302678E+02  0.288228261E+01 -0.159594917E+01
     4
 # iter = 62000  time[fs]=62.00000
   C -0.683467431E+01 -0.105541611E+00  0.348329369E+00
   C  0.644129316E+01 -0.752029885E-01  0.158336258E+00
   H -0.339582637E+02 -0.280475400E+01 -0.251437909E+01
   H  0.334267958E+02  0.291730306E+01 -0.161492433E+01
     4
 # iter = 62500  time[fs]=62.50000
   C -0.692241185E+01 -0.106366199E+00  0.352700611E+00
   C  0.652375463E+01 -0.763060280E-01  0.160391284E+00
   H -0.343607331E+02 -0.283800670E+01 -0.254426501E+01
   H  0.338234902E+02  0.295234045E+01 -0.163390922E+01
     4
 # iter = 63000  time[fs]=63.00000
   C -0.701021887E+01 -0.107190531E+00  0.357073725E+00
   C  0.660628361E+01 -0.774097048E-01  0.162446217E+00
   H -0.347633413E+02 -0.287127140E+01 -0.257416278E+01
   H  0.342203472E+02  0.298739441E+01 -0.165290360E+01
     4
 # iter = 63500  time[fs]=63.50000
   C -0.709809364E+01 -0.108014609E+00  0.361448666E+00
   C  0.668887840E+01 -0.785140090E-01  0.164501061E+00
   H -0.351660851E+02 -0.290454780E+01 -0.260407213E+01
   H  0.346173631E+02  0.302246456E+01 -0.167190726E+01
     4
 # iter = 64000  time[fs]=64.00000
   C -0.718603449E+01 -0.108838433E+00  0.365825391E+00
   C  0.677153736E+01 -0.796189309E-01  0.166555821E+00
   H -0.355689615E+02 -0.293783567E+01 -0.263399282E+01
   H  0.350145344E+02  0.305755054E+01 -0.169091999E+01
     4
 # iter = 64500  time[fs]=64.50000
   C -0.727403980E+01 -0.109662006E+00  0.370203857E+00
   C  0.685425892E+01 -0.807244608E-01  0.168610502E+00
   H -0.359719674E+02 -0.297113473E+01 -0.266392457E+01
   H  0.354118575E+02  0.309265199E+01 -0.170994159E+01
     4
 # iter = 65000  time[fs]=65.00000
   C -0.736210801E+01 -0.110485329E+00  0.374584025E+00
   C  0.693704157E+01 -0.818305895E-01  0.170665107E+00
   H -0.363751000E+02 -0.300444475E+01 -0.269386716E+01
   H  0.358093291E+02  0.312776859E+01 -0.172897187E+01
     4
 # iter = 65500  time[fs]=65.50000
   C -0.745023762E+01 -0.111308404E+00  0.378965854E+00
   C  0.701988385E+01 -0.829373075E-01  0.172719642E+00
   H -0.367783566E+02 -0.303776549E+01 -0.272382035E+01
   H  0.362069460E+02  0.316290001E+01 -0.174801064E+01
     4
 # iter = 66000  time[fs]=66.00000
   C -0.753842718E+01 -0.112131234E+00  0.383349307E+00
   C  0.710278433E+01 -0.840446060E-01  0.174774109E+00
   H -0.371817344E+02 -0.307109671E+01 -0.275378392E+01
   H  0.366047050E+02  0.319804593E+01 -0.176705772E+01
     4
 # iter = 66500  time[fs]=66.50000
   C -0.762667528E+01 -0.112953819E+00  0.387734348E+00
   C  0.718574166E+01 -0.851524758E-01  0.176828513E+00
   H -0.375852309E+02 -0.310443820E+01 -0.278375763E+01
   H  0.370026030E+02  0.323320605E+01 -0.178611293E+01
     4
 # iter = 67000  time[fs]=67.00000
   C -0.771498058E+01 -0.113776163E+00  0.392120940E+00
   C  0.726875452E+01 -0.862609083E-01  0.178882857E+00
   H -0.379888434E+02 -0.313778974E+01 -0.281374129E+01
   H  0.374006372E+02  0.326838006E+01 -0.180517610E+01
     4
 # iter = 67500  time[fs]=67.50000
   C -0.780334177E+01 -0.114598267E+00  0.396509051E+00
   C  0.735182163E+01 -0.873698949E-01  0.180937143E+00
   H -0.383925697E+02 -0.317115112E+01 -0.284373468E+01
   H  0.377988046E+02  0.330356769E+01 -0.182424706E+01
     4
 # iter = 68000  time[fs]=68.00000
   C -0.789175757E+01 -0.115420133E+00  0.400898645E+00
   C  0.743494176E+01 -0.884794272E-01  0.182991376E+00
   H -0.387964073E+02 -0.320452214E+01 -0.287373760E+01
   H  0.381971026E+02  0.333876865E+01 -0.184332566E+01
     4
 # iter = 68500  time[fs]=68.50000
   C -0.798022678E+01 -0.116241764E+00  0.405289692E+00
   C  0.751811373E+01 -0.895894968E-01  0.185045558E+00
   H -0.392003539E+02 -0.323790260E+01 -0.290374987E+01
   H  0.385955283E+02  0.337398268E+01 -0.186241173E+01
     4
 # iter = 69000  time[fs]=69.00000
   C -0.806874820E+01 -0.117063161E+00  0.409682161E+00
   C  0.760133637E+01 -0.907000957E-01  0.187099692E+00
   H -0.396044073E+02 -0.327129232E+01 -0.293377129E+01
   H  0.389940793E+02  0.340920951E+01 -0.188150513E+01
     4
 # iter = 69500  time[fs]=69.50000
   C -0.815732069E+01 -0.117884328E+00  0.414076021E+00
   C  0.768460858E+01 -0.918112159E-01  0.189153780E+00
   H -0.400085654E+02 -0.330469110E+01 -0.296380168E+01
   H  0.393927530E+02  0.344444888E+01 -0.190060572E+01
     4
 # iter = 70000  time[fs]=70.00000
   C -0.824594314E+01 -0.118705265E+00  0.418471243E+00
   C  0.776792928E+01 -0.929228496E-01  0.191207825E+00
   H -0.404128260E+02 -0.333809876E+01 -0.299384086E+01
   H  0.397915469E+02  0.347970056E+01 -0.191971334E+01
     4
 # iter = 70500  time[fs]=70.50000
   C -0.833461448E+01 -0.119525975E+00  0.422867799E+00
   C  0.785129743E+01 -0.940349891E-01  0.193261830E+00
   H -0.408171871E+02 -0.337151514E+01 -0.302388866E+01
   H  0.401904587E+02  0.351496430E+01 -0.193882786E+01
     4
 # iter = 71000  time[fs]=71.00000
   C -0.842333367E+01 -0.120346461E+00  0.427265662E+00
   C  0.793471200E+01 -0.951476269E-01  0.195315797E+00
   H -0.412216468E+02 -0.340494007E+01 -0.305394492E+01
   H  0.405894860E+02  0.355023986E+01 -0.195794915E+01
     4
 # iter = 71500  time[fs]=71.50000
   C -0.851209970E+01 -0.121166724E+00  0.431664804E+00
   C  0.801817203E+01 -0.962607557E-01  0.197369728E+00
   H -0.416262032E+02 -0.343837337E+01 -0.308400947E+01
   H  0.409886267E+02  0.358552703E+01 -0.197707708E+01
     4
 # iter = 72000  time[fs]=72.00000
   C -0.860091159E+01 -0.121986767E+00  0.436065201E+00
   C  0.810167656E+01 -0.973743681E-01  0.199423625E+00
   H -0.420308543E+02 -0.347181489E+01 -0.311408215E+01
   H  0.413878785E+02  0.362082558E+01 -0.199621152E+01
     4
 # iter = 72500  time[fs]=72.50000
   C -0.868976841E+01 -0.122806592E+00  0.440466828E+00
   C  0.818522466E+01 -0.984884572E-01  0.201477491E+00
   H -0.424355984E+02 -0.350526448E+01 -0.314416282E+01
   H  0.417872393E+02  0.365613530E+01 -0.201535234E+01
     4
 # iter = 73000  time[fs]=73.00000
   C -0.877866922E+01 -0.123626202E+00  0.444869659E+00
   C  0.826881546E+01 -0.996030159E-01  0.203531326E+00
   H -0.428404338E+02 -0.353872199E+01 -0.317425131E+01
   H  0.421867072E+02  0.369145599E+01 -0.203449944E+01
     4
 # iter = 73500  time[fs]=73.50000
   C -0.886761314E+01 -0.124445598E+00  0.449273672E+00
   C  0.835244807E+01 -0.100718037E+00  0.205585133E+00
   H -0.432453586E+02 -0.357218726E+01 -0.320434750E+01
   H  0.425862800E+02  0.372678743E+01 -0.205365268E+01
     4
 # iter = 74000  time[fs]=74.00000
   C -0.895659931E+01 -0.125264783E+00  0.453678843E+00
   C  0.843612167E+01 -0.101833515E+00  0.207638914E+00
   H -0.436503713E+02 -0.360566016E+01 -0.323445123E+01
   H  0.429859558E+02  0.376212943E+01 -0.207281197E+01
     4
 # iter = 74500  time[fs]=74.50000
   C -0.904562688E+01 -0.126083758E+00  0.458085151E+00
   C  0.851983542E+01 -0.102949442E+00  0.209692670E+00
   H -0.440554703E+02 -0.363914054E+01 -0.326456238E+01
   H  0.433857328E+02  0.379748181E+01 -0.209197718E+01
     4
 # iter = 75000  time[fs]=75.00000
   C -0.913469504E+01 -0.126902527E+00  0.462492573E+00
   C  0.860358855E+01 -0.104065813E+00  0.211746403E+00
   H -0.444606539E+02 -0.367262827E+01 -0.329468080E+01
   H  0.437856091E+02  0.383284437E+01 -0.211114822E+01
     4
 # iter = 75500  time[fs]=75.50000
   C -0.922380300E+01 -0.127721090E+00  0.466901089E+00
   C  0.868738028E+01 -0.105182620E+00  0.213800114E+00
   H -0.448659206E+02 -0.370612323E+01 -0.332480637E+01
   H  0.441855829E+02  0.386821694E+01 -0.213032497E+01
     4
 # iter = 76000  time[fs]=76.00000
   C -0.931294999E+01 -0.128539451E+00  0.471310679E+00
   C  0.877120986E+01 -0.106299858E+00  0.215853805E+00
   H -0.452712690E+02 -0.373962528E+01 -0.335493895E+01
   H  0.445856525E+02  0.390359933E+01 -0.214950734E+01
     4
 # iter = 76500  time[fs]=76.50000
   C -0.940213526E+01 -0.129357612E+00  0.475721322E+00
   C  0.885507657E+01 -0.107417520E+00  0.217907477E+00
   H -0.456766977E+02 -0.377313429E+01 -0.338507844E+01
   H  0.449858162E+02  0.393899138E+01 -0.216869523E+01
     4
 # iter = 77000  time[fs]=77.00000
   C -0.949135808E+01 -0.130175574E+00  0.480133000E+00
   C  0.893897969E+01 -0.108535601E+00  0.219961132E+00
   H -0.460822051E+02 -0.380665015E+01 -0.341522471E+01
   H  0.453860723E+02  0.397439292E+01 -0.218788855E+01
     4
 # iter = 77500  time[fs]=77.50000
   C -0.958061776E+01 -0.130993340E+00  0.484545693E+00
   C  0.902291856E+01 -0.109654095E+00  0.222014770E+00
   H -0.464877899E+02 -0.384017274E+01 -0.344537763E+01
   H  0.457864192E+02  0.400980379E+01 -0.220708719E+01
     4
 # iter = 78000  time[fs]=78.00000
   C -0.966991360E+01 -0.131810912E+00  0.488959383E+00
   C  0.910689248E+01 -0.110772996E+00  0.224068393E+00
   H -0.468934509E+02 -0.387370195E+01 -0.347553711E+01
   H  0.461868554E+02  0.404522382E+01 -0.222629106E+01
     4
 # iter = 78500  time[fs]=78.50000
   C -0.975924494E+01 -0.132628292E+00  0.493374052E+00
   C  0.919090083E+01 -0.111892298E+00  0.226122002E+00
   H -0.472991866E+02 -0.390723765E+01 -0.350570302E+01
   H  0.465873793E+02  0.408065287E+01 -0.224550009E+01
     4
 # iter = 79000  time[fs]=79.00000
   C -0.984861112E+01 -0.133445481E+00  0.497789683E+00
   C  0.927494296E+01 -0.113011996E+00  0.228175598E+00
   H -0.477049958E+02 -0.394077975E+01 -0.353587525E+01
   H  0.469879894E+02  0.411609078E+01 -0.226471417E+01
     4
 # iter = 79500  time[fs]=79.50000
   C -0.993801151E+01 -0.134262483E+00  0.502206260E+00
   C  0.935901826E+01 -0.114132085E+00  0.230229183E+00
   H -0.481108773E+02 -0.397432813E+01 -0.356605371E+01
   H  0.473886843E+02  0.415153740E+01 -0.228393324E+01
     4
 # iter = 80000  time[fs]=80.00000
   C -0.100274455E+02 -0.135079298E+00  0.506623765E+00
   C  0.944312613E+01 -0.115252558E+00  0.232282756E+00
   H -0.485168299E+02 -0.400788269E+01 -0.359623830E+01
   H  0.477894626E+02  0.418699259E+01 -0.230315719E+01
