     4
 # iter = 25000  time[fs]=25.00000
   C -0.949290940E+00 -0.486390158E-01 -0.593574812E-01
   C  0.103097366E+01  0.245559031E-02 -0.215764545E-02
   H -0.523444284E+01  0.445575770E+00  0.516116436E+00
   H  0.535825899E+01  0.239657417E+00  0.151988566E-01
     4
 # iter = 25500  time[fs]=25.50000
   C -0.992143640E+00 -0.522985039E-01 -0.633486594E-01
   C  0.107500252E+01  0.171113815E-02 -0.189861814E-02
   H -0.556326411E+01  0.472814855E+00  0.548503179E+00
   H  0.568062769E+01  0.253808569E+00  0.152453130E-01
     4
 # iter = 26000  time[fs]=26.00000
   C -0.103790834E+01 -0.560694201E-01 -0.674626820E-01
   C  0.112188216E+01  0.101541745E-02 -0.156435936E-02
   H -0.589713776E+01  0.500522085E+00  0.581442603E+00
   H  0.600878338E+01  0.268243937E+00  0.153104412E-01
     4
 # iter = 26500  time[fs]=26.50000
   C -0.108634563E+01 -0.599422570E-01 -0.716903447E-01
   C  0.117137933E+01  0.365947372E-03 -0.115861272E-02
   H -0.623550279E+01  0.528644457E+00  0.614872246E+00
   H  0.634209110E+01  0.282932203E+00  0.153911800E-01
     4
 # iter = 27000  time[fs]=27.00000
   C -0.113723213E+01 -0.639083892E-01 -0.760231142E-01
   C  0.122327602E+01 -0.239946880E-03 -0.685305472E-03
   H -0.657788181E+01  0.557137201E+00  0.648739317E+00
   H  0.668000911E+01  0.297846729E+00  0.154850438E-01
     4
 # iter = 27500  time[fs]=27.50000
   C -0.119036154E+01 -0.679600005E-01 -0.804531000E-01
   C  0.127737061E+01 -0.805003515E-03 -0.148411488E-03
   H -0.692386592E+01  0.585962199E+00  0.682998851E+00
   H  0.702207241E+01  0.312964702E+00  0.155899986E-01
     4
 # iter = 28000  time[fs]=28.00000
   C -0.124554474E+01 -0.720900172E-01 -0.849730272E-01
   C  0.133347807E+01 -0.133193371E-02  0.448148566E-03
   H -0.727310282E+01  0.615086760E+00  0.717612275E+00
   H  0.736787957E+01  0.328266458E+00  0.157043680E-01
     4
 # iter = 28500  time[fs]=28.50000
   C -0.130260932E+01 -0.762920427E-01 -0.895762058E-01
   C  0.139142956E+01 -0.182336152E-02  0.110057662E-02
   H -0.762528714E+01  0.644482658E+00  0.752546277E+00
   H  0.771708213E+01  0.343734954E+00  0.158267607E-01
     4
 # iter = 29000  time[fs]=29.00000
   C -0.136139865E+01 -0.805602958E-01 -0.942564968E-01
   C  0.145107166E+01 -0.228178628E-02  0.180524268E-02
   H -0.798015285E+01  0.674125374E+00  0.787771910E+00
   H  0.806937602E+01  0.359355327E+00  0.159560154E-01
     4
 # iter = 29500  time[fs]=29.50000
   C -0.142177089E+01 -0.848895530E-01 -0.990082768E-01
   C  0.151226529E+01 -0.270956131E-02  0.255871205E-02
   H -0.833746695E+01  0.703993487E+00  0.823263883E+00
   H  0.842449464E+01  0.375114554E+00  0.160911570E-01
     4
 # iter = 30000  time[fs]=30.00000
   C -0.148359770E+01 -0.892750930E-01 -0.103826400E+00
   C  0.157488464E+01 -0.310888395E-02  0.335775913E-02
   H -0.869702440E+01  0.734068182E+00  0.858999977E+00
   H  0.878220310E+01  0.391001166E+00  0.162313624E-01
     4
 # iter = 30500  time[fs]=30.50000
   C -0.154676315E+01 -0.937126472E-01 -0.108706161E+00
   C  0.163881595E+01 -0.348179357E-02  0.419937160E-02
   H -0.905864399E+01  0.764332851E+00  0.894960579E+00
   H  0.914229359E+01  0.407005016E+00  0.163759338E-01
     4
 # iter = 31000  time[fs]=31.00000
   C -0.161116245E+01 -0.981983524E-01 -0.113643260E+00
   C  0.170395644E+01 -0.383017471E-02  0.508074785E-02
   H -0.942216486E+01  0.794772770E+00  0.931128295E+00
   H  0.950458146E+01  0.423117088E+00  0.165242765E-01
     4
 # iter = 31500  time[fs]=31.50000
   C -0.167670091E+01 -0.102728710E+00 -0.118633765E+00
   C  0.177021320E+01 -0.415576348E-02  0.599928999E-02
   H -0.978744367E+01  0.825374825E+00  0.967487637E+00
   H  0.986890203E+01  0.439329341E+00  0.166758819E-01
     4
 # iter = 32000  time[fs]=32.00000
   C -0.174329290E+01 -0.107300546E+00 -0.123674083E+00
   C  0.183750219E+01 -0.446015599E-02  0.695259408E-02
   H -0.101543522E+02  0.856127293E+00  0.100402476E+01
   H  0.102351079E+02  0.455634574E+00  0.168303134E-01
     4
 # iter = 32500  time[fs]=32.50000
   C -0.181086090E+01 -0.111910980E+00 -0.128760924E+00
   C  0.190574733E+01 -0.474481771E-02  0.793843873E-02
   H -0.105227753E+02  0.887019652E+00  0.104072722E+01
   H  0.106030665E+02  0.472026314E+00  0.169871946E-01
     4
 # iter = 33000  time[fs]=33.00000
   C -0.187933466E+01 -0.116557391E+00 -0.133891278E+00
   C  0.197487969E+01 -0.501109317E-02  0.895477293E-02
   H -0.108926092E+02  0.918042429E+00  0.107758384E+01
   H  0.109726586E+02  0.488498727E+00  0.171462002E-01
     4
 # iter = 33500  time[fs]=33.50000
   C -0.194865042E+01 -0.121237392E+00 -0.139062385E+00
   C  0.204483671E+01 -0.526021564E-02  0.999970376E-02
   H -0.112637605E+02  0.949187062E+00  0.111458449E+01
   H  0.113437762E+02  0.505046535E+00  0.173070477E-01
     4
 # iter = 34000  time[fs]=34.00000
   C -0.201875027E+01 -0.125948807E+00 -0.144271714E+00
   C  0.211556152E+01 -0.549331646E-02  0.110714843E-01
   H -0.116361440E+02  0.980445792E+00  0.115172002E+01
   H  0.117163214E+02  0.521664950E+00  0.174694919E-01
     4
 # iter = 34500  time[fs]=34.50000
   C -0.208958146E+01 -0.130689647E+00 -0.149516940E+00
   C  0.218700239E+01 -0.571143385E-02  0.121685019E-01
   H -0.120096827E+02  0.101181157E+01  0.118898208E+01
   H  0.120902053E+02  0.538349616E+00  0.176333187E-01
     4
 # iter = 35000  time[fs]=35.00000
   C -0.216109593E+01 -0.135458091E+00 -0.154795925E+00
   C  0.225911215E+01 -0.591552118E-02  0.132892673E-01
   H -0.123843063E+02  0.104327795E+01  0.122636308E+01
   H  0.124653467E+02  0.555096559E+00  0.177983408E-01
     4
 # iter = 35500  time[fs]=35.50000
   C -0.223324979E+01 -0.140252471E+00 -0.160106700E+00
   C  0.233184773E+01 -0.610645452E-02  0.144324045E-01
   H -0.127599505E+02  0.107483908E+01  0.126385607E+01
   H  0.128416715E+02  0.571902146E+00  0.179643944E-01
     4
 # iter = 36000  time[fs]=36.00000
   C -0.230600290E+01 -0.145071255E+00 -0.165447451E+00
   C  0.240516977E+01 -0.628503972E-02  0.155966407E-01
   H -0.131365565E+02  0.110648956E+01  0.130145469E+01
   H  0.132191116E+02  0.588763045E+00  0.181313353E-01
     4
 # iter = 36500  time[fs]=36.50000
   C -0.237931848E+01 -0.149913033E+00 -0.170816502E+00
   C  0.247904217E+01 -0.645201872E-02  0.167807981E-01
   H -0.135140703E+02  0.113822445E+01  0.133915311E+01
   H  0.135976048E+02  0.605676195E+00  0.182990370E-01
     4
 # iter = 37000  time[fs]=37.00000
   C -0.245316279E+01 -0.154776508E+00 -0.176212305E+00
   C  0.255343185E+01 -0.660807536E-02  0.179837855E-01
   H -0.138924422E+02  0.117003920E+01  0.137694593E+01
   H  0.139770937E+02  0.622638778E+00  0.184673877E-01
     4
 # iter = 37500  time[fs]=37.50000
   C -0.252750481E+01 -0.159660482E+00 -0.181633426E+00
   C  0.262830839E+01 -0.675384070E-02  0.192045910E-01
   H -0.142716265E+02  0.120192962E+01  0.141482821E+01
   H  0.143575251E+02  0.639648193E+00  0.186362888E-01
     4
 # iter = 38000  time[fs]=38.00000
   C -0.260231599E+01 -0.164563848E+00 -0.187078537E+00
   C  0.270364378E+01 -0.688989770E-02  0.204422752E-01
   H -0.146515808E+02  0.123389181E+01  0.145279535E+01
   H  0.147388503E+02  0.656702035E+00  0.188056532E-01
     4
 # iter = 38500  time[fs]=38.50000
   C -0.267757001E+01 -0.169485583E+00 -0.192546404E+00
   C  0.277941220E+01 -0.701678561E-02  0.216959653E-01
   H -0.150322661E+02  0.126592220E+01  0.149084311E+01
   H  0.151210240E+02  0.673798078E+00  0.189754037E-01
     4
 # iter = 39000  time[fs]=39.00000
   C -0.275324255E+01 -0.174424737E+00 -0.198035881E+00
   C  0.285558984E+01 -0.713500379E-02  0.229648492E-01
   H -0.154136459E+02  0.129801744E+01  0.152896755E+01
   H  0.155040040E+02  0.690934255E+00  0.191454719E-01
     4
 # iter = 39500  time[fs]=39.50000
   C -0.282931112E+01 -0.179380429E+00 -0.203545902E+00
   C  0.293215462E+01 -0.724501524E-02  0.242481707E-01
   H -0.157956867E+02  0.133017444E+01  0.156716500E+01
   H  0.158877515E+02  0.708108644E+00  0.193157970E-01
     4
 # iter = 40000  time[fs]=40.00000
   C -0.290575489E+01 -0.184351839E+00 -0.209075474E+00
   C  0.300908615E+01 -0.734724980E-02  0.255452245E-01
   H -0.161783570E+02  0.136239032E+01  0.160543208E+01
   H  0.162722301E+02  0.725319457E+00  0.194863252E-01
     4
 # iter = 40500  time[fs]=40.50000
   C -0.298255454E+01 -0.189338206E+00 -0.214623669E+00
   C  0.308636548E+01 -0.744210697E-02  0.268553527E-01
   H -0.165616277E+02  0.139466239E+01  0.164376558E+01
   H  0.166574059E+02  0.742565026E+00  0.196570083E-01
     4
 # iter = 41000  time[fs]=41.00000
   C -0.305969212E+01 -0.194338817E+00 -0.220189621E+00
   C  0.316397503E+01 -0.752995851E-02  0.281779403E-01
   H -0.169454715E+02  0.142698813E+01  0.168216255E+01
   H  0.170432473E+02  0.759843794E+00  0.198278039E-01
     4
 # iter = 41500  time[fs]=41.50000
   C -0.313715091E+01 -0.199353011E+00 -0.225772522E+00
   C  0.324189842E+01 -0.761115078E-02  0.295124122E-01
   H -0.173298629E+02  0.145936521E+01  0.172062021E+01
   H  0.174297249E+02  0.777154302E+00  0.199986740E-01
     4
 # iter = 42000  time[fs]=42.00000
   C -0.321491538E+01 -0.204380166E+00 -0.231371613E+00
   C  0.332012042E+01 -0.768600688E-02  0.308582297E-01
   H -0.177147780E+02  0.149179141E+01  0.175913597E+01
   H  0.178168110E+02  0.794495188E+00  0.201695847E-01
     4
 # iter = 42500  time[fs]=42.50000
   C -0.329297101E+01 -0.209419703E+00 -0.236986183E+00
   C  0.339862681E+01 -0.775482849E-02  0.322148880E-01
   H -0.181001946E+02  0.152426469E+01  0.179770738E+01
   H  0.182044797E+02  0.811865170E+00  0.203405059E-01
     4
 # iter = 43000  time[fs]=43.00000
   C -0.337130425E+01 -0.214471078E+00 -0.242615566E+00
   C  0.347740433E+01 -0.781789767E-02  0.335819134E-01
   H -0.184860916E+02  0.155678309E+01  0.183633216E+01
   H  0.185927066E+02  0.829263048E+00  0.205114108E-01
     4
 # iter = 43500  time[fs]=43.50000
   C -0.344990242E+01 -0.219533781E+00 -0.248259136E+00
   C  0.355644056E+01 -0.787547842E-02  0.349588609E-01
   H -0.188724493E+02  0.158934481E+01  0.187500815E+01
   H  0.189814690E+02  0.846687690E+00  0.206822755E-01
     4
 # iter = 44000  time[fs]=44.00000
   C -0.352875366E+01 -0.224607334E+00 -0.253916303E+00
   C  0.363572389E+01 -0.792781806E-02  0.363453121E-01
   H -0.192592493E+02  0.162194813E+01  0.191373333E+01
   H  0.193707452E+02  0.864138035E+00  0.208530788E-01
     4
 # iter = 44500  time[fs]=44.50000
   C -0.360784686E+01 -0.229691286E+00 -0.259586514E+00
   C  0.371524343E+01 -0.797514860E-02  0.377408733E-01
   H -0.196464740E+02  0.165459143E+01  0.195250579E+01
   H  0.197605151E+02  0.881613080E+00  0.210238017E-01
     4
 # iter = 45000  time[fs]=45.00000
   C -0.368717157E+01 -0.234785214E+00 -0.265269246E+00
   C  0.379498896E+01 -0.801768785E-02  0.391451735E-01
   H -0.200341071E+02  0.168727319E+01  0.199132373E+01
   H  0.201507596E+02  0.899111878E+00  0.211944275E-01
     4
 # iter = 45500  time[fs]=45.50000
   C -0.376671799E+01 -0.239888718E+00 -0.270964005E+00
   C  0.387495089E+01 -0.805564054E-02  0.405578630E-01
   H -0.204221329E+02  0.171999198E+01  0.203018544E+01
   H  0.205414606E+02  0.916633538E+00  0.213649410E-01
     4
 # iter = 46000  time[fs]=46.00000
   C -0.384647691E+01 -0.245001424E+00 -0.276670328E+00
   C  0.395512020E+01 -0.808919927E-02  0.419786116E-01
   H -0.208105368E+02  0.175274642E+01  0.206908933E+01
   H  0.209326011E+02  0.934177214E+00  0.215353292E-01
     4
 # iter = 46500  time[fs]=46.50000
   C -0.392643963E+01 -0.250122974E+00 -0.282387773E+00
   C  0.403548839E+01 -0.811854543E-02  0.434071074E-01
   H -0.211993049E+02  0.178553524E+01  0.210803386E+01
   H  0.213241650E+02  0.951742109E+00  0.217055802E-01
     4
 # iter = 47000  time[fs]=47.00000
   C -0.400659799E+01 -0.255253034E+00 -0.288115926E+00
   C  0.411604746E+01 -0.814384997E-02  0.448430555E-01
   H -0.215884241E+02  0.181835721E+01  0.214701760E+01
   H  0.217161371E+02  0.969327465E+00  0.218756835E-01
     4
 # iter = 47500  time[fs]=47.50000
   C -0.408694427E+01 -0.260391285E+00 -0.293854392E+00
   C  0.419678985E+01 -0.816527422E-02  0.462861770E-01
   H -0.219778820E+02  0.185121117E+01  0.218603918E+01
   H  0.221085028E+02  0.986932564E+00  0.220456301E-01
     4
 # iter = 48000  time[fs]=48.00000
   C -0.416747118E+01 -0.265537429E+00 -0.299602798E+00
   C  0.427770845E+01 -0.818297049E-02  0.477362075E-01
   H -0.223676667E+02  0.188409604E+01  0.222509729E+01
   H  0.225012485E+02  0.100455673E+01  0.222154118E-01
     4
 # iter = 48500  time[fs]=48.50000
   C -0.424817183E+01 -0.270691179E+00 -0.305360792E+00
   C  0.435879652E+01 -0.819708277E-02  0.491928966E-01
   H -0.227577670E+02  0.191701077E+01  0.226419072E+01
   H  0.228943611E+02  0.102219931E+01  0.223850214E-01
     4
 # iter = 49000  time[fs]=49.00000
   C -0.432903971E+01 -0.275852266E+00 -0.311128035E+00
   C  0.444004768E+01 -0.820774724E-02  0.506560066E-01
   H -0.231481723E+02  0.194995436E+01  0.230331828E+01
   H  0.232878284E+02  0.103985969E+01  0.225544529E-01
     4
 # iter = 49500  time[fs]=49.50000
   C -0.441006866E+01 -0.281020433E+00 -0.316904211E+00
   C  0.452145591E+01 -0.821509286E-02  0.521253119E-01
   H -0.235388724E+02  0.198292587E+01  0.234247887E+01
   H  0.236816384E+02  0.105753728E+01  0.227237008E-01
     4
 # iter = 50000  time[fs]=50.00000
   C -0.449125283E+01 -0.286195438E+00 -0.322689016E+00
   C  0.460301550E+01 -0.821924180E-02  0.536005982E-01
   H -0.239298577E+02  0.201592441E+01  0.238167141E+01
   H  0.240757801E+02  0.107523154E+01  0.228927604E-01
     4
 # iter = 50500  time[fs]=50.50000
   C -0.457258667E+01 -0.291377048E+00 -0.328482160E+00
   C  0.468472101E+01 -0.822030993E-02  0.550816617E-01
   H -0.243211191E+02  0.204894911E+01  0.242089491E+01
   H  0.244702427E+02  0.109294193E+01  0.230616277E-01
     4
 # iter = 51000  time[fs]=51.00000
   C -0.465406493E+01 -0.296565044E+00 -0.334283370E+00
   C  0.476656732E+01 -0.821840721E-02  0.565683084E-01
   H -0.247126478E+02  0.208199918E+01  0.246014839E+01
   H  0.248650161E+02  0.111066794E+01  0.232302992E-01
     4
 # iter = 51500  time[fs]=51.50000
   C -0.473568261E+01 -0.301759216E+00 -0.340092385E+00
   C  0.484854954E+01 -0.821363806E-02  0.580603538E-01
   H -0.251044354E+02  0.211507381E+01  0.249943093E+01
   H  0.252600907E+02  0.112840909E+01  0.233987721E-01
     4
 # iter = 52000  time[fs]=52.00000
   C -0.481743497E+01 -0.306959364E+00 -0.345908954E+00
   C  0.493066301E+01 -0.820610175E-02  0.595576219E-01
   H -0.254964740E+02  0.214817228E+01  0.253874166E+01
   H  0.256554571E+02  0.114616492E+01  0.235670438E-01
     4
 # iter = 52500  time[fs]=52.50000
   C -0.489931747E+01 -0.312165299E+00 -0.351732840E+00
   C  0.501290334E+01 -0.819589267E-02  0.610599450E-01
   H -0.258887560E+02  0.218129387E+01  0.257807973E+01
   H  0.260511065E+02  0.116393500E+01  0.237351125E-01
     4
 # iter = 53000  time[fs]=53.00000
   C -0.498132581E+01 -0.317376838E+00 -0.357563815E+00
   C  0.509526631E+01 -0.818310070E-02  0.625671630E-01
   H -0.262812741E+02  0.221443790E+01  0.261744434E+01
   H  0.264470304E+02  0.118171889E+01  0.239029765E-01
     4
 # iter = 53500  time[fs]=53.50000
   C -0.506345591E+01 -0.322593809E+00 -0.363401663E+00
   C  0.517774791E+01 -0.816781142E-02  0.640791232E-01
   H -0.266740214E+02  0.224760372E+01  0.265683473E+01
   H  0.268432209E+02  0.119951620E+01  0.240706345E-01
     4
 # iter = 54000  time[fs]=54.00000
   C -0.514570384E+01 -0.327816045E+00 -0.369246177E+00
   C  0.526034434E+01 -0.815010639E-02  0.655956797E-01
   H -0.270669912E+02  0.228079071E+01  0.269625015E+01
   H  0.272396701E+02  0.121732653E+01  0.242380857E-01
     4
 # iter = 54500  time[fs]=54.50000
   C -0.522806589E+01 -0.333043388E+00 -0.375097157E+00
   C  0.534305194E+01 -0.813006341E-02  0.671166929E-01
   H -0.274601771E+02  0.231399827E+01  0.273568990E+01
   H  0.276363707E+02  0.123514953E+01  0.244053295E-01
     4
 # iter = 55000  time[fs]=55.00000
   C -0.531053848E+01 -0.338275688E+00 -0.380954415E+00
   C  0.542586724E+01 -0.810775672E-02  0.686420293E-01
   H -0.278535731E+02  0.234722583E+01  0.277515331E+01
   H  0.280333155E+02  0.125298484E+01  0.245723653E-01
     4
 # iter = 55500  time[fs]=55.50000
   C -0.539311823E+01 -0.343512798E+00 -0.386817768E+00
   C  0.550878692E+01 -0.808325723E-02  0.701715614E-01
   H -0.282471732E+02  0.238047285E+01  0.281463972E+01
   H  0.284304978E+02  0.127083211E+01  0.247391932E-01
     4
 # iter = 56000  time[fs]=56.00000
   C -0.547580188E+01 -0.348754581E+00 -0.392687042E+00
   C  0.559180781E+01 -0.805663267E-02  0.717051667E-01
   H -0.286409720E+02  0.241373879E+01  0.285414852E+01
   H  0.288279110E+02  0.128869102E+01  0.249058132E-01
     4
 # iter = 56500  time[fs]=56.50000
   C -0.555858633E+01 -0.354000903E+00 -0.398562071E+00
   C  0.567492687E+01 -0.802794781E-02  0.732427283E-01
   H -0.290349639E+02  0.244702315E+01  0.289367910E+01
   H  0.292255489E+02  0.130656127E+01  0.250722256E-01
     4
 # iter = 57000  time[fs]=57.00000
   C -0.564146859E+01 -0.359251637E+00 -0.404442694E+00
   C  0.575814120E+01 -0.799726461E-02  0.747841336E-01
   H -0.294291439E+02  0.248032544E+01  0.293323090E+01
   H  0.296234054E+02  0.132444254E+01  0.252384308E-01
     4
 # iter = 57500  time[fs]=57.50000
   C -0.572444582E+01 -0.364506661E+00 -0.410328758E+00
   C  0.584144801E+01 -0.796464237E-02  0.763292752E-01
   H -0.298235069E+02  0.251364520E+01  0.297280335E+01
   H  0.300214748E+02  0.134233455E+01  0.254044293E-01
     4
 # iter = 58000  time[fs]=58.00000
   C -0.580751530E+01 -0.369765857E+00 -0.416220115E+00
   C  0.592484464E+01 -0.793013789E-02  0.778780495E-01
   H -0.302180482E+02  0.254698198E+01  0.301239594E+01
   H  0.304197515E+02  0.136023702E+01  0.255702221E-01
     4
 # iter = 58500  time[fs]=58.50000
   C -0.589067440E+01 -0.375029112E+00 -0.422116623E+00
   C  0.600832854E+01 -0.789380558E-02  0.794303573E-01
   H -0.306127632E+02  0.258033535E+01  0.305200814E+01
   H  0.308182303E+02  0.137814968E+01  0.257358098E-01
     4
 # iter = 59000  time[fs]=59.00000
   C -0.597392061E+01 -0.380296319E+00 -0.428018146E+00
   C  0.609189725E+01 -0.785569763E-02  0.809861034E-01
   H -0.310076475E+02  0.261370489E+01  0.309163947E+01
   H  0.312169058E+02  0.139607228E+01  0.259011936E-01
     4
 # iter = 59500  time[fs]=59.50000
   C -0.605725154E+01 -0.385567373E+00 -0.433924554E+00
   C  0.617554844E+01 -0.781586409E-02  0.825451961E-01
   H -0.314026968E+02  0.264709019E+01  0.313128945E+01
   H  0.316157733E+02  0.141400457E+01  0.260663744E-01
     4
 # iter = 60000  time[fs]=60.00000
   C -0.614066486E+01 -0.390842174E+00 -0.439835719E+00
   C  0.625927984E+01 -0.777435298E-02  0.841075473E-01
   H -0.317979070E+02  0.268049089E+01  0.317095764E+01
   H  0.320148279E+02  0.143194632E+01  0.262313534E-01
     4
 # iter = 60500  time[fs]=60.50000
   C -0.622415836E+01 -0.396120626E+00 -0.445751522E+00
   C  0.634308928E+01 -0.773121042E-02  0.856730724E-01
   H -0.321932741E+02  0.271390659E+01  0.321064357E+01
   H  0.324140650E+02  0.144989728E+01  0.263961320E-01
     4
 # iter = 61000  time[fs]=61.00000
   C -0.630772990E+01 -0.401402636E+00 -0.451671844E+00
   C  0.642697469E+01 -0.768648073E-02  0.872416896E-01
   H -0.325887944E+02  0.274733695E+01  0.325034685E+01
   H  0.328134802E+02  0.146785724E+01  0.265607113E-01
     4
 # iter = 61500  time[fs]=61.50000
   C -0.639137743E+01 -0.406688115E+00 -0.457596575E+00
   C  0.651093406E+01 -0.764020648E-02  0.888133207E-01
   H -0.329844642E+02  0.278078162E+01  0.329006704E+01
   H  0.332130693E+02  0.148582599E+01  0.267250929E-01
     4
 # iter = 62000  time[fs]=62.00000
   C -0.647509898E+01 -0.411976978E+00 -0.463525604E+00
   C  0.659496547E+01 -0.759242862E-02  0.903878898E-01
   H -0.333802800E+02  0.281424026E+01  0.332980377E+01
   H  0.336128280E+02  0.150380331E+01  0.268892780E-01
     4
 # iter = 62500  time[fs]=62.50000
   C -0.655889265E+01 -0.417269140E+00 -0.469458828E+00
   C  0.667906705E+01 -0.754318653E-02  0.919653241E-01
   H -0.337762382E+02  0.284771256E+01  0.336955664E+01
   H  0.340127526E+02  0.152178901E+01  0.270532683E-01
     4
 # iter = 63000  time[fs]=63.00000
   C -0.664275660E+01 -0.422564523E+00 -0.475396146E+00
   C  0.676323703E+01 -0.749251813E-02  0.935455535E-01
   H -0.341723357E+02  0.288119819E+01  0.340932529E+01
   H  0.344128390E+02  0.153978291E+01  0.272170652E-01
     4
 # iter = 63500  time[fs]=63.50000
   C -0.672668907E+01 -0.427863048E+00 -0.481337460E+00
   C  0.684747370E+01 -0.744045991E-02  0.951285100E-01
   H -0.345685693E+02  0.291469686E+01  0.344910937E+01
   H  0.348130836E+02  0.155778480E+01  0.273806703E-01
     4
 # iter = 64000  time[fs]=64.00000
   C -0.681068837E+01 -0.433164643E+00 -0.487282677E+00
   C  0.693177538E+01 -0.738704704E-02  0.967141284E-01
   H -0.349649358E+02  0.294820828E+01  0.348890852E+01
   H  0.352134828E+02  0.157579451E+01  0.275440852E-01
     4
 # iter = 64500  time[fs]=64.50000
   C -0.689475287E+01 -0.438469234E+00 -0.493231705E+00
   C  0.701614049E+01 -0.733231338E-02  0.983023455E-01
   H -0.353614322E+02  0.298173217E+01  0.352872242E+01
   H  0.356140332E+02  0.159381187E+01  0.277073115E-01
     4
 # iter = 65000  time[fs]=65.00000
   C -0.697888097E+01 -0.443776753E+00 -0.499184458E+00
   C  0.710056749E+01 -0.727629160E-02  0.998931005E-01
   H -0.357580558E+02  0.301526825E+01  0.356855075E+01
   H  0.360147314E+02  0.161183671E+01  0.278703509E-01
     4
 # iter = 65500  time[fs]=65.50000
   C -0.706307116E+01 -0.449087132E+00 -0.505140851E+00
   C  0.718505488E+01 -0.721901320E-02  0.101486334E+00
   H -0.361548037E+02  0.304881626E+01  0.360839318E+01
   H  0.364155741E+02  0.162986886E+01  0.280332050E-01
     4
 # iter = 66000  time[fs]=66.00000
   C -0.714732197E+01 -0.454400307E+00 -0.511100801E+00
   C  0.726960124E+01 -0.716050857E-02  0.103081990E+00
   H -0.365516732E+02  0.308237594E+01  0.364824943E+01
   H  0.368165583E+02  0.164790818E+01  0.281958755E-01
     4
 # iter = 66500  time[fs]=66.50000
   C -0.723163197E+01 -0.459716215E+00 -0.517064230E+00
   C  0.735420519E+01 -0.710080704E-02  0.104680014E+00
   H -0.369486618E+02  0.311594705E+01  0.368811919E+01
   H  0.372176808E+02  0.166595450E+01  0.283583642E-01
     4
 # iter = 67000  time[fs]=67.00000
   C -0.731599980E+01 -0.465034796E+00 -0.523031060E+00
   C  0.743886538E+01 -0.703993694E-02  0.106280351E+00
   H -0.373457668E+02  0.314952936E+01  0.372800220E+01
   H  0.376189388E+02  0.168400767E+01  0.285206726E-01
     4
 # iter = 67500  time[fs]=67.50000
   C -0.740042413E+01 -0.470355990E+00 -0.529001218E+00
   C  0.752358052E+01 -0.697792561E-02  0.107882950E+00
   H -0.377429858E+02  0.318312261E+01  0.376789816E+01
   H  0.380203294E+02  0.170206757E+01  0.286828025E-01
     4
 # iter = 68000  time[fs]=68.00000
   C -0.748490368E+01 -0.475679742E+00 -0.534974633E+00
   C  0.760834937E+01 -0.691479948E-02  0.109487763E+00
   H -0.381403165E+02  0.321672661E+01  0.380780681E+01
   H  0.384218498E+02  0.172013404E+01  0.288447557E-01
     4
 # iter = 68500  time[fs]=68.50000
   C -0.756943720E+01 -0.481005996E+00 -0.540951233E+00
   C  0.769317072E+01 -0.685058411E-02  0.111094740E+00
   H -0.385377566E+02  0.325034111E+01  0.384772791E+01
   H  0.388234973E+02  0.173820695E+01  0.290065338E-01
     4
 # iter = 69000  time[fs]=69.00000
   C -0.765402351E+01 -0.486334699E+00 -0.546930953E+00
   C  0.777804339E+01 -0.678530420E-02  0.112703835E+00
   H -0.389353037E+02  0.328396592E+01  0.388766119E+01
   H  0.392252695E+02  0.175628618E+01  0.291681385E-01
     4
 # iter = 69500  time[fs]=69.50000
   C -0.773866144E+01 -0.491665799E+00 -0.552913727E+00
   C  0.786296626E+01 -0.671898364E-02  0.114315003E+00
   H -0.393329559E+02  0.331760082E+01  0.392760642E+01
   H  0.396271636E+02  0.177437158E+01  0.293295716E-01
     4
 # iter = 70000  time[fs]=70.00000
   C -0.782334987E+01 -0.496999247E+00 -0.558899492E+00
   C  0.794793823E+01 -0.665164556E-02  0.115928200E+00
   H -0.397307109E+02  0.335124562E+01  0.396756335E+01
   H  0.400291774E+02  0.179246306E+01  0.294908347E-01
     4
 # iter = 70500  time[fs]=70.50000
   C -0.790808770E+01 -0.502334994E+00 -0.564888185E+00
   C  0.803295825E+01 -0.658331231E-02  0.117543383E+00
   H -0.401285668E+02  0.338490013E+01  0.400753176E+01
   H  0.404313084E+02  0.181056047E+01  0.296519296E-01
     4
 # iter = 71000  time[fs]=71.00000
   C -0.799287390E+01 -0.507672994E+00 -0.570879749E+00
   C  0.811802528E+01 -0.651400559E-02  0.119160512E+00
   H -0.405265215E+02  0.341856415E+01  0.404751144E+01
   H  0.408335544E+02  0.182866371E+01  0.298128579E-01
     4
 # iter = 71500  time[fs]=71.50000
   C -0.807770743E+01 -0.513013200E+00 -0.576874125E+00
   C  0.820313834E+01 -0.644374635E-02  0.120779547E+00
   H -0.409245731E+02  0.345223751E+01  0.408750215E+01
   H  0.412359130E+02  0.184677267E+01  0.299736214E-01
     4
 # iter = 72000  time[fs]=72.00000
   C -0.816258731E+01 -0.518355568E+00 -0.582871256E+00
   C  0.828829646E+01 -0.637255494E-02  0.122400449E+00
   H -0.413227198E+02  0.348592002E+01  0.412750370E+01
   H  0.416383822E+02  0.186488723E+01  0.301342216E-01
     4
 # iter = 72500  time[fs]=72.50000
   C -0.824751258E+01 -0.523700056E+00 -0.588871090E+00
   C  0.837349870E+01 -0.630045106E-02  0.124023180E+00
   H -0.417209598E+02  0.351961152E+01  0.416751588E+01
   H  0.420409598E+02  0.188300730E+01  0.302946604E-01
     4
 # iter = 73000  time[fs]=73.00000
   C -0.833248231E+01 -0.529046622E+00 -0.594873572E+00
   C  0.845874416E+01 -0.622745379E-02  0.125647704E+00
   H -0.421192912E+02  0.355331184E+01  0.420753848E+01
   H  0.424436438E+02  0.190113276E+01  0.304549392E-01
     4
 # iter = 73500  time[fs]=73.50000
   C -0.841749560E+01 -0.534395225E+00 -0.600878652E+00
   C  0.854403197E+01 -0.615358167E-02  0.127273986E+00
   H -0.425177125E+02  0.358702081E+01  0.424757133E+01
   H  0.428464322E+02  0.191926351E+01  0.306150599E-01
     4
 # iter = 74000  time[fs]=74.00000
   C -0.850255157E+01 -0.539745826E+00 -0.606886279E+00
   C  0.862936126E+01 -0.607885265E-02  0.128901991E+00
   H -0.429162218E+02  0.362073828E+01  0.428761423E+01
   H  0.432493230E+02  0.193739946E+01  0.307750239E-01
     4
 # iter = 74500  time[fs]=74.50000
   C -0.858764937E+01 -0.545098387E+00 -0.612896406E+00
   C  0.871473121E+01 -0.600328416E-02  0.130531685E+00
   H -0.433148177E+02  0.365446409E+01  0.432766699E+01
   H  0.436523143E+02  0.195554052E+01  0.309348330E-01
     4
 # iter = 75000  time[fs]=75.00000
   C -0.867278818E+01 -0.550452871E+00 -0.618908986E+00
   C  0.880014102E+01 -0.592689311E-02  0.132163037E+00
   H -0.437134984E+02  0.368819809E+01  0.436772945E+01
   H  0.440554044E+02  0.197368659E+01  0.310944887E-01
     4
 # iter = 75500  time[fs]=75.50000
   C -0.875796720E+01 -0.555809242E+00 -0.624923971E+00
   C  0.888558990E+01 -0.584969592E-02  0.133796016E+00
   H -0.441122626E+02  0.372194014E+01  0.440780142E+01
   H  0.444585914E+02  0.199183758E+01  0.312539926E-01
     4
 # iter = 76000  time[fs]=76.00000
   C -0.884318564E+01 -0.561167464E+00 -0.630941319E+00
   C  0.897107711E+01 -0.577170854E-02  0.135430589E+00
   H -0.445111087E+02  0.375569009E+01  0.444788275E+01
   H  0.448618737E+02  0.200999340E+01  0.314133464E-01
     4
 # iter = 76500  time[fs]=76.50000
   C -0.892844275E+01 -0.566527504E+00 -0.636960985E+00
   C  0.905660189E+01 -0.569294645E-02  0.137066728E+00
   H -0.449100352E+02  0.378944781E+01  0.448797326E+01
   H  0.452652494E+02  0.202815397E+01  0.315725514E-01
     4
 # iter = 77000  time[fs]=77.00000
   C -0.901373780E+01 -0.571889328E+00 -0.642982928E+00
   C  0.914216354E+01 -0.561342470E-02  0.138704403E+00
   H -0.453090407E+02  0.382321315E+01  0.452807280E+01
   H  0.456687170E+02  0.204631921E+01  0.317316094E-01
     4
 # iter = 77500  time[fs]=77.50000
   C -0.909907007E+01 -0.577252905E+00 -0.649007106E+00
   C  0.922776136E+01 -0.553315791E-02  0.140343586E+00
   H -0.457081239E+02  0.385698600E+01  0.456818121E+01
   H  0.460722749E+02  0.206448903E+01  0.318905218E-01
     4
 # iter = 78000  time[fs]=78.00000
   C -0.918443886E+01 -0.582618201E+00 -0.655033480E+00
   C  0.931339467E+01 -0.545216028E-02  0.141984251E+00
   H -0.461072834E+02  0.389076622E+01  0.460829834E+01
   H  0.464759215E+02  0.208266336E+01  0.320492902E-01
     4
 # iter = 78500  time[fs]=78.50000
   C -0.926984351E+01 -0.587985188E+00 -0.661062010E+00
   C  0.939906282E+01 -0.537044565E-02  0.143626369E+00
   H -0.465065178E+02  0.392455368E+01  0.464842405E+01
   H  0.468796553E+02  0.210084211E+01  0.322079160E-01
     4
 # iter = 79000  time[fs]=79.00000
   C -0.935528335E+01 -0.593353835E+00 -0.667092659E+00
   C  0.948476516E+01 -0.528802744E-02  0.145269916E+00
   H -0.469058261E+02  0.395834827E+01  0.468855818E+01
   H  0.472834748E+02  0.211902522E+01  0.323664007E-01
     4
 # iter = 79500  time[fs]=79.50000
   C -0.944075774E+01 -0.598724113E+00 -0.673125390E+00
   C  0.957050107E+01 -0.520491872E-02  0.146914866E+00
   H -0.473052068E+02  0.399214987E+01  0.472870060E+01
   H  0.476873786E+02  0.213721262E+01  0.325247458E-01
     4
 # iter = 80000  time[fs]=80.00000
   C -0.952626605E+01 -0.604095994E+00 -0.679160167E+00
   C  0.965626994E+01 -0.512113222E-02  0.148561193E+00
   H -0.477046587E+02  0.402595835E+01  0.476885118E+01
   H  0.480913651E+02  0.215540422E+01  0.326829528E-01
