     4
 # iter = 25000  time[fs]=25.00000
   C -0.100840767E+01 -0.237746531E-02  0.280129755E-01
   C  0.969787480E+00 -0.102782038E-01 -0.244795096E-02
   H -0.530638028E+01  0.447739336E+00 -0.599547910E+00
   H  0.536857376E+01 -0.406309462E+00  0.515406588E+00
     4
 # iter = 25500  time[fs]=25.50000
   C -0.105522749E+01 -0.318451117E-02  0.305518331E-01
   C  0.101147940E+01 -0.805284781E-02 -0.412586083E-02
   H -0.563728739E+01  0.477848842E+00 -0.639165281E+00
   H  0.568377373E+01 -0.428341811E+00  0.546512423E+00
     4
 # iter = 26000  time[fs]=26.00000
   C -0.110500105E+01 -0.400749728E-02  0.331771571E-01
   C  0.105616357E+01 -0.582162680E-02 -0.587345707E-02
   H -0.597370044E+01  0.508482220E+00 -0.679500959E+00
   H  0.600401761E+01 -0.450777128E+00  0.578135204E+00
     4
 # iter = 26500  time[fs]=26.50000
   C -0.115748262E+01 -0.484869358E-02  0.358841366E-01
   C  0.110358746E+01 -0.358106089E-02 -0.768803385E-02
   H -0.631500386E+01  0.539581615E+00 -0.720475313E+00
   H  0.632877133E+01 -0.473572080E+00  0.610220562E+00
     4
 # iter = 27000  time[fs]=27.00000
   C -0.121244289E+01 -0.570971671E-02  0.386681064E-01
   C  0.115351634E+01 -0.132852140E-02 -0.956667355E-02
   H -0.666067449E+01  0.571097907E+00 -0.762020822E+00
   H  0.665757662E+01 -0.496689689E+00  0.642721946E+00
     4
 # iter = 27500  time[fs]=27.50000
   C -0.126967019E+01 -0.659162590E-02  0.415245600E-01
   C  0.120573422E+01  0.937904428E-03 -0.115063338E-01
   H -0.701026482E+01  0.602989086E+00 -0.804079803E+00
   H  0.699003803E+01 -0.520098189E+00  0.675599242E+00
     4
 # iter = 28000  time[fs]=28.00000
   C -0.132897066E+01 -0.749502188E-02  0.444491706E-01
   C  0.126004374E+01  0.321954272E-02 -0.135039243E-01
   H -0.736338970E+01  0.635218990E+00 -0.846602642E+00
   H  0.732581244E+01 -0.543770122E+00  0.708817677E+00
     4
 # iter = 28500  time[fs]=28.50000
   C -0.139016778E+01 -0.842013919E-02  0.474378096E-01
   C  0.131626552E+01  0.551724907E-02 -0.155563693E-01
   H -0.771971566E+01  0.667756297E+00 -0.889546393E+00
   H  0.766460063E+01 -0.567681618E+00  0.742346935E+00
     4
 # iter = 29000  time[fs]=29.00000
   C -0.145310145E+01 -0.936692754E-02  0.504865618E-01
   C  0.137423711E+01  0.783150849E-02 -0.176606559E-01
   H -0.807895240E+01  0.700573715E+00 -0.932873657E+00
   H  0.800614038E+01 -0.591811810E+00  0.776160448E+00
     4
 # iter = 29500  time[fs]=29.50000
   C -0.151762686E+01 -0.103351206E-01  0.535917332E-01
   C  0.143381179E+01  0.101625189E-01 -0.198138692E-01
   H -0.844084594E+01  0.733647341E+00 -0.976551690E+00
   H  0.835020082E+01 -0.616142366E+00  0.810234820E+00
     4
 # iter = 30000  time[fs]=30.00000
   C -0.158361323E+01 -0.113242925E-01  0.567498544E-01
   C  0.149485716E+01  0.125102597E-01 -0.220132161E-01
   H -0.880517291E+01  0.766956130E+00 -0.102055167E+01
   H  0.869657785E+01 -0.640657102E+00  0.844549349E+00
     4
 # iter = 30500  time[fs]=30.50000
   C -0.165094256E+01 -0.123339036E-01  0.599576781E-01
   C  0.155725389E+01  0.148745465E-01 -0.242560403E-01
   H -0.917173604E+01  0.800481469E+00 -0.106484813E+01
   H  0.904509023E+01 -0.665341671E+00  0.879085643E+00
     4
 # iter = 31000  time[fs]=31.00000
   C -0.171950840E+01 -0.133633364E-01  0.632121737E-01
   C  0.162089441E+01  0.172550751E-01 -0.265398299E-01
   H -0.954036031E+01  0.834206822E+00 -0.110941841E+01
   H  0.939557643E+01 -0.690183295E+00  0.913827292E+00
     4
 # iter = 31500  time[fs]=31.50000
   C -0.178921466E+01 -0.144119235E-01  0.665105189E-01
   C  0.168568169E+01  0.196514558E-01 -0.288622203E-01
   H -0.991088984E+01  0.868117437E+00 -0.115424234E+01
   H  0.974789195E+01 -0.715170554E+00  0.948759599E+00
     4
 # iter = 32000  time[fs]=32.00000
   C -0.185997461E+01 -0.154789697E-01  0.698500892E-01
   C  0.175152816E+01  0.220632403E-01 -0.312209930E-01
   H -0.102831853E+02  0.902200103E+00 -0.119930183E+01
   H  0.101019071E+02 -0.740293200E+00  0.983869357E+00
     4
 # iter = 32500  time[fs]=32.50000
   C -0.193170980E+01 -0.165637676E-01  0.732284469E-01
   C  0.181835473E+01  0.244899419E-01 -0.336140716E-01
   H -0.106571215E+02  0.936442947E+00 -0.124458064E+01
   H  0.104575049E+02 -0.765542009E+00  0.101914466E+01
     4
 # iter = 33000  time[fs]=33.00000
   C -0.200434926E+01 -0.176656105E-01  0.766433294E-01
   C  0.188608981E+01  0.269310518E-01 -0.360395167E-01
   H -0.110325859E+02  0.970835260E+00 -0.129006412E+01
   H  0.108145800E+02 -0.790908648E+00  0.105457472E+01
     4
 # iter = 33500  time[fs]=33.50000
   C -0.207782866E+01 -0.187838009E-01  0.800926369E-01
   C  0.195466858E+01  0.293860509E-01 -0.384955182E-01
   H -0.114094769E+02  0.100536735E+01 -0.133573901E+01
   H  0.111730366E+02 -0.816385567E+00  0.109014977E+01
     4
 # iter = 34000  time[fs]=34.00000
   C -0.215208960E+01 -0.199176574E-01  0.835744212E-01
   C  0.202403219E+01  0.318544184E-01 -0.409803891E-01
   H -0.117877022E+02  0.104003044E+01 -0.138159327E+01
   H  0.115327879E+02 -0.841965905E+00  0.112586091E+01
     4
 # iter = 34500  time[fs]=34.50000
   C -0.222707899E+01 -0.210665186E-01  0.870868739E-01
   C  0.209412720E+01  0.343356389E-01 -0.434925570E-01
   H -0.121671782E+02  0.107481651E+01 -0.142761597E+01
   H  0.118937546E+02 -0.867643410E+00  0.116170003E+01
     4
 # iter = 35000  time[fs]=35.00000
   C -0.230274850E+01 -0.222297465E-01  0.906283165E-01
   C  0.216490492E+01  0.368292071E-01 -0.460305571E-01
   H -0.125478286E+02  0.110971827E+01 -0.147379711E+01
   H  0.122558645E+02 -0.893412371E+00  0.119765970E+01
     4
 # iter = 35500  time[fs]=35.50000
   C -0.237905402E+01 -0.234067283E-01  0.941971895E-01
   C  0.223632098E+01  0.393346309E-01 -0.485930243E-01
   H -0.129295837E+02  0.114472903E+01 -0.152012755E+01
   H  0.126190512E+02 -0.919267557E+00  0.123373310E+01
     4
 # iter = 36000  time[fs]=36.00000
   C -0.245595526E+01 -0.245968773E-01  0.977920434E-01
   C  0.230833483E+01  0.418514339E-01 -0.511786864E-01
   H -0.133123797E+02  0.117984267E+01 -0.156659891E+01
   H  0.129832541E+02 -0.945204166E+00  0.126991400E+01
     4
 # iter = 36500  time[fs]=36.50000
   C -0.253341535E+01 -0.257996330E-01  0.101411530E+00
   C  0.238090937E+01  0.443791569E-01 -0.537863571E-01
   H -0.136961581E+02  0.121505355E+01 -0.161320348E+01
   H  0.133484172E+02 -0.971217779E+00  0.130619661E+01
     4
 # iter = 37000  time[fs]=37.00000
   C -0.261140048E+01 -0.270144616E-01  0.105054394E+00
   C  0.245401060E+01  0.469173589E-01 -0.564149298E-01
   H -0.140808651E+02  0.125035650E+01 -0.165993415E+01
   H  0.137144890E+02 -0.997304323E+00  0.134257562E+01
     4
 # iter = 37500  time[fs]=37.50000
   C -0.268987959E+01 -0.282408549E-01  0.108719466E+00
   C  0.252760730E+01  0.494656172E-01 -0.590633712E-01
   H -0.144664510E+02  0.128574671E+01 -0.170678438E+01
   H  0.140814219E+02 -0.102346003E+01  0.137904612E+01
     4
 # iter = 38000  time[fs]=38.00000
   C -0.276882412E+01 -0.294783300E-01  0.112405655E+00
   C  0.260167076E+01  0.520235278E-01 -0.617307162E-01
   H -0.148528701E+02  0.132121975E+01 -0.175374810E+01
   H  0.144491720E+02 -0.104968143E+01  0.141560355E+01
     4
 # iter = 38500  time[fs]=38.50000
   C -0.284820775E+01 -0.307264280E-01  0.116111944E+00
   C  0.267617451E+01  0.545907049E-01 -0.644160626E-01
   H -0.152400798E+02  0.135677153E+01 -0.180081969E+01
   H  0.148176984E+02 -0.107596527E+01  0.145224367E+01
     4
 # iter = 39000  time[fs]=39.00000
   C -0.292800620E+01 -0.319847138E-01  0.119837380E+00
   C  0.275109416E+01  0.571667806E-01 -0.671185659E-01
   H -0.156280410E+02  0.139239822E+01 -0.184799394E+01
   H  0.151869632E+02 -0.110230857E+01  0.148896256E+01
     4
 # iter = 39500  time[fs]=39.50000
   C -0.300819701E+01 -0.332527740E-01  0.123581075E+00
   C  0.282640714E+01  0.597514044E-01 -0.698374358E-01
   H -0.160167170E+02  0.142809629E+01 -0.189526599E+01
   H  0.155569313E+02 -0.112870852E+01  0.152575654E+01
     4
 # iter = 40000  time[fs]=40.00000
   C -0.308875941E+01 -0.345302170E-01  0.127342195E+00
   C  0.290209258E+01  0.623442428E-01 -0.725719310E-01
   H -0.164060739E+02  0.146386243E+01 -0.194263132E+01
   H  0.159275697E+02 -0.115516253E+01  0.156262222E+01
     4
 # iter = 40500  time[fs]=40.50000
   C -0.316967412E+01 -0.358166710E-01  0.131119959E+00
   C  0.297813113E+01  0.649449782E-01 -0.753213566E-01
   H -0.167960801E+02  0.149969356E+01 -0.199008571E+01
   H  0.162988479E+02 -0.118166815E+01  0.159955638E+01
     4
 # iter = 41000  time[fs]=41.00000
   C -0.325092325E+01 -0.371117832E-01  0.134913636E+00
   C  0.305450483E+01  0.675533086E-01 -0.780850600E-01
   H -0.171867061E+02  0.153558680E+01 -0.203762523E+01
   H  0.166707373E+02 -0.120822313E+01  0.163655606E+01
     4
 # iter = 41500  time[fs]=41.50000
   C -0.333249018E+01 -0.384152192E-01  0.138722537E+00
   C  0.313119696E+01  0.701689466E-01 -0.808624278E-01
   H -0.175779243E+02  0.157153945E+01 -0.208524618E+01
   H  0.170432112E+02 -0.123482533E+01  0.167361844E+01
     4
 # iter = 42000  time[fs]=42.00000
   C -0.341435942E+01 -0.397266615E-01  0.142546017E+00
   C  0.320819199E+01  0.727916190E-01 -0.836528831E-01
   H -0.179697088E+02  0.160754900E+01 -0.213294511E+01
   H  0.174162443E+02 -0.126147276E+01  0.171074091E+01
     4
 # iter = 42500  time[fs]=42.50000
   C -0.349651653E+01 -0.410458086E-01  0.146383467E+00
   C  0.328547542E+01  0.754210656E-01 -0.864558829E-01
   H -0.183620356E+02  0.164361307E+01 -0.218071877E+01
   H  0.177898132E+02 -0.128816354E+01  0.174792100E+01
     4
 # iter = 43000  time[fs]=43.00000
   C -0.357894803E+01 -0.423723743E-01  0.150234316E+00
   C  0.336303372E+01  0.780570391E-01 -0.892709155E-01
   H -0.187548817E+02  0.167972943E+01 -0.222856412E+01
   H  0.181638959E+02 -0.131489592E+01  0.178515640E+01
     4
 # iter = 43500  time[fs]=43.50000
   C -0.366164132E+01 -0.437060868E-01  0.154098022E+00
   C  0.344085425E+01  0.806993040E-01 -0.920974982E-01
   H -0.191482261E+02  0.171589600E+01 -0.227647829E+01
   H  0.185384715E+02 -0.134166824E+01  0.182244491E+01
     4
 # iter = 44000  time[fs]=44.00000
   C -0.374458462E+01 -0.450466876E-01  0.157974079E+00
   C  0.351892518E+01  0.833476363E-01 -0.949351756E-01
   H -0.195420485E+02  0.175211080E+01 -0.232445858E+01
   H  0.189135204E+02 -0.136847894E+01  0.185978449E+01
     4
 # iter = 44500  time[fs]=44.50000
   C -0.382776688E+01 -0.463939311E-01  0.161862004E+00
   C  0.359723543E+01  0.860018226E-01 -0.977835173E-01
   H -0.199363301E+02  0.178837198E+01 -0.237250245E+01
   H  0.192890242E+02 -0.139532655E+01  0.189717319E+01
     4
 # iter = 45000  time[fs]=45.00000
   C -0.391117775E+01 -0.477475836E-01  0.165761343E+00
   C  0.367577461E+01  0.886616596E-01 -0.100642117E+00
   H -0.203310531E+02  0.182467777E+01 -0.242060748E+01
   H  0.196649656E+02 -0.142220968E+01  0.193460918E+01
     4
 # iter = 45500  time[fs]=45.50000
   C -0.399480748E+01 -0.491074227E-01  0.169671668E+00
   C  0.375453295E+01  0.913269536E-01 -0.103510588E+00
   H -0.207262007E+02  0.186102652E+01 -0.246877142E+01
   H  0.200413280E+02 -0.144912701E+01  0.197209073E+01
     4
 # iter = 46000  time[fs]=46.00000
   C -0.407864694E+01 -0.504732366E-01  0.173592570E+00
   C  0.383350127E+01  0.939975200E-01 -0.106388568E+00
   H -0.211217570E+02  0.189741667E+01 -0.251699212E+01
   H  0.204180960E+02 -0.147607731E+01  0.200961619E+01
     4
 # iter = 46500  time[fs]=46.50000
   C -0.416268751E+01 -0.518448236E-01  0.177523665E+00
   C  0.391267095E+01  0.966731827E-01 -0.109275710E+00
   H -0.215177070E+02  0.193384673E+01 -0.256526754E+01
   H  0.207952547E+02 -0.150305939E+01  0.204718401E+01
     4
 # iter = 47000  time[fs]=47.00000
   C -0.424692108E+01 -0.532219914E-01  0.181464587E+00
   C  0.399203385E+01  0.993537737E-01 -0.112171687E+00
   H -0.219140365E+02  0.197031528E+01 -0.261359575E+01
   H  0.211727904E+02 -0.153007215E+01  0.208479270E+01
     4
 # iter = 47500  time[fs]=47.50000
   C -0.433134001E+01 -0.546045566E-01  0.185414990E+00
   C  0.407158231E+01  0.102039133E+00 -0.115076187E+00
   H -0.223107320E+02  0.200682100E+01 -0.266197492E+01
   H  0.215506897E+02 -0.155711452E+01  0.212244089E+01
     4
 # iter = 48000  time[fs]=48.00000
   C -0.441593708E+01 -0.559923444E-01  0.189374544E+00
   C  0.415130907E+01  0.104729106E+00 -0.117988914E+00
   H -0.227077807E+02  0.204336263E+01 -0.271040333E+01
   H  0.219289402E+02 -0.158418550E+01  0.216012722E+01
     4
 # iter = 48500  time[fs]=48.50000
   C -0.450070546E+01 -0.573851876E-01  0.193342936E+00
   C  0.423120731E+01  0.107423549E+00 -0.120909589E+00
   H -0.231051705E+02  0.207993895E+01 -0.275887932E+01
   H  0.223075298E+02 -0.161128412E+01  0.219785044E+01
     4
 # iter = 49000  time[fs]=49.00000
   C -0.458563871E+01 -0.587829267E-01  0.197319868E+00
   C  0.431127055E+01  0.110122320E+00 -0.123837943E+00
   H -0.235028899E+02  0.211654882E+01 -0.280740133E+01
   H  0.226864473E+02 -0.163840950E+01  0.223560935E+01
     4
 # iter = 49500  time[fs]=49.50000
   C -0.467073072E+01 -0.601854094E-01  0.201305057E+00
   C  0.439149268E+01  0.112825285E+00 -0.126773723E+00
   H -0.239009279E+02  0.215319115E+01 -0.285596786E+01
   H  0.230656820E+02 -0.166556075E+01  0.227340280E+01
     4
 # iter = 50000  time[fs]=50.00000
   C -0.475597570E+01 -0.615924898E-01  0.205298233E+00
   C  0.447186790E+01  0.115532318E+00 -0.129716685E+00
   H -0.242992741E+02  0.218986491E+01 -0.290457748E+01
   H  0.234452235E+02 -0.169273706E+01  0.231122969E+01
     4
 # iter = 50500  time[fs]=50.50000
   C -0.484136817E+01 -0.630040285E-01  0.209299139E+00
   C  0.455239071E+01  0.118243296E+00 -0.132666599E+00
   H -0.246979187E+02  0.222656910E+01 -0.295322885E+01
   H  0.238250620E+02 -0.171993764E+01  0.234908899E+01
     4
 # iter = 51000  time[fs]=51.00000
   C -0.492690293E+01 -0.644198921E-01  0.213307530E+00
   C  0.463305589E+01  0.120958100E+00 -0.135623243E+00
   H -0.250968520E+02  0.226330279E+01 -0.300192067E+01
   H  0.242051883E+02 -0.174716174E+01  0.238697969E+01
     4
 # iter = 51500  time[fs]=51.50000
   C -0.501257503E+01 -0.658399527E-01  0.217323171E+00
   C  0.471385850E+01  0.123676620E+00 -0.138586409E+00
   H -0.254960652E+02  0.230006507E+01 -0.305065171E+01
   H  0.245855935E+02 -0.177440864E+01  0.242490086E+01
     4
 # iter = 52000  time[fs]=52.00000
   C -0.509837977E+01 -0.672640880E-01  0.221345838E+00
   C  0.479479382E+01  0.126398746E+00 -0.141555894E+00
   H -0.258955495E+02  0.233685507E+01 -0.309942078E+01
   H  0.249662690E+02 -0.180167766E+01  0.246285159E+01
     4
 # iter = 52500  time[fs]=52.50000
   C -0.518431269E+01 -0.686921806E-01  0.225375319E+00
   C  0.487585738E+01  0.129124377E+00 -0.144531507E+00
   H -0.262952968E+02  0.237367199E+01 -0.314822677E+01
   H  0.253472067E+02 -0.182896815E+01  0.250083099E+01
     4
 # iter = 53000  time[fs]=53.00000
   C -0.527036954E+01 -0.701241180E-01  0.229411408E+00
   C  0.495704492E+01  0.131853412E+00 -0.147513063E+00
   H -0.266952992E+02  0.241051502E+01 -0.319706859E+01
   H  0.257283989E+02 -0.185627948E+01  0.253883826E+01
     4
 # iter = 53500  time[fs]=53.50000
   C -0.535654626E+01 -0.715597921E-01  0.233453910E+00
   C  0.503835237E+01  0.134585757E+00 -0.150500388E+00
   H -0.270955492E+02  0.244738342E+01 -0.324594521E+01
   H  0.261098382E+02 -0.188361105E+01  0.257687258E+01
     4
 # iter = 54000  time[fs]=54.00000
   C -0.544283898E+01 -0.729990994E-01  0.237502638E+00
   C  0.511977587E+01  0.137321320E+00 -0.153493313E+00
   H -0.274960396E+02  0.248427647E+01 -0.329485564E+01
   H  0.264915174E+02 -0.191096229E+01  0.261493321E+01
     4
 # iter = 54500  time[fs]=54.50000
   C -0.552924404E+01 -0.744419403E-01  0.241557414E+00
   C  0.520131173E+01  0.140060013E+00 -0.156491676E+00
   H -0.278967635E+02  0.252119348E+01 -0.334379894E+01
   H  0.268734297E+02 -0.193833265E+01  0.265301940E+01
     4
 # iter = 55000  time[fs]=55.00000
   C -0.561575791E+01 -0.758882192E-01  0.245618064E+00
   C  0.528295643E+01  0.142801753E+00 -0.159495323E+00
   H -0.282977143E+02  0.255813378E+01 -0.339277419E+01
   H  0.272555687E+02 -0.196572161E+01  0.269113045E+01
     4
 # iter = 55500  time[fs]=55.50000
   C -0.570237723E+01 -0.773378441E-01  0.249684424E+00
   C  0.536470660E+01  0.145546458E+00 -0.162504107E+00
   H -0.286988857E+02  0.259509674E+01 -0.344178053E+01
   H  0.276379279E+02 -0.199312865E+01  0.272926570E+01
     4
 # iter = 56000  time[fs]=56.00000
   C -0.578909879E+01 -0.787907267E-01  0.253756337E+00
   C  0.544655903E+01  0.148294050E+00 -0.165517884E+00
   H -0.291002717E+02  0.263208174E+01 -0.349081712E+01
   H  0.280205016E+02 -0.202055328E+01  0.276742450E+01
     4
 # iter = 56500  time[fs]=56.50000
   C -0.587591954E+01 -0.802467820E-01  0.257833650E+00
   C  0.552851065E+01  0.151044454E+00 -0.168536518E+00
   H -0.295018663E+02  0.266908821E+01 -0.353988315E+01
   H  0.284032837E+02 -0.204799506E+01  0.280560623E+01
     4
 # iter = 57000  time[fs]=57.00000
   C -0.596283652E+01 -0.817059280E-01  0.261916218E+00
   C  0.561055852E+01  0.153797598E+00 -0.171559879E+00
   H -0.299036640E+02  0.270611557E+01 -0.358897786E+01
   H  0.287862689E+02 -0.207545352E+01  0.284381029E+01
     4
 # iter = 57500  time[fs]=57.50000
   C -0.604984693E+01 -0.831680860E-01  0.266003901E+00
   C  0.569269982E+01  0.156553412E+00 -0.174587840E+00
   H -0.303056594E+02  0.274316329E+01 -0.363810050E+01
   H  0.291694518E+02 -0.210292823E+01  0.288203611E+01
     4
 # iter = 58000  time[fs]=58.00000
   C -0.613694808E+01 -0.846331800E-01  0.270096564E+00
   C  0.577493186E+01  0.159311829E+00 -0.177620281E+00
   H -0.307078474E+02  0.278023085E+01 -0.368725036E+01
   H  0.295528273E+02 -0.213041878E+01  0.292028313E+01
     4
 # iter = 58500  time[fs]=58.50000
   C -0.622413739E+01 -0.861011369E-01  0.274194077E+00
   C  0.585725204E+01  0.162072784E+00 -0.180657084E+00
   H -0.311102231E+02  0.281731774E+01 -0.373642675E+01
   H  0.299363904E+02 -0.215792478E+01  0.295855082E+01
     4
 # iter = 59000  time[fs]=59.00000
   C -0.631141237E+01 -0.875718862E-01  0.278296317E+00
   C  0.593965791E+01  0.164836216E+00 -0.183698138E+00
   H -0.315127815E+02  0.285442349E+01 -0.378562900E+01
   H  0.303201364E+02 -0.218544583E+01  0.299683868E+01
     4
 # iter = 59500  time[fs]=59.50000
   C -0.639877066E+01 -0.890453599E-01  0.282403164E+00
   C  0.602214706E+01  0.167602063E+00 -0.186743334E+00
   H -0.319155182E+02  0.289154762E+01 -0.383485649E+01
   H  0.307040608E+02 -0.221298156E+01  0.303514621E+01
     4
 # iter = 60000  time[fs]=60.00000
   C -0.648620998E+01 -0.905214922E-01  0.286514501E+00
   C  0.610471723E+01  0.170370268E+00 -0.189792570E+00
   H -0.323184286E+02  0.292868968E+01 -0.388410859E+01
   H  0.310881591E+02 -0.224053163E+01  0.307347293E+01
     4
 # iter = 60500  time[fs]=60.50000
   C -0.657372813E+01 -0.920002200E-01  0.290630218E+00
   C  0.618736622E+01  0.173140776E+00 -0.192845744E+00
   H -0.327215086E+02  0.296584926E+01 -0.393338472E+01
   H  0.314724271E+02 -0.226809568E+01  0.311181839E+01
     4
 # iter = 61000  time[fs]=61.00000
   C -0.666132302E+01 -0.934814820E-01  0.294750207E+00
   C  0.627009193E+01  0.175913530E+00 -0.195902761E+00
   H -0.331247540E+02  0.300302593E+01 -0.398268431E+01
   H  0.318568607E+02 -0.229567338E+01  0.315018213E+01
     4
 # iter = 61500  time[fs]=61.50000
   C -0.674899261E+01 -0.949652192E-01  0.298874365E+00
   C  0.635289232E+01  0.178688481E+00 -0.198963526E+00
   H -0.335281608E+02  0.304021928E+01 -0.403200679E+01
   H  0.322414560E+02 -0.232326441E+01  0.318856375E+01
     4
 # iter = 62000  time[fs]=62.00000
   C -0.683673497E+01 -0.964513745E-01  0.303002592E+00
   C  0.643576546E+01  0.181465576E+00 -0.202027951E+00
   H -0.339317252E+02  0.307742894E+01 -0.408135165E+01
   H  0.326262092E+02 -0.235086847E+01  0.322696282E+01
     4
 # iter = 62500  time[fs]=62.50000
   C -0.692454821E+01 -0.979398927E-01  0.307134792E+00
   C  0.651870946E+01  0.184244768E+00 -0.205095949E+00
   H -0.343354436E+02  0.311465452E+01 -0.413071836E+01
   H  0.330111165E+02 -0.237848526E+01  0.326537894E+01
     4
 # iter = 63000  time[fs]=63.00000
   C -0.701243054E+01 -0.994307205E-01  0.311270872E+00
   C  0.660172253E+01  0.187026009E+00 -0.208167436E+00
   H -0.347393123E+02  0.315189566E+01 -0.418010643E+01
   H  0.333961745E+02 -0.240611448E+01  0.330381173E+01
     4
 # iter = 63500  time[fs]=63.50000
   C -0.710038023E+01 -0.100923806E+00  0.315410742E+00
   C  0.668480292E+01  0.189809253E+00 -0.211242331E+00
   H -0.351433279E+02  0.318915202E+01 -0.422951539E+01
   H  0.337813797E+02 -0.243375585E+01  0.334226082E+01
     4
 # iter = 64000  time[fs]=64.00000
   C -0.718839559E+01 -0.102419100E+00  0.319554315E+00
   C  0.676794896E+01  0.192594456E+00 -0.214320556E+00
   H -0.355474871E+02  0.322642325E+01 -0.427894476E+01
   H  0.341667288E+02 -0.246140911E+01  0.338072584E+01
     4
 # iter = 64500  time[fs]=64.50000
   C -0.727647501E+01 -0.103916554E+00  0.323701508E+00
   C  0.685115904E+01  0.195381575E+00 -0.217402036E+00
   H -0.359517866E+02  0.326370903E+01 -0.432839409E+01
   H  0.345522186E+02 -0.248907400E+01  0.341920646E+01
     4
 # iter = 65000  time[fs]=65.00000
   C -0.736461695E+01 -0.105416121E+00  0.327852239E+00
   C  0.693443160E+01  0.198170569E+00 -0.220486697E+00
   H -0.363562234E+02  0.330100905E+01 -0.437786296E+01
   H  0.349378460E+02 -0.251675027E+01  0.345770233E+01
     4
 # iter = 65500  time[fs]=65.50000
   C -0.745281989E+01 -0.106917755E+00  0.332006430E+00
   C  0.701776513E+01  0.200961398E+00 -0.223574470E+00
   H -0.367607944E+02  0.333832298E+01 -0.442735094E+01
   H  0.353236080E+02 -0.254443766E+01  0.349621312E+01
     4
 # iter = 66000  time[fs]=66.00000
   C -0.754108240E+01 -0.108421414E+00  0.336164006E+00
   C  0.710115820E+01  0.203754023E+00 -0.226665285E+00
   H -0.371654968E+02  0.337565055E+01 -0.447685762E+01
   H  0.357095017E+02 -0.257213594E+01  0.353473853E+01
     4
 # iter = 66500  time[fs]=66.50000
   C -0.762940306E+01 -0.109927053E+00  0.340324891E+00
   C  0.718460939E+01  0.206548406E+00 -0.229759077E+00
   H -0.375703276E+02  0.341299145E+01 -0.452638262E+01
   H  0.360955243E+02 -0.259984489E+01  0.357327823E+01
     4
 # iter = 67000  time[fs]=67.00000
   C -0.771778054E+01 -0.111434633E+00  0.344489017E+00
   C  0.726811737E+01  0.209344511E+00 -0.232855782E+00
   H -0.379752842E+02  0.345034542E+01 -0.457592555E+01
   H  0.364816730E+02 -0.262756428E+01  0.361183195E+01
     4
 # iter = 67500  time[fs]=67.50000
   C -0.780621352E+01 -0.112944113E+00  0.348656313E+00
   C  0.735168081E+01  0.212142302E+00 -0.235955338E+00
   H -0.383803639E+02  0.348771218E+01 -0.462548603E+01
   H  0.368679453E+02 -0.265529389E+01  0.365039938E+01
     4
 # iter = 68000  time[fs]=68.00000
   C -0.789470075E+01 -0.114455454E+00  0.352826713E+00
   C  0.743529847E+01  0.214941745E+00 -0.239057684E+00
   H -0.387855642E+02  0.352509147E+01 -0.467506372E+01
   H  0.372543385E+02 -0.268303352E+01  0.368898026E+01
     4
 # iter = 68500  time[fs]=68.50000
   C -0.798324100E+01 -0.115968619E+00  0.357000152E+00
   C  0.751896912E+01  0.217742806E+00 -0.242162762E+00
   H -0.391908825E+02  0.356248303E+01 -0.472465826E+01
   H  0.376408502E+02 -0.271078297E+01  0.372757431E+01
     4
 # iter = 69000  time[fs]=69.00000
   C -0.807183310E+01 -0.117483571E+00  0.361176567E+00
   C  0.760269157E+01  0.220545454E+00 -0.245270516E+00
   H -0.395963165E+02  0.359988663E+01 -0.477426931E+01
   H  0.380274779E+02 -0.273854203E+01  0.376618126E+01
     4
 # iter = 69500  time[fs]=69.50000
   C -0.816047590E+01 -0.119000275E+00  0.365355898E+00
   C  0.768646469E+01  0.223349656E+00 -0.248380892E+00
   H -0.400018638E+02  0.363730202E+01 -0.482389655E+01
   H  0.384142195E+02 -0.276631052E+01  0.380480087E+01
     4
 # iter = 70000  time[fs]=70.00000
   C -0.824916829E+01 -0.120518696E+00  0.369538086E+00
   C  0.777028738E+01  0.226155383E+00 -0.251493835E+00
   H -0.404075222E+02  0.367472896E+01 -0.487353966E+01
   H  0.388010725E+02 -0.279408826E+01  0.384343288E+01
     4
 # iter = 70500  time[fs]=70.50000
   C -0.833790922E+01 -0.122038801E+00  0.373723073E+00
   C  0.785415856E+01  0.228962604E+00 -0.254609296E+00
   H -0.408132894E+02  0.371216725E+01 -0.492319833E+01
   H  0.391880348E+02 -0.282187505E+01  0.388207706E+01
     4
 # iter = 71000  time[fs]=71.00000
   C -0.842669764E+01 -0.123560557E+00  0.377910805E+00
   C  0.793807719E+01  0.231771291E+00 -0.257727223E+00
   H -0.412191634E+02  0.374961664E+01 -0.497287225E+01
   H  0.395751043E+02 -0.284967074E+01  0.392073318E+01
     4
 # iter = 71500  time[fs]=71.50000
   C -0.851553254E+01 -0.125083934E+00  0.382101226E+00
   C  0.802204227E+01  0.234581416E+00 -0.260847567E+00
   H -0.416251420E+02  0.378707694E+01 -0.502256115E+01
   H  0.399622788E+02 -0.287747514E+01  0.395940099E+01
     4
 # iter = 72000  time[fs]=72.00000
   C -0.860441296E+01 -0.126608899E+00  0.386294284E+00
   C  0.810605282E+01  0.237392951E+00 -0.263970283E+00
   H -0.420312232E+02  0.382454794E+01 -0.507226473E+01
   H  0.403495564E+02 -0.290528810E+01  0.399808030E+01
     4
 # iter = 72500  time[fs]=72.50000
   C -0.869333794E+01 -0.128135424E+00  0.390489930E+00
   C  0.819010792E+01  0.240205871E+00 -0.267095324E+00
   H -0.424374051E+02  0.386202944E+01 -0.512198273E+01
   H  0.407369352E+02 -0.293310945E+01  0.403677087E+01
     4
 # iter = 73000  time[fs]=73.00000
   C -0.878230659E+01 -0.129663480E+00  0.394688113E+00
   C  0.827420662E+01  0.243020149E+00 -0.270222646E+00
   H -0.428436857E+02  0.389952123E+01 -0.517171486E+01
   H  0.411244131E+02 -0.296093904E+01  0.407547251E+01
     4
 # iter = 73500  time[fs]=73.50000
   C -0.887131800E+01 -0.131193037E+00  0.398888784E+00
   C  0.835834806E+01  0.245835760E+00 -0.273352204E+00
   H -0.432500633E+02  0.393702314E+01 -0.522146088E+01
   H  0.415119884E+02 -0.298877671E+01  0.411418501E+01
     4
 # iter = 74000  time[fs]=74.00000
   C -0.896037132E+01 -0.132724070E+00  0.403091899E+00
   C  0.844253137E+01  0.248652681E+00 -0.276483959E+00
   H -0.436565359E+02  0.397453497E+01 -0.527122052E+01
   H  0.418996593E+02 -0.301662233E+01  0.415290817E+01
     4
 # iter = 74500  time[fs]=74.50000
   C -0.904946571E+01 -0.134256550E+00  0.407297410E+00
   C  0.852675571E+01  0.251470887E+00 -0.279617867E+00
   H -0.440631020E+02  0.401205656E+01 -0.532099355E+01
   H  0.422874240E+02 -0.304447574E+01  0.419164180E+01
     4
 # iter = 75000  time[fs]=75.00000
   C -0.913860036E+01 -0.135790452E+00  0.411505274E+00
   C  0.861102028E+01  0.254290355E+00 -0.282753890E+00
   H -0.444697597E+02  0.404958771E+01 -0.537077972E+01
   H  0.426752808E+02 -0.307233680E+01  0.423038572E+01
     4
 # iter = 75500  time[fs]=75.50000
   C -0.922777448E+01 -0.137325751E+00  0.415715448E+00
   C  0.869532427E+01  0.257111063E+00 -0.285891990E+00
   H -0.448765074E+02  0.408712827E+01 -0.542057880E+01
   H  0.430632281E+02 -0.310020539E+01  0.426913973E+01
     4
 # iter = 76000  time[fs]=76.00000
   C -0.931698730E+01 -0.138862422E+00  0.419927890E+00
   C  0.877966694E+01  0.259932989E+00 -0.289032127E+00
   H -0.452833435E+02  0.412467806E+01 -0.547039057E+01
   H  0.434512643E+02 -0.312808136E+01  0.430790368E+01
     4
 # iter = 76500  time[fs]=76.50000
   C -0.940623809E+01 -0.140400440E+00  0.424142560E+00
   C  0.886404753E+01  0.262756111E+00 -0.292174266E+00
   H -0.456902665E+02  0.416223693E+01 -0.552021479E+01
   H  0.438393877E+02 -0.315596460E+01  0.434667738E+01
     4
 # iter = 77000  time[fs]=77.00000
   C -0.949552612E+01 -0.141939784E+00  0.428359417E+00
   C  0.894846532E+01  0.265580409E+00 -0.295318372E+00
   H -0.460972747E+02  0.419980471E+01 -0.557005126E+01
   H  0.442275968E+02 -0.318385496E+01  0.438546066E+01
     4
 # iter = 77500  time[fs]=77.50000
   C -0.958485068E+01 -0.143480429E+00  0.432578423E+00
   C  0.903291960E+01  0.268405863E+00 -0.298464408E+00
   H -0.465043667E+02  0.423738127E+01 -0.561989976E+01
   H  0.446158903E+02 -0.321175234E+01  0.442425337E+01
     4
 # iter = 78000  time[fs]=78.00000
   C -0.967421109E+01 -0.145022354E+00  0.436799540E+00
   C  0.911740970E+01  0.271232453E+00 -0.301612342E+00
   H -0.469115411E+02  0.427496643E+01 -0.566976010E+01
   H  0.450042665E+02 -0.323965661E+01  0.446305533E+01
     4
 # iter = 78500  time[fs]=78.50000
   C -0.976360669E+01 -0.146565536E+00  0.441022732E+00
   C  0.920193496E+01  0.274060159E+00 -0.304762140E+00
   H -0.473187965E+02  0.431256007E+01 -0.571963206E+01
   H  0.453927242E+02 -0.326756766E+01  0.450186640E+01
     4
 # iter = 79000  time[fs]=79.00000
   C -0.985303684E+01 -0.148109955E+00  0.445247964E+00
   C  0.928649471E+01  0.276888963E+00 -0.307913771E+00
   H -0.477261314E+02  0.435016204E+01 -0.576951546E+01
   H  0.457812618E+02 -0.329548536E+01  0.454068643E+01
     4
 # iter = 79500  time[fs]=79.50000
   C -0.994250089E+01 -0.149655591E+00  0.449475199E+00
   C  0.937108834E+01  0.279718847E+00 -0.311067202E+00
   H -0.481335445E+02  0.438777220E+01 -0.581941010E+01
   H  0.461698782E+02 -0.332340962E+01  0.457951526E+01
     4
 # iter = 80000  time[fs]=80.00000
   C -0.100319982E+02 -0.151202422E+00  0.453704405E+00
   C  0.945571523E+01  0.282549793E+00 -0.314222405E+00
   H -0.485410346E+02  0.442539041E+01 -0.586931581E+01
   H  0.465585719E+02 -0.335134033E+01  0.461835276E+01
