     4
 # iter = 25000  time[fs]=25.00000
   C -0.976113004E+00 -0.411732118E-01  0.660793804E-02
   C  0.102314867E+01 -0.410638568E-01 -0.942497217E-02
   H -0.526447013E+01  0.635875879E+00  0.484404097E+00
   H  0.531437332E+01 -0.572300453E+00 -0.508768040E+00
     4
 # iter = 25500  time[fs]=25.50000
   C -0.102097504E+01 -0.449826476E-01  0.557950205E-02
   C  0.106686852E+01 -0.406469071E-01 -0.791948289E-02
   H -0.559495477E+01  0.676285855E+00  0.514953831E+00
   H  0.563552940E+01 -0.608254691E+00 -0.541668111E+00
     4
 # iter = 26000  time[fs]=26.00000
   C -0.106871085E+01 -0.488245577E-01  0.455434312E-02
   C  0.111339732E+01 -0.401986611E-01 -0.640595419E-02
   H -0.593041349E+01  0.717369247E+00  0.545987624E+00
   H  0.596243758E+01 -0.644868210E+00 -0.575188039E+00
     4
 # iter = 26500  time[fs]=26.50000
   C -0.111908253E+01 -0.527003977E-01  0.352884876E-02
   C  0.116250415E+01 -0.397173089E-01 -0.488182698E-02
   H -0.627029475E+01  0.759050519E+00  0.577451379E+00
   H  0.629446232E+01 -0.682069725E+00 -0.609261086E+00
     4
 # iter = 27000  time[fs]=27.00000
   C -0.117186869E+01 -0.566109833E-01  0.250012007E-02
   C  0.121397364E+01 -0.392017681E-01 -0.334512730E-02
   H -0.661412914E+01  0.801265684E+00  0.609299222E+00
   H  0.663106199E+01 -0.719798447E+00 -0.643830278E+00
     4
 # iter = 27500  time[fs]=27.50000
   C -0.122686526E+01 -0.605565906E-01  0.146588475E-02
   C  0.126760692E+01 -0.386515607E-01 -0.179439677E-02
   H -0.696151454E+01  0.843960135E+00  0.641491975E+00
   H  0.697177219E+01 -0.758002195E+00 -0.678846672E+00
     4
 # iter = 28000  time[fs]=28.00000
   C -0.128388549E+01 -0.645370592E-01  0.424403927E-03
   C  0.132322173E+01 -0.380666925E-01 -0.228614787E-03
   H -0.731210441E+01  0.887086952E+00  0.673995952E+00
   H  0.731619239E+01 -0.796635903E+00 -0.714267960E+00
     4
 # iter = 28500  time[fs]=28.50000
   C -0.134275929E+01 -0.685518894E-01 -0.625617364E-03
   C  0.138065189E+01 -0.374475449E-01  0.135287772E-02
   H -0.766559836E+01  0.930605563E+00  0.706782008E+00
   H  0.766397522E+01 -0.835660419E+00 -0.750057368E+00
     4
 # iter = 29000  time[fs]=29.00000
   C -0.140333234E+01 -0.726003270E-01 -0.168511120E-02
   C  0.143974652E+01 -0.367947808E-01  0.295044798E-02
   H -0.802173461E+01  0.974480677E+00  0.739824779E+00
   H  0.801481784E+01 -0.875041546E+00 -0.786182754E+00
     4
 # iter = 29500  time[fs]=29.50000
   C -0.146546493E+01 -0.766814347E-01 -0.275471726E-02
   C  0.150036891E+01 -0.361092677E-01  0.456423225E-02
   H -0.838028385E+01  0.101868143E+01  0.773102075E+00
   H  0.836845487E+01 -0.914749261E+00 -0.822615886E+00
     4
 # iter = 30000  time[fs]=30.00000
   C -0.152903079E+01 -0.807941503E-01 -0.383484251E-02
   C  0.156239542E+01 -0.353920139E-01  0.619418726E-02
   H -0.874104430E+01  0.106318070E+01  0.806594382E+00
   H  0.872465273E+01 -0.954757077E+00 -0.859331848E+00
     4
 # iter = 30500  time[fs]=30.50000
   C -0.159391583E+01 -0.849373328E-01 -0.492571079E-02
   C  0.162571433E+01 -0.346441196E-01  0.784013291E-02
   H -0.910383754E+01  0.110795450E+01  0.840284459E+00
   H  0.908320486E+01 -0.995041523E+00 -0.896308551E+00
     4
 # iter = 31000  time[fs]=31.00000
   C -0.166001700E+01 -0.891097981E-01 -0.602740341E-02
   C  0.169022466E+01 -0.338667374E-01  0.950178692E-02
   H -0.946850522E+01  0.115298159E+01  0.874157005E+00
   H  0.944392785E+01 -0.103558171E+01 -0.933526331E+00
     4
 # iter = 31500  time[fs]=31.50000
   C -0.172724117E+01 -0.933103469E-01 -0.713989205E-02
   C  0.175583515E+01 -0.330610435E-01  0.111787927E-01
   H -0.983490618E+01  0.119824303E+01  0.908198385E+00
   H  0.980665821E+01 -0.107635898E+01 -0.970967615E+00
     4
 # iter = 32000  time[fs]=32.00000
   C -0.179550415E+01 -0.975377848E-01 -0.826306514E-02
   C  0.182246327E+01 -0.322282152E-01  0.128707415E-01
   H -0.102029141E+02  0.124372186E+01  0.942396404E+00
   H  0.101712497E+02 -0.111735660E+01 -0.100861664E+01
     4
 # iter = 32500  time[fs]=32.50000
   C -0.186472969E+01 -0.101790937E+00 -0.939674900E-02
   C  0.189003429E+01 -0.313694145E-01  0.145771896E-01
   H -0.105724157E+02  0.128940289E+01  0.976740111E+00
   H  0.105375708E+02 -0.115855950E+01 -0.104645922E+01
     4
 # iter = 33000  time[fs]=33.00000
   C -0.193484873E+01 -0.106068661E+00 -0.105407244E-01
   C  0.195848047E+01 -0.304857768E-01  0.162976723E-01
   H -0.109433087E+02  0.133527242E+01  0.101121964E+01
   H  0.109055034E+02 -0.119995409E+01 -0.108448253E+01
     4
 # iter = 33500  time[fs]=33.50000
   C -0.200579857E+01 -0.110369851E+00 -0.116947399E-01
   C  0.202774034E+01 -0.295784025E-01  0.180317136E-01
   H -0.113155009E+02  0.138131805E+01  0.104582607E+01
   H  0.112749405E+02 -0.124152804E+01 -0.112267497E+01
     4
 # iter = 34000  time[fs]=34.00000
   C -0.207752222E+01 -0.114693443E+00 -0.128585219E-01
   C  0.209775803E+01 -0.286483515E-01  0.197788348E-01
   H -0.116889086E+02  0.142752858E+01  0.108055133E+01
   H  0.116457852E+02 -0.128327017E+01 -0.116102599E+01
     4
 # iter = 34500  time[fs]=34.50000
   C -0.214996783E+01 -0.119038420E+00 -0.140317831E-01
   C  0.216848266E+01 -0.276966406E-01  0.215385603E-01
   H -0.120634558E+02  0.147389380E+01  0.111538805E+01
   H  0.120179493E+02 -0.132517029E+01 -0.119952599E+01
     4
 # iter = 35000  time[fs]=35.00000
   C -0.222308808E+01 -0.123403812E+00 -0.152142281E-01
   C  0.223986788E+01 -0.267242407E-01  0.233104218E-01
   H -0.124390733E+02  0.152040441E+01  0.115032955E+01
   H  0.123913525E+02 -0.136721909E+01 -0.123816618E+01
     4
 # iter = 35500  time[fs]=35.50000
   C -0.229683981E+01 -0.127788696E+00 -0.164055588E-01
   C  0.231187132E+01 -0.257320775E-01  0.250939617E-01
   H -0.128156976E+02  0.156705190E+01  0.118536968E+01
   H  0.127659216E+02 -0.140940803E+01 -0.127693852E+01
     4
 # iter = 36000  time[fs]=36.00000
   C -0.237118350E+01 -0.132192194E+00 -0.176054777E-01
   C  0.238445425E+01 -0.247210306E-01  0.268887355E-01
   H -0.131932709E+02  0.161382849E+01  0.122050285E+01
   H  0.131415892E+02 -0.145172930E+01 -0.131583565E+01
     4
 # iter = 36500  time[fs]=36.50000
   C -0.244608295E+01 -0.136613474E+00 -0.188136907E-01
   C  0.245758117E+01 -0.236919352E-01  0.286943131E-01
   H -0.135717399E+02  0.166072703E+01  0.125572390E+01
   H  0.135182939E+02 -0.149417571E+01 -0.135485077E+01
     4
 # iter = 37000  time[fs]=37.00000
   C -0.252150493E+01 -0.141051751E+00 -0.200299093E-01
   C  0.253121950E+01 -0.226455832E-01  0.305102800E-01
   H -0.139510557E+02  0.170774092E+01  0.129102808E+01
   H  0.138959786E+02 -0.153674061E+01 -0.139397762E+01
     4
 # iter = 37500  time[fs]=37.50000
   C -0.259741890E+01 -0.145506277E+00 -0.212538519E-01
   C  0.260533931E+01 -0.215827245E-01  0.323362375E-01
   H -0.143311730E+02  0.175486410E+01  0.132641101E+01
   H  0.142745913E+02 -0.157941787E+01 -0.143321043E+01
     4
 # iter = 38000  time[fs]=38.00000
   C -0.267379674E+01 -0.149976348E+00 -0.224852447E-01
   C  0.267991301E+01 -0.205040694E-01  0.341718032E-01
   H -0.147120503E+02  0.180209096E+01  0.136186865E+01
   H  0.146540835E+02 -0.162220184E+01 -0.147254385E+01
     4
 # iter = 38500  time[fs]=38.50000
   C -0.275061251E+01 -0.154461296E+00 -0.237238229E-01
   C  0.275491518E+01 -0.194102898E-01  0.360166109E-01
   H -0.150936488E+02  0.184941629E+01  0.139739726E+01
   H  0.150344105E+02 -0.166508724E+01 -0.151197291E+01
     4
 # iter = 39000  time[fs]=39.00000
   C -0.282784225E+01 -0.158960492E+00 -0.249693305E-01
   C  0.283032233E+01 -0.183020216E-01  0.378703105E-01
   H -0.154759329E+02  0.189683528E+01  0.143299336E+01
   H  0.154155309E+02 -0.170806919E+01 -0.155149300E+01
     4
 # iter = 39500  time[fs]=39.50000
   C -0.290546379E+01 -0.163473339E+00 -0.262215212E-01
   C  0.290611273E+01 -0.171798665E-01  0.397325672E-01
   H -0.158588692E+02  0.194434344E+01  0.146865371E+01
   H  0.157974061E+02 -0.175114314E+01 -0.159109985E+01
     4
 # iter = 40000  time[fs]=40.00000
   C -0.298345659E+01 -0.167999273E+00 -0.274801578E-01
   C  0.298226627E+01 -0.160443939E-01  0.416030616E-01
   H -0.162424269E+02  0.199193660E+01  0.150437532E+01
   H  0.161800003E+02 -0.179430487E+01 -0.163078945E+01
     4
 # iter = 40500  time[fs]=40.50000
   C -0.306180161E+01 -0.172537761E+00 -0.287450128E-01
   C  0.305876426E+01 -0.148961424E-01  0.434814886E-01
   H -0.166265772E+02  0.203961088E+01  0.154015538E+01
   H  0.165632801E+02 -0.183755041E+01 -0.167055807E+01
     4
 # iter = 41000  time[fs]=41.00000
   C -0.314048113E+01 -0.177088298E+00 -0.300158678E-01
   C  0.313558936E+01 -0.137356223E-01  0.453675575E-01
   H -0.170112931E+02  0.208736265E+01  0.157599127E+01
   H  0.169472143E+02 -0.188087607E+01 -0.171040223E+01
     4
 # iter = 41500  time[fs]=41.50000
   C -0.321947868E+01 -0.181650406E+00 -0.312925133E-01
   C  0.321272543E+01 -0.125633165E-01  0.472609909E-01
   H -0.173965496E+02  0.213518850E+01  0.161188055E+01
   H  0.173317739E+02 -0.192427838E+01 -0.175031866E+01
     4
 # iter = 42000  time[fs]=42.00000
   C -0.329877891E+01 -0.186223633E+00 -0.325747489E-01
   C  0.329015742E+01 -0.113796828E-01  0.491615244E-01
   H -0.177823230E+02  0.218308526E+01  0.164782093E+01
   H  0.177169316E+02 -0.196775412E+01 -0.179030430E+01
     4
 # iter = 42500  time[fs]=42.50000
   C -0.337836751E+01 -0.190807551E+00 -0.338623826E-01
   C  0.336787131E+01 -0.101851548E-01  0.510689056E-01
   H -0.181685915E+02  0.223104994E+01  0.168381024E+01
   H  0.181026618E+02 -0.201130022E+01 -0.183035629E+01
     4
 # iter = 43000  time[fs]=43.00000
   C -0.345823109E+01 -0.195401753E+00 -0.351552306E-01
   C  0.344585399E+01 -0.898014376E-02  0.529828942E-01
   H -0.185553342E+02  0.227907975E+01  0.171984649E+01
   H  0.184889406E+02 -0.205491383E+01 -0.187047192E+01
     4
 # iter = 43500  time[fs]=43.50000
   C -0.353835715E+01 -0.200005854E+00 -0.364531171E-01
   C  0.352409322E+01 -0.776503990E-02  0.549032606E-01
   H -0.189425318E+02  0.232717206E+01  0.175592776E+01
   H  0.188757454E+02 -0.209859226E+01 -0.191064865E+01
     4
 # iter = 44000  time[fs]=44.00000
   C -0.361873397E+01 -0.204619489E+00 -0.377558737E-01
   C  0.360257752E+01 -0.654021354E-02  0.568297862E-01
   H -0.193301659E+02  0.237532438E+01  0.179205227E+01
   H  0.192630551E+02 -0.214233298E+01 -0.195088409E+01
     4
 # iter = 44500  time[fs]=44.50000
   C -0.369935057E+01 -0.209242311E+00 -0.390633396E-01
   C  0.368129613E+01 -0.530601638E-02  0.587622621E-01
   H -0.197182194E+02  0.242353439E+01  0.182821835E+01
   H  0.196508498E+02 -0.218613358E+01 -0.199117598E+01
     4
 # iter = 45000  time[fs]=45.00000
   C -0.378019664E+01 -0.213873990E+00 -0.403753605E-01
   C  0.376023896E+01 -0.406278261E-02  0.607004890E-01
   H -0.201066760E+02  0.247179987E+01  0.186442440E+01
   H  0.200391105E+02 -0.222999182E+01 -0.203152220E+01
     4
 # iter = 45500  time[fs]=45.50000
   C -0.386126249E+01 -0.218514213E+00 -0.416917892E-01
   C  0.383939652E+01 -0.281082996E-02  0.626442768E-01
   H -0.204955204E+02  0.252011875E+01  0.190066892E+01
   H  0.204278196E+02 -0.227390555E+01 -0.207192073E+01
     4
 # iter = 46000  time[fs]=46.00000
   C -0.394253902E+01 -0.223162683E+00 -0.430124844E-01
   C  0.391875991E+01 -0.155046066E-02  0.645934436E-01
   H -0.208847381E+02  0.256848907E+01  0.193695050E+01
   H  0.208169603E+02 -0.231787276E+01 -0.211236966E+01
     4
 # iter = 46500  time[fs]=46.50000
   C -0.402401764E+01 -0.227819115E+00 -0.443373113E-01
   C  0.399832071E+01 -0.281962392E-03  0.665478160E-01
   H -0.212743154E+02  0.261690896E+01  0.197326780E+01
   H  0.212065167E+02 -0.236189154E+01 -0.215286720E+01
     4
 # iter = 47000  time[fs]=47.00000
   C -0.410569027E+01 -0.232483240E+00 -0.456661404E-01
   C  0.407807101E+01  0.994390867E-03  0.685072281E-01
   H -0.216642393E+02  0.266537665E+01  0.200961954E+01
   H  0.215964738E+02 -0.240596007E+01 -0.219341164E+01
     4
 # iter = 47500  time[fs]=47.50000
   C -0.418754928E+01 -0.237154801E+00 -0.469988478E-01
   C  0.415800336E+01  0.227833806E-02  0.704715211E-01
   H -0.220544977E+02  0.271389049E+01  0.204600452E+01
   H  0.219868175E+02 -0.245007663E+01 -0.223400134E+01
     4
 # iter = 48000  time[fs]=48.00000
   C -0.426958747E+01 -0.241833553E+00 -0.483353150E-01
   C  0.423811069E+01  0.356963027E-02  0.724405434E-01
   H -0.224450787E+02  0.276244888E+01  0.208242159E+01
   H  0.223775341E+02 -0.249423960E+01 -0.227463478E+01
     4
 # iter = 48500  time[fs]=48.50000
   C -0.435179803E+01 -0.246519262E+00 -0.496754282E-01
   C  0.431838634E+01  0.486803007E-02  0.744141498E-01
   H -0.228359714E+02  0.281105032E+01  0.211886969E+01
   H  0.227686109E+02 -0.253844742E+01 -0.231531049E+01
     4
 # iter = 49000  time[fs]=49.00000
   C -0.443417451E+01 -0.251211706E+00 -0.510190785E-01
   C  0.439882402E+01  0.617331079E-02  0.763922013E-01
   H -0.232271653E+02  0.285969337E+01  0.215534776E+01
   H  0.231600357E+02 -0.258269862E+01 -0.235602707E+01
     4
 # iter = 49500  time[fs]=49.50000
   C -0.451671081E+01 -0.255910671E+00 -0.523661613E-01
   C  0.447941774E+01  0.748525599E-02  0.783745648E-01
   H -0.236186503E+02  0.290837668E+01  0.219185482E+01
   H  0.235517969E+02 -0.262699178E+01 -0.239678320E+01
     4
 # iter = 50000  time[fs]=50.00000
   C -0.459940116E+01 -0.260615954E+00 -0.537165764E-01
   C  0.456016186E+01  0.880365885E-02  0.803611127E-01
   H -0.240104169E+02  0.295709894E+01  0.222838996E+01
   H  0.239438836E+02 -0.267132558E+01 -0.243757763E+01
     4
 # iter = 50500  time[fs]=50.50000
   C -0.468224007E+01 -0.265327360E+00 -0.550702275E-01
   C  0.464105100E+01  0.101283216E-01  0.823517227E-01
   H -0.244024561E+02  0.300585892E+01  0.226495226E+01
   H  0.243362852E+02 -0.271569873E+01 -0.247840914E+01
     4
 # iter = 51000  time[fs]=51.00000
   C -0.476522232E+01 -0.270044704E+00 -0.564270224E-01
   C  0.472208009E+01  0.114590551E-01  0.843462777E-01
   H -0.247947593E+02  0.305465544E+01  0.230154089E+01
   H  0.247289918E+02 -0.276011002E+01 -0.251927658E+01
     4
 # iter = 51500  time[fs]=51.50000
   C -0.484834298E+01 -0.274767808E+00 -0.577868724E-01
   C  0.480324426E+01  0.127956783E-01  0.863446652E-01
   H -0.251873182E+02  0.310348738E+01  0.233815503E+01
   H  0.251219938E+02 -0.280455829E+01 -0.256017887E+01
     4
 # iter = 52000  time[fs]=52.00000
   C -0.493159735E+01 -0.279496502E+00 -0.591496922E-01
   C  0.488453894E+01  0.141380178E-01  0.883467772E-01
   H -0.255801250E+02  0.315235367E+01  0.237479391E+01
   H  0.255152821E+02 -0.284904242E+01 -0.260111496E+01
     4
 # iter = 52500  time[fs]=52.50000
   C -0.501498094E+01 -0.284230621E+00 -0.605154001E-01
   C  0.496595974E+01  0.154859076E-01  0.903525100E-01
   H -0.259731721E+02  0.320125327E+01  0.241145679E+01
   H  0.259088480E+02 -0.289356136E+01 -0.264208384E+01
     4
 # iter = 53000  time[fs]=53.00000
   C -0.509848950E+01 -0.288970011E+00 -0.618839173E-01
   C  0.504750249E+01  0.168391884E-01  0.923617642E-01
   H -0.263664524E+02  0.325018520E+01  0.244814297E+01
   H  0.263026832E+02 -0.293811408E+01 -0.268308455E+01
     4
 # iter = 53500  time[fs]=53.50000
   C -0.518211897E+01 -0.293714521E+00 -0.632551682E-01
   C  0.512916323E+01  0.181977076E-01  0.943744440E-01
   H -0.267599590E+02  0.329914854E+01  0.248485176E+01
   H  0.266967799E+02 -0.298269963E+01 -0.272411619E+01
     4
 # iter = 54000  time[fs]=54.00000
   C -0.526586547E+01 -0.298464007E+00 -0.646290799E-01
   C  0.521093818E+01  0.195613186E-01  0.963904574E-01
   H -0.271536854E+02  0.334814237E+01  0.252158252E+01
   H  0.270911303E+02 -0.302731706E+01 -0.276517786E+01
     4
 # iter = 54500  time[fs]=54.50000
   C -0.534972532E+01 -0.303218331E+00 -0.660055825E-01
   C  0.529282371E+01  0.209298808E-01  0.984097160E-01
   H -0.275476253E+02  0.339716584E+01  0.255833462E+01
   H  0.274857272E+02 -0.307196548E+01 -0.280626874E+01
     4
 # iter = 55000  time[fs]=55.00000
   C -0.543369499E+01 -0.307977361E+00 -0.673846084E-01
   C  0.537481639E+01  0.223032591E-01  0.100432135E+00
   H -0.279417726E+02  0.344621813E+01  0.259510748E+01
   H  0.278805637E+02 -0.311664404E+01 -0.284738801E+01
     4
 # iter = 55500  time[fs]=55.50000
   C -0.551777111E+01 -0.312740969E+00 -0.687660927E-01
   C  0.545691292E+01  0.236813238E-01  0.102457631E+00
   H -0.283361216E+02  0.349529843E+01  0.263190052E+01
   H  0.282756330E+02 -0.316135191E+01 -0.288853490E+01
     4
 # iter = 56000  time[fs]=56.00000
   C -0.560195045E+01 -0.317509033E+00 -0.701499727E-01
   C  0.553911015E+01  0.250639500E-01  0.104486127E+00
   H -0.287306667E+02  0.354440599E+01  0.266871320E+01
   H  0.286709287E+02 -0.320608832E+01 -0.292970866E+01
     4
 # iter = 56500  time[fs]=56.50000
   C -0.568622995E+01 -0.322281435E+00 -0.715361883E-01
   C  0.562140507E+01  0.264510178E-01  0.106517547E+00
   H -0.291254026E+02  0.359354009E+01  0.270554499E+01
   H  0.290664448E+02 -0.325085250E+01 -0.297090859E+01
     4
 # iter = 57000  time[fs]=57.00000
   C -0.577060665E+01 -0.327058063E+00 -0.729246812E-01
   C  0.570379481E+01  0.278424118E-01  0.108551816E+00
   H -0.295203242E+02  0.364270002E+01  0.274239538E+01
   H  0.294621752E+02 -0.329564372E+01 -0.301213399E+01
     4
 # iter = 57500  time[fs]=57.50000
   C -0.585507772E+01 -0.331838806E+00 -0.743153952E-01
   C  0.578627660E+01  0.292380208E-01  0.110588864E+00
   H -0.299154267E+02  0.369188510E+01  0.277926389E+01
   H  0.298581144E+02 -0.334046128E+01 -0.305338421E+01
     4
 # iter = 58000  time[fs]=58.00000
   C -0.593964047E+01 -0.336623561E+00 -0.757082764E-01
   C  0.586884781E+01  0.306377379E-01  0.112628624E+00
   H -0.303107052E+02  0.374109469E+01  0.281615005E+01
   H  0.302542567E+02 -0.338530452E+01 -0.309465862E+01
     4
 # iter = 58500  time[fs]=58.50000
   C -0.602429230E+01 -0.341412226E+00 -0.771032724E-01
   C  0.595150588E+01  0.320414598E-01  0.114671029E+00
   H -0.307061553E+02  0.379032817E+01  0.285305342E+01
   H  0.306505971E+02 -0.343017278E+01 -0.313595659E+01
     4
 # iter = 59000  time[fs]=59.00000
   C -0.610903072E+01 -0.346204703E+00 -0.785003328E-01
   C  0.603424840E+01  0.334490873E-01  0.116716016E+00
   H -0.311017725E+02  0.383958493E+01  0.288997355E+01
   H  0.310471305E+02 -0.347506544E+01 -0.317727755E+01
     4
 # iter = 59500  time[fs]=59.50000
   C -0.619385335E+01 -0.351000900E+00 -0.798994089E-01
   C  0.611707304E+01  0.348605246E-01  0.118763525E+00
   H -0.314975528E+02  0.388886441E+01  0.292691005E+01
   H  0.314438519E+02 -0.351998190E+01 -0.321862092E+01
     4
 # iter = 60000  time[fs]=60.00000
   C -0.627875789E+01 -0.355800724E+00 -0.813004536E-01
   C  0.619997754E+01  0.362756792E-01  0.120813495E+00
   H -0.318934920E+02  0.393816603E+01  0.296386249E+01
   H  0.318407568E+02 -0.356492158E+01 -0.325998617E+01
     4
 # iter = 60500  time[fs]=60.50000
   C -0.636374214E+01 -0.360604090E+00 -0.827034215E-01
   C  0.628295977E+01  0.376944621E-01  0.122865869E+00
   H -0.322895862E+02  0.398748927E+01  0.300083050E+01
   H  0.322378406E+02 -0.360988392E+01 -0.330137276E+01
     4
 # iter = 61000  time[fs]=61.00000
   C -0.644880398E+01 -0.365410913E+00 -0.841082685E-01
   C  0.636601765E+01  0.391167871E-01  0.124920593E+00
   H -0.326858318E+02  0.403683361E+01  0.303781371E+01
   H  0.326350989E+02 -0.365486839E+01 -0.334278019E+01
     4
 # iter = 61500  time[fs]=61.50000
   C -0.653394138E+01 -0.370221110E+00 -0.855149522E-01
   C  0.644914920E+01  0.405425712E-01  0.126977613E+00
   H -0.330822250E+02  0.408619855E+01  0.307481175E+01
   H  0.330325276E+02 -0.369987446E+01 -0.338420797E+01
     4
 # iter = 62000  time[fs]=62.00000
   C -0.661915238E+01 -0.375034605E+00 -0.869234314E-01
   C  0.653235250E+01  0.419717341E-01  0.129036878E+00
   H -0.334787623E+02  0.413558361E+01  0.311182428E+01
   H  0.334301226E+02 -0.374490163E+01 -0.342565562E+01
     4
 # iter = 62500  time[fs]=62.50000
   C -0.670443510E+01 -0.379851320E+00 -0.883336662E-01
   C  0.661562572E+01  0.434041982E-01  0.131098337E+00
   H -0.338754405E+02  0.418498831E+01  0.314885096E+01
   H  0.338278801E+02 -0.378994942E+01 -0.346712269E+01
     4
 # iter = 63000  time[fs]=63.00000
   C -0.678978771E+01 -0.384671183E+00 -0.897456182E-01
   C  0.669896707E+01  0.448398885E-01  0.133161942E+00
   H -0.342722561E+02  0.423441222E+01  0.318589147E+01
   H  0.342257962E+02 -0.383501735E+01 -0.350860873E+01
     4
 # iter = 63500  time[fs]=63.50000
   C -0.687520848E+01 -0.389494122E+00 -0.911592500E-01
   C  0.678237485E+01  0.462787326E-01  0.135227646E+00
   H -0.346692062E+02  0.428385490E+01  0.322294550E+01
   H  0.346238673E+02 -0.388010499E+01 -0.355011332E+01
     4
 # iter = 64000  time[fs]=64.00000
   C -0.696069571E+01 -0.394320069E+00 -0.925745255E-01
   C  0.686584742E+01  0.477206602E-01  0.137295404E+00
   H -0.350662876E+02  0.433331592E+01  0.326001274E+01
   H  0.350220899E+02 -0.392521188E+01 -0.359163606E+01
     4
 # iter = 64500  time[fs]=64.50000
   C -0.704624779E+01 -0.399148957E+00 -0.939914096E-01
   C  0.694938320E+01  0.491656035E-01  0.139365173E+00
   H -0.354634974E+02  0.438279489E+01  0.329709290E+01
   H  0.354204606E+02 -0.397033761E+01 -0.363317652E+01
     4
 # iter = 65000  time[fs]=65.00000
   C -0.713186314E+01 -0.403980722E+00 -0.954098684E-01
   C  0.703298064E+01  0.506134967E-01  0.141436909E+00
   H -0.358608328E+02  0.443229141E+01  0.333418570E+01
   H  0.358189762E+02 -0.401548176E+01 -0.367473435E+01
     4
 # iter = 65500  time[fs]=65.50000
   C -0.721754025E+01 -0.408815301E+00 -0.968298690E-01
   C  0.711663828E+01  0.520642764E-01  0.143510571E+00
   H -0.362582909E+02  0.448180510E+01  0.337129086E+01
   H  0.362176333E+02 -0.406064394E+01 -0.371630915E+01
     4
 # iter = 66000  time[fs]=66.00000
   C -0.730327767E+01 -0.413652636E+00 -0.982513795E-01
   C  0.720035468E+01  0.535178808E-01  0.145586120E+00
   H -0.366558692E+02  0.453133559E+01  0.340840812E+01
   H  0.366164290E+02 -0.410582377E+01 -0.375790056E+01
     4
 # iter = 66500  time[fs]=66.50000
   C -0.738907398E+01 -0.418492666E+00 -0.996743689E-01
   C  0.728412848E+01  0.549742502E-01  0.147663516E+00
   H -0.370535651E+02  0.458088253E+01  0.344553723E+01
   H  0.370153603E+02 -0.415102087E+01 -0.379950825E+01
     4
 # iter = 67000  time[fs]=67.00000
   C -0.747492782E+01 -0.423335335E+00 -0.101098807E+00
   C  0.736795835E+01  0.564333268E-01  0.149742722E+00
   H -0.374513760E+02  0.463044557E+01  0.348267793E+01
   H  0.374144243E+02 -0.419623489E+01 -0.384113186E+01
     4
 # iter = 67500  time[fs]=67.50000
   C -0.756083788E+01 -0.428180590E+00 -0.102524665E+00
   C  0.745184299E+01  0.578950545E-01  0.151823702E+00
   H -0.378492996E+02  0.468002437E+01  0.351982998E+01
   H  0.378136181E+02 -0.424146547E+01 -0.388277107E+01
     4
 # iter = 68000  time[fs]=68.00000
   C -0.764680288E+01 -0.433028375E+00 -0.103951915E+00
   C  0.753578117E+01  0.593593789E-01  0.153906419E+00
   H -0.382473335E+02  0.472961862E+01  0.355699315E+01
   H  0.382129391E+02 -0.428671228E+01 -0.392442555E+01
     4
 # iter = 68500  time[fs]=68.50000
   C -0.773282160E+01 -0.437878641E+00 -0.105380528E+00
   C  0.761977169E+01  0.608262471E-01  0.155990841E+00
   H -0.386454755E+02  0.477922799E+01  0.359416722E+01
   H  0.386123847E+02 -0.433197498E+01 -0.396609501E+01
     4
 # iter = 69000  time[fs]=69.00000
   C -0.781889284E+01 -0.442731336E+00 -0.106810479E+00
   C  0.770381338E+01  0.622956081E-01  0.158076932E+00
   H -0.390437232E+02  0.482885219E+01  0.363135195E+01
   H  0.390119523E+02 -0.437725327E+01 -0.400777914E+01
     4
 # iter = 69500  time[fs]=69.50000
   C -0.790501545E+01 -0.447586412E+00 -0.108241741E+00
   C  0.778790512E+01  0.637674120E-01  0.160164662E+00
   H -0.394420747E+02  0.487849092E+01  0.366854715E+01
   H  0.394116395E+02 -0.442254682E+01 -0.404947764E+01
     4
 # iter = 70000  time[fs]=70.00000
   C -0.799118831E+01 -0.452443822E+00 -0.109674290E+00
   C  0.787204583E+01  0.652416106E-01  0.162253998E+00
   H -0.398405278E+02  0.492814388E+01  0.370575261E+01
   H  0.398114438E+02 -0.446785535E+01 -0.409119024E+01
     4
 # iter = 70500  time[fs]=70.50000
   C -0.807741036E+01 -0.457303520E+00 -0.111108100E+00
   C  0.795623444E+01  0.667181571E-01  0.164344909E+00
   H -0.402390805E+02  0.497781081E+01  0.374296811E+01
   H  0.402113629E+02 -0.451317855E+01 -0.413291666E+01
     4
 # iter = 71000  time[fs]=71.00000
   C -0.816368053E+01 -0.462165462E+00 -0.112543148E+00
   C  0.804046995E+01  0.681970060E-01  0.166437366E+00
   H -0.406377309E+02  0.502749143E+01  0.378019348E+01
   H  0.406113946E+02 -0.455851615E+01 -0.417465663E+01
     4
 # iter = 71500  time[fs]=71.50000
   C -0.824999782E+01 -0.467029604E+00 -0.113979410E+00
   C  0.812475135E+01  0.696781129E-01  0.168531341E+00
   H -0.410364770E+02  0.507718548E+01  0.381742851E+01
   H  0.410115367E+02 -0.460386787E+01 -0.421640990E+01
     4
 # iter = 72000  time[fs]=72.00000
   C -0.833636125E+01 -0.471895905E+00 -0.115416865E+00
   C  0.820907769E+01  0.711614350E-01  0.170626804E+00
   H -0.414353170E+02  0.512689270E+01  0.385467303E+01
   H  0.414117870E+02 -0.464923344E+01 -0.425817622E+01
     4
 # iter = 72500  time[fs]=72.50000
   C -0.842276986E+01 -0.476764323E+00 -0.116855490E+00
   C  0.829344805E+01  0.726469304E-01  0.172723728E+00
   H -0.418342492E+02  0.517661285E+01  0.389192685E+01
   H  0.418121435E+02 -0.469461261E+01 -0.429995533E+01
     4
 # iter = 73000  time[fs]=73.00000
   C -0.850922272E+01 -0.481634819E+00 -0.118295265E+00
   C  0.837786151E+01  0.741345585E-01  0.174822087E+00
   H -0.422332718E+02  0.522634568E+01  0.392918981E+01
   H  0.422126042E+02 -0.474000512E+01 -0.434174700E+01
     4
 # iter = 73500  time[fs]=73.50000
   C -0.859571895E+01 -0.486507355E+00 -0.119736167E+00
   C  0.846231721E+01  0.756242797E-01  0.176921855E+00
   H -0.426323831E+02  0.527609096E+01  0.396646172E+01
   H  0.426131671E+02 -0.478541073E+01 -0.438355100E+01
     4
 # iter = 74000  time[fs]=74.00000
   C -0.868225767E+01 -0.491381891E+00 -0.121178177E+00
   C  0.854681430E+01  0.771160557E-01  0.179023006E+00
   H -0.430315814E+02  0.532584845E+01  0.400374244E+01
   H  0.430138303E+02 -0.483082919E+01 -0.442536711E+01
     4
 # iter = 74500  time[fs]=74.50000
   C -0.876883804E+01 -0.496258393E+00 -0.122621276E+00
   C  0.863135195E+01  0.786098489E-01  0.181125516E+00
   H -0.434308652E+02  0.537561795E+01  0.404103180E+01
   H  0.434145920E+02 -0.487626028E+01 -0.446719510E+01
     4
 # iter = 75000  time[fs]=75.00000
   C -0.885545923E+01 -0.501136825E+00 -0.124065443E+00
   C  0.871592936E+01  0.801056231E-01  0.183229361E+00
   H -0.438302329E+02  0.542539923E+01  0.407832964E+01
   H  0.438154503E+02 -0.492170376E+01 -0.450903476E+01
     4
 # iter = 75500  time[fs]=75.50000
   C -0.894212046E+01 -0.506017152E+00 -0.125510661E+00
   C  0.880054576E+01  0.816033427E-01  0.185334517E+00
   H -0.442296829E+02  0.547519208E+01  0.411563581E+01
   H  0.442164036E+02 -0.496715943E+01 -0.455088589E+01
     4
 # iter = 76000  time[fs]=76.00000
   C -0.902882094E+01 -0.510899339E+00 -0.126956912E+00
   C  0.888520039E+01  0.831029732E-01  0.187440963E+00
   H -0.446292139E+02  0.552499630E+01  0.415295016E+01
   H  0.446174501E+02 -0.501262706E+01 -0.459274828E+01
     4
 # iter = 76500  time[fs]=76.50000
   C -0.911555993E+01 -0.515783355E+00 -0.128404177E+00
   C  0.896989252E+01  0.846044810E-01  0.189548675E+00
   H -0.450288244E+02  0.557481169E+01  0.419027256E+01
   H  0.450185882E+02 -0.505810644E+01 -0.463462174E+01
     4
 # iter = 77000  time[fs]=77.00000
   C -0.920233670E+01 -0.520669168E+00 -0.129852439E+00
   C  0.905462144E+01  0.861078333E-01  0.191657631E+00
   H -0.454285129E+02  0.562463805E+01  0.422760285E+01
   H  0.454198162E+02 -0.510359738E+01 -0.467650607E+01
     4
 # iter = 77500  time[fs]=77.50000
   C -0.928915053E+01 -0.525556745E+00 -0.131301681E+00
   C  0.913938644E+01  0.876129982E-01  0.193767812E+00
   H -0.458282782E+02  0.567447520E+01  0.426494091E+01
   H  0.458211326E+02 -0.514909967E+01 -0.471840109E+01
     4
 # iter = 78000  time[fs]=78.00000
   C -0.937600073E+01 -0.530446058E+00 -0.132751888E+00
   C  0.922418687E+01  0.891199447E-01  0.195879197E+00
   H -0.462281189E+02  0.572432294E+01  0.430228660E+01
   H  0.462225359E+02 -0.519461311E+01 -0.476030661E+01
     4
 # iter = 78500  time[fs]=78.50000
   C -0.946288664E+01 -0.535337076E+00 -0.134203042E+00
   C  0.930902206E+01  0.906286423E-01  0.197991764E+00
   H -0.466280336E+02  0.577418111E+01  0.433963980E+01
   H  0.466240245E+02 -0.524013753E+01 -0.480222246E+01
     4
 # iter = 79000  time[fs]=79.00000
   C -0.954980759E+01 -0.540229770E+00 -0.135655129E+00
   C  0.939389138E+01  0.921390616E-01  0.200105496E+00
   H -0.470280213E+02  0.582404952E+01  0.437700037E+01
   H  0.470255970E+02 -0.528567274E+01 -0.484414847E+01
     4
 # iter = 79500  time[fs]=79.50000
   C -0.963676296E+01 -0.545124112E+00 -0.137108132E+00
   C  0.947879420E+01  0.936511736E-01  0.202220372E+00
   H -0.474280805E+02  0.587392800E+01  0.441436819E+01
   H  0.474272520E+02 -0.533121856E+01 -0.488608447E+01
     4
 # iter = 80000  time[fs]=80.00000
   C -0.972375211E+01 -0.550020075E+00 -0.138562038E+00
   C  0.956372993E+01  0.951649503E-01  0.204336375E+00
   H -0.478282101E+02  0.592381640E+01  0.445174314E+01
   H  0.478289881E+02 -0.537677481E+01 -0.492803028E+01
