     4
 # iter = 25000  time[fs]=25.00000
   C -0.103408119E+01 -0.148604066E-01  0.416852183E-01
   C  0.998906178E+00  0.536239608E-01  0.160463102E-01
   H -0.531869688E+01  0.677453726E+00 -0.664628147E+00
   H  0.527684695E+01 -0.670544742E+00  0.494396443E+00
     4
 # iter = 25500  time[fs]=25.50000
   C -0.108413593E+01 -0.175646763E-01  0.446662554E-01
   C  0.104250818E+01  0.575652755E-01  0.149868303E-01
   H -0.564996356E+01  0.720309629E+00 -0.708468066E+00
   H  0.559424341E+01 -0.715777729E+00  0.525227571E+00
     4
 # iter = 26000  time[fs]=26.00000
   C -0.113689714E+01 -0.204082727E-01  0.477317343E-01
   C  0.108887331E+01  0.616355971E-01  0.138737180E-01
   H -0.598687550E+01  0.763989305E+00 -0.753152276E+00
   H  0.591660531E+01 -0.761710654E+00  0.556533277E+00
     4
 # iter = 26500  time[fs]=26.50000
   C -0.119213515E+01 -0.233818403E-01  0.508763097E-01
   C  0.113776404E+01  0.658270832E-01  0.127087123E-01
   H -0.632880130E+01  0.808400904E+00 -0.798586907E+00
   H  0.624339529E+01 -0.808269820E+00  0.588262967E+00
     4
 # iter = 27000  time[fs]=27.00000
   C -0.124963763E+01 -0.264765800E-01  0.540949867E-01
   C  0.118896163E+01  0.701321572E-01  0.114937803E-01
   H -0.667520409E+01  0.853466596E+00 -0.844692344E+00
   H  0.657415376E+01 -0.855392068E+00  0.620373359E+00
     4
 # iter = 27500  time[fs]=27.50000
   C -0.130921005E+01 -0.296842434E-01  0.573830845E-01
   C  0.124226619E+01  0.745435674E-01  0.102310396E-01
   H -0.702562448E+01  0.899119948E+00 -0.891400574E+00
   H  0.690848534E+01 -0.903022927E+00  0.652827199E+00
     4
 # iter = 28000  time[fs]=28.00000
   C -0.137067518E+01 -0.329971260E-01  0.607362168E-01
   C  0.129749606E+01  0.790544306E-01  0.892269043E-02
   H -0.737966700E+01  0.945303864E+00 -0.938653102E+00
   H  0.724604795E+01 -0.951115156E+00  0.685592226E+00
     4
 # iter = 28500  time[fs]=28.50000
   C -0.143387232E+01 -0.364080569E-01  0.641502781E-01
   C  0.135448679E+01  0.836582585E-01  0.757095991E-02
   H -0.773698925E+01  0.991968953E+00 -0.986399303E+00
   H  0.758654407E+01 -0.999627555E+00  0.718640353E+00
     4
 # iter = 29000  time[fs]=29.00000
   C -0.149865615E+01 -0.399103816E-01  0.676214334E-01
   C  0.141308988E+01  0.883489691E-01  0.617805907E-02
   H -0.809729314E+01  0.103907224E+01 -0.103459510E+01
   H  0.792971362E+01 -0.104852401E+01  0.751946995E+00
     4
 # iter = 29500  time[fs]=29.50000
   C -0.156489545E+01 -0.434979409E-01  0.711461071E-01
   C  0.147317145E+01  0.931208865E-01  0.474615054E-02
   H -0.846031786E+01  0.108657611E+01 -0.108320193E+01
   H  0.827532817E+01 -0.109777273E+01  0.785490532E+00
     4
 # iter = 30000  time[fs]=30.00000
   C -0.163247193E+01 -0.471650445E-01  0.747209715E-01
   C  0.153461085E+01  0.979687323E-01  0.327732574E-02
   H -0.882583409E+01  0.113444750E+01 -0.113218583E+01
   H  0.862318620E+01 -0.114734557E+01  0.819251860E+00
     4
 # iter = 30500  time[fs]=30.50000
   C -0.170127888E+01 -0.509064433E-01  0.783429340E-01
   C  0.159729941E+01  0.102887610E+00  0.177358972E-02
   H -0.919363931E+01  0.118265717E+01 -0.118151682E+01
   H  0.897310913E+01 -0.119721754E+01  0.853214025E+00
     4
 # iter = 31000  time[fs]=31.00000
   C -0.177122011E+01 -0.547172990E-01  0.820091240E-01
   C  0.166113917E+01  0.107872987E+00  0.236851779E-03
   H -0.956355388E+01  0.123117917E+01 -0.123116825E+01
   H  0.932493814E+01 -0.124736634E+01  0.887361926E+00
     4
 # iter = 31500  time[fs]=31.50000
   C -0.184220876E+01 -0.585931551E-01  0.857168790E-01
   C  0.172604179E+01  0.112920671E+00 -0.133107927E-02
   H -0.993541781E+01  0.127999038E+01 -0.128111637E+01
   H  0.967853138E+01 -0.129777202E+01  0.921682053E+00
     4
 # iter = 32000  time[fs]=32.00000
   C -0.191416639E+01 -0.625299071E-01  0.894637308E-01
   C  0.179192749E+01  0.118026788E+00 -0.292849657E-02
   H -0.103090881E+02  0.132907008E+01 -0.133133992E+01
   H  0.100337618E+02 -0.134841665E+01  0.956162283E+00
     4
 # iter = 32500  time[fs]=32.50000
   C -0.198702204E+01 -0.665237743E-01  0.932473920E-01
   C  0.185872414E+01  0.123187761E+00 -0.455379429E-02
   H -0.106844364E+02  0.137839967E+01 -0.138181980E+01
   H  0.103905150E+02 -0.139928406E+01  0.990791694E+00
     4
 # iter = 33000  time[fs]=33.00000
   C -0.206071143E+01 -0.705712731E-01  0.970657424E-01
   C  0.192636643E+01  0.128400286E+00 -0.620546492E-02
   H -0.110613473E+02  0.142796239E+01 -0.143253879E+01
   H  0.107486880E+02 -0.145035963E+01  0.102556042E+01
     4
 # iter = 33500  time[fs]=33.50000
   C -0.213517627E+01 -0.746691922E-01  0.100916817E+00
   C  0.199479515E+01  0.133661309E+00 -0.788209560E-02
   H -0.114397163E+02  0.147774307E+01 -0.148348132E+01
   H  0.111081874E+02 -0.150163010E+01  0.106045952E+01
     4
 # iter = 34000  time[fs]=34.00000
   C -0.221036356E+01 -0.788145687E-01  0.104798792E+00
   C  0.206395649E+01  0.138968009E+00 -0.958236355E-02
   H -0.118194492E+02  0.152772797E+01 -0.153463326E+01
   H  0.114689287E+02 -0.155308343E+01  0.109548088E+01
     4
 # iter = 34500  time[fs]=34.50000
   C -0.228622511E+01 -0.830046671E-01  0.108709977E+00
   C  0.213380150E+01  0.144317777E+00 -0.113050313E-01
   H -0.122004600E+02  0.157790456E+01 -0.158598177E+01
   H  0.118308348E+02 -0.160470861E+01  0.113061707E+01
     4
 # iter = 35000  time[fs]=35.00000
   C -0.236271695E+01 -0.872369593E-01  0.112648802E+00
   C  0.220428558E+01  0.149708199E+00 -0.130489416E-01
   H -0.125826705E+02  0.162826143E+01 -0.163751512E+01
   H  0.121938354E+02 -0.165649558E+01  0.116586134E+01
     4
 # iter = 35500  time[fs]=35.50000
   C -0.243979895E+01 -0.915091067E-01  0.116613807E+00
   C  0.227536799E+01  0.155137039E+00 -0.148130123E-01
   H -0.129660095E+02  0.167878815E+01 -0.168922259E+01
   H  0.125578663E+02 -0.170843514E+01  0.120120749E+01
     4
 # iter = 36000  time[fs]=36.00000
   C -0.251743437E+01 -0.958189433E-01  0.120603636E+00
   C  0.234701146E+01  0.160602221E+00 -0.165962317E-01
   H -0.133504114E+02  0.172947513E+01 -0.174109434E+01
   H  0.129228686E+02 -0.176051883E+01  0.123664983E+01
     4
 # iter = 36500  time[fs]=36.50000
   C -0.259558957E+01 -0.100164461E+00  0.124617025E+00
   C  0.241918186E+01  0.166101824E+00 -0.183976532E-01
   H -0.137358165E+02  0.178031358E+01 -0.179312135E+01
   H  0.132887882E+02 -0.181273884E+01  0.127218312E+01
     4
 # iter = 37000  time[fs]=37.00000
   C -0.267423366E+01 -0.104543797E+00  0.128652798E+00
   C  0.249184785E+01  0.171634058E+00 -0.202163913E-01
   H -0.141221694E+02  0.183129540E+01 -0.184529530E+01
   H  0.136555753E+02 -0.186508799E+01  0.130780254E+01
     4
 # iter = 37500  time[fs]=37.50000
   C -0.275333824E+01 -0.108955219E+00  0.132709858E+00
   C  0.256498063E+01  0.177197263E+00 -0.220516171E-01
   H -0.145094195E+02  0.188241311E+01 -0.189760850E+01
   H  0.140231838E+02 -0.191755964E+01  0.134350364E+01
     4
 # iter = 38000  time[fs]=38.00000
   C -0.283287714E+01 -0.113397116E+00  0.136787180E+00
   C  0.263855366E+01  0.182789891E+00 -0.239025542E-01
   H -0.148975198E+02  0.193365979E+01 -0.195005386E+01
   H  0.143915714E+02 -0.197014763E+01  0.137928227E+01
     4
 # iter = 38500  time[fs]=38.50000
   C -0.291282623E+01 -0.117867988E+00  0.140883807E+00
   C  0.271254248E+01  0.188410499E+00 -0.257684747E-01
   H -0.152864268E+02  0.198502904E+01 -0.200262480E+01
   H  0.147606986E+02 -0.202284626E+01  0.141513462E+01
     4
 # iter = 39000  time[fs]=39.00000
   C -0.299316321E+01 -0.122366437E+00  0.144998845E+00
   C  0.278692448E+01  0.194057743E+00 -0.276486963E-01
   H -0.156761004E+02  0.203651491E+01 -0.205531521E+01
   H  0.151305290E+02 -0.207565022E+01  0.145105713E+01
     4
 # iter = 39500  time[fs]=39.50000
   C -0.307386746E+01 -0.126891155E+00  0.149131455E+00
   C  0.286167873E+01  0.199730367E+00 -0.295425782E-01
   H -0.160665032E+02  0.208811186E+01 -0.210811941E+01
   H  0.155010287E+02 -0.212855457E+01  0.148704650E+01
     4
 # iter = 40000  time[fs]=40.00000
   C -0.315491985E+01 -0.131440924E+00  0.153280852E+00
   C  0.293678585E+01  0.205427194E+00 -0.314495189E-01
   H -0.164576004E+02  0.213981474E+01 -0.216103213E+01
   H  0.158721661E+02 -0.218155471E+01  0.152309963E+01
     4
 # iter = 40500  time[fs]=40.50000
   C -0.323630262E+01 -0.136014600E+00  0.157446299E+00
   C  0.301222785E+01  0.211147126E+00 -0.333689528E-01
   H -0.168493598E+02  0.219161876E+01 -0.221404842E+01
   H  0.162439117E+02 -0.223464634E+01  0.155921366E+01
     4
 # iter = 41000  time[fs]=41.00000
   C -0.331799930E+01 -0.140611116E+00  0.161627105E+00
   C  0.308798800E+01  0.216889133E+00 -0.353003478E-01
   H -0.172417510E+02  0.224351942E+01 -0.226716368E+01
   H  0.166162381E+02 -0.228782544E+01  0.159538588E+01
     4
 # iter = 41500  time[fs]=41.50000
   C -0.339999451E+01 -0.145229467E+00  0.165822619E+00
   C  0.316405074E+01  0.222652248E+00 -0.372432028E-01
   H -0.176347459E+02  0.229551251E+01 -0.232037360E+01
   H  0.169891195E+02 -0.234108825E+01  0.163161379E+01
     4
 # iter = 42000  time[fs]=42.00000
   C -0.348227395E+01 -0.149868713E+00  0.170032230E+00
   C  0.324040157E+01  0.228435564E+00 -0.391970461E-01
   H -0.180283181E+02  0.234759412E+01 -0.237367415E+01
   H  0.173625320E+02 -0.239443123E+01  0.166789502E+01
     4
 # iter = 42500  time[fs]=42.50000
   C -0.356482427E+01 -0.154527969E+00  0.174255360E+00
   C  0.331702694E+01  0.234238227E+00 -0.411614323E-01
   H -0.184224429E+02  0.239976053E+01 -0.242706152E+01
   H  0.177364530E+02 -0.244785107E+01  0.170422736E+01
     4
 # iter = 43000  time[fs]=43.00000
   C -0.364763298E+01 -0.159206404E+00  0.178491468E+00
   C  0.339391422E+01  0.240059435E+00 -0.431359414E-01
   H -0.188170970E+02  0.245200829E+01 -0.248053218E+01
   H  0.181108613E+02 -0.250134465E+01  0.174060873E+01
     4
 # iter = 43500  time[fs]=43.50000
   C -0.373068841E+01 -0.163903235E+00  0.182740040E+00
   C  0.347105156E+01  0.245898433E+00 -0.451201765E-01
   H -0.192122587E+02  0.250433413E+01 -0.253408276E+01
   H  0.184857370E+02 -0.255490904E+01  0.177703716E+01
     4
 # iter = 44000  time[fs]=44.00000
   C -0.381397963E+01 -0.168617722E+00  0.187000593E+00
   C  0.354842788E+01  0.251754508E+00 -0.471137626E-01
   H -0.196079074E+02  0.255673497E+01 -0.258771012E+01
   H  0.188610614E+02 -0.260854149E+01  0.181351082E+01
     4
 # iter = 44500  time[fs]=44.50000
   C -0.389749637E+01 -0.173349171E+00  0.191272669E+00
   C  0.362603279E+01  0.257626989E+00 -0.491163447E-01
   H -0.200040239E+02  0.260920794E+01 -0.264141129E+01
   H  0.192368168E+02 -0.266223937E+01  0.185002795E+01
     4
 # iter = 45000  time[fs]=45.00000
   C -0.398122900E+01 -0.178096924E+00  0.195555836E+00
   C  0.370385653E+01  0.263515239E+00 -0.511275869E-01
   H -0.204005900E+02  0.266175028E+01 -0.269518346E+01
   H  0.196129866E+02 -0.271600024E+01  0.188658692E+01
     4
 # iter = 45500  time[fs]=45.50000
   C -0.406516848E+01 -0.182860358E+00  0.199849684E+00
   C  0.378188991E+01  0.269418660E+00 -0.531471707E-01
   H -0.207975885E+02  0.271435942E+01 -0.274902399E+01
   H  0.199895552E+02 -0.276982176E+01  0.192318618E+01
     4
 # iter = 46000  time[fs]=46.00000
   C -0.414930629E+01 -0.187638888E+00  0.204153825E+00
   C  0.386012433E+01  0.275336684E+00 -0.551747944E-01
   H -0.211950032E+02  0.276703291E+01 -0.280293038E+01
   H  0.203665076E+02 -0.282370173E+01  0.195982426E+01
     4
 # iter = 46500  time[fs]=46.50000
   C -0.423363441E+01 -0.192431955E+00  0.208467890E+00
   C  0.393855163E+01  0.281268772E+00 -0.572101714E-01
   H -0.215928188E+02  0.281976846E+01 -0.285690024E+01
   H  0.207438298E+02 -0.287763807E+01  0.199649976E+01
     4
 # iter = 47000  time[fs]=47.00000
   C -0.431814527E+01 -0.197239033E+00  0.212791531E+00
   C  0.401716417E+01  0.287214416E+00 -0.592530296E-01
   H -0.219910207E+02  0.287256385E+01 -0.291093135E+01
   H  0.211215085E+02 -0.293162880E+01  0.203321137E+01
     4
 # iter = 47500  time[fs]=47.50000
   C -0.440283174E+01 -0.202059623E+00  0.217124416E+00
   C  0.409595470E+01  0.293173133E+00 -0.613031106E-01
   H -0.223895952E+02  0.292541702E+01 -0.296502156E+01
   H  0.214995312E+02 -0.298567204E+01  0.206995783E+01
     4
 # iter = 48000  time[fs]=48.00000
   C -0.448768707E+01 -0.206893249E+00  0.221466228E+00
   C  0.417491639E+01  0.299144464E+00 -0.633601685E-01
   H -0.227885293E+02  0.297832599E+01 -0.301916886E+01
   H  0.218778858E+02 -0.303976602E+01  0.210673797E+01
     4
 # iter = 48500  time[fs]=48.50000
   C -0.457270489E+01 -0.211739460E+00  0.225816669E+00
   C  0.425404279E+01  0.305127972E+00 -0.654239693E-01
   H -0.231878105E+02  0.303128890E+01 -0.307337132E+01
   H  0.222565611E+02 -0.309390904E+01  0.214355064E+01
     4
 # iter = 49000  time[fs]=49.00000
   C -0.465787916E+01 -0.216597829E+00  0.230175452E+00
   C  0.433332777E+01  0.311123245E+00 -0.674942901E-01
   H -0.235874272E+02  0.308430395E+01 -0.312762712E+01
   H  0.226355461E+02 -0.314809948E+01  0.218039479E+01
     4
 # iter = 49500  time[fs]=49.50000
   C -0.474320418E+01 -0.221467947E+00  0.234542306E+00
   C  0.441276555E+01  0.317129888E+00 -0.695709188E-01
   H -0.239873681E+02  0.313736945E+01 -0.318193451E+01
   H  0.230148308E+02 -0.320233582E+01  0.221726938E+01
     4
 # iter = 50000  time[fs]=50.00000
   C -0.482867452E+01 -0.226349428E+00  0.238916971E+00
   C  0.449235064E+01  0.323147526E+00 -0.716536527E-01
   H -0.243876226E+02  0.319048379E+01 -0.323629186E+01
   H  0.233944052E+02 -0.325661660E+01  0.225417345E+01
     4
 # iter = 50500  time[fs]=50.50000
   C -0.491428503E+01 -0.231241901E+00  0.243299200E+00
   C  0.457207782E+01  0.329175802E+00 -0.737422987E-01
   H -0.247881806E+02  0.324364542E+01 -0.329069757E+01
   H  0.237742601E+02 -0.331094041E+01  0.229110606E+01
     4
 # iter = 51000  time[fs]=51.00000
   C -0.500003085E+01 -0.236145013E+00  0.247688756E+00
   C  0.465194215E+01  0.335214374E+00 -0.758366724E-01
   H -0.251890324E+02  0.329685289E+01 -0.334515014E+01
   H  0.241543867E+02 -0.336530594E+01  0.232806634E+01
     4
 # iter = 51500  time[fs]=51.50000
   C -0.508590733E+01 -0.241058430E+00  0.252085415E+00
   C  0.473193893E+01  0.341262919E+00 -0.779365975E-01
   H -0.255901689E+02  0.335010478E+01 -0.339964814E+01
   H  0.245347765E+02 -0.341971191E+01  0.236505343E+01
     4
 # iter = 52000  time[fs]=52.00000
   C -0.517191006E+01 -0.245981829E+00  0.256488960E+00
   C  0.481206369E+01  0.347321125E+00 -0.800419057E-01
   H -0.259915812E+02  0.340339976E+01 -0.345419019E+01
   H  0.249154214E+02 -0.347415711E+01  0.240206653E+01
     4
 # iter = 52500  time[fs]=52.50000
   C -0.525803484E+01 -0.250914905E+00  0.260899187E+00
   C  0.489231217E+01  0.353388696E+00 -0.821524357E-01
   H -0.263932609E+02  0.345673654E+01 -0.350877499E+01
   H  0.252963136E+02 -0.352864038E+01  0.243910487E+01
     4
 # iter = 53000  time[fs]=53.00000
   C -0.534427767E+01 -0.255857366E+00  0.265315896E+00
   C  0.497268033E+01  0.359465349E+00 -0.842680335E-01
   H -0.267952002E+02  0.351011391E+01 -0.356340128E+01
   H  0.256774459E+02 -0.358316061E+01  0.247616771E+01
     4
 # iter = 53500  time[fs]=53.50000
   C -0.543063474E+01 -0.260808929E+00  0.269738901E+00
   C  0.505316429E+01  0.365550813E+00 -0.863885513E-01
   H -0.271973912E+02  0.356353069E+01 -0.361806786E+01
   H  0.260588112E+02 -0.363771674E+01  0.251325434E+01
     4
 # iter = 54000  time[fs]=54.00000
   C -0.551710242E+01 -0.265769329E+00  0.274168019E+00
   C  0.513376037E+01  0.371644829E+00 -0.885138478E-01
   H -0.275998266E+02  0.361698577E+01 -0.367277358E+01
   H  0.264404027E+02 -0.369230776E+01  0.255036409E+01
     4
 # iter = 54500  time[fs]=54.50000
   C -0.560367723E+01 -0.270738307E+00  0.278603078E+00
   C  0.521446507E+01  0.377747148E+00 -0.906437873E-01
   H -0.280024995E+02  0.367047806E+01 -0.372751734E+01
   H  0.268222139E+02 -0.374693268E+01  0.258749631E+01
     4
 # iter = 55000  time[fs]=55.00000
   C -0.569035587E+01 -0.275715619E+00  0.283043912E+00
   C  0.529527502E+01  0.383857533E+00 -0.927782397E-01
   H -0.284054031E+02  0.372400653E+01 -0.378229808E+01
   H  0.272042387E+02 -0.380159057E+01  0.262465037E+01
     4
 # iter = 55500  time[fs]=55.50000
   C -0.577713517E+01 -0.280701029E+00  0.287490360E+00
   C  0.537618701E+01  0.389975755E+00 -0.949170803E-01
   H -0.288085309E+02  0.377757020E+01 -0.383711479E+01
   H  0.275864712E+02 -0.385628054E+01  0.266182569E+01
     4
 # iter = 56000  time[fs]=56.00000
   C -0.586401211E+01 -0.285694310E+00  0.291942270E+00
   C  0.545719798E+01  0.396101596E+00 -0.970601893E-01
   H -0.292118768E+02  0.383116812E+01 -0.389196651E+01
   H  0.279689055E+02 -0.391100172E+01  0.269902169E+01
     4
 # iter = 56500  time[fs]=56.50000
   C -0.595098378E+01 -0.290695245E+00  0.296399495E+00
   C  0.553830500E+01  0.402234846E+00 -0.992074515E-01
   H -0.296154349E+02  0.388479937E+01 -0.394685229E+01
   H  0.283515364E+02 -0.396575329E+01  0.273623781E+01
     4
 # iter = 57000  time[fs]=57.00000
   C -0.603804741E+01 -0.295703628E+00  0.300861894E+00
   C  0.561950524E+01  0.408375304E+00 -0.101358756E+00
   H -0.300191994E+02  0.393846308E+01 -0.400177125E+01
   H  0.287343584E+02 -0.402053445E+01  0.277347354E+01
     4
 # iter = 57500  time[fs]=57.50000
   C -0.612520035E+01 -0.300719257E+00  0.305329330E+00
   C  0.570079603E+01  0.414522776E+00 -0.103513998E+00
   H -0.304231648E+02  0.399215841E+01 -0.405672251E+01
   H  0.291173667E+02 -0.407534444E+01  0.281072835E+01
     4
 # iter = 58000  time[fs]=58.00000
   C -0.621244006E+01 -0.305741940E+00  0.309801673E+00
   C  0.578217478E+01  0.420677076E+00 -0.105673073E+00
   H -0.308273260E+02  0.404588454E+01 -0.411170525E+01
   H  0.295005562E+02 -0.413018252E+01  0.284800178E+01
     4
 # iter = 58500  time[fs]=58.50000
   C -0.629976408E+01 -0.310771493E+00  0.314278797E+00
   C  0.586363902E+01  0.426838025E+00 -0.107835883E+00
   H -0.312316778E+02  0.409964071E+01 -0.416671867E+01
   H  0.298839224E+02 -0.418504798E+01  0.288529333E+01
     4
 # iter = 59000  time[fs]=59.00000
   C -0.638717009E+01 -0.315807738E+00  0.318760582E+00
   C  0.594518637E+01  0.433005451E+00 -0.110002335E+00
   H -0.316362154E+02  0.415342615E+01 -0.422176200E+01
   H  0.302674608E+02 -0.423994015E+01  0.292260256E+01
     4
 # iter = 59500  time[fs]=59.50000
   C -0.647465584E+01 -0.320850503E+00  0.323246910E+00
   C  0.602681457E+01  0.439179188E+00 -0.112172336E+00
   H -0.320409341E+02  0.420724015E+01 -0.427683451E+01
   H  0.306511670E+02 -0.429485835E+01  0.295992904E+01
     4
 # iter = 60000  time[fs]=60.00000
   C -0.656221916E+01 -0.325899625E+00  0.327737669E+00
   C  0.610852142E+01  0.445359078E+00 -0.114345799E+00
   H -0.324458294E+02  0.426108201E+01 -0.433193547E+01
   H  0.310350369E+02 -0.434980197E+01  0.299727234E+01
     4
 # iter = 60500  time[fs]=60.50000
   C -0.664985799E+01 -0.330954943E+00  0.332232752E+00
   C  0.619030481E+01  0.451544966E+00 -0.116522638E+00
   H -0.328508969E+02  0.431495105E+01 -0.438706421E+01
   H  0.314190665E+02 -0.440477039E+01  0.303463206E+01
     4
 # iter = 61000  time[fs]=61.00000
   C -0.673757032E+01 -0.336016307E+00  0.336732052E+00
   C  0.627216274E+01  0.457736704E+00 -0.118702772E+00
   H -0.332561325E+02  0.436884663E+01 -0.444222006E+01
   H  0.318032519E+02 -0.445976302E+01  0.307200780E+01
     4
 # iter = 61500  time[fs]=61.50000
   C -0.682535424E+01 -0.341083567E+00  0.341235471E+00
   C  0.635409324E+01  0.463934151E+00 -0.120886122E+00
   H -0.336615320E+02  0.442276813E+01 -0.449740238E+01
   H  0.321875893E+02 -0.451477930E+01  0.310939920E+01
     4
 # iter = 62000  time[fs]=62.00000
   C -0.691320791E+01 -0.346156582E+00  0.345742910E+00
   C  0.643609447E+01  0.470137167E+00 -0.123072612E+00
   H -0.340670917E+02  0.447671493E+01 -0.455261056E+01
   H  0.325720753E+02 -0.456981867E+01  0.314680588E+01
     4
 # iter = 62500  time[fs]=62.50000
   C -0.700112955E+01 -0.351235215E+00  0.350254275E+00
   C  0.651816461E+01  0.476345622E+00 -0.125262168E+00
   H -0.344728077E+02  0.453068647E+01 -0.460784399E+01
   H  0.329567062E+02 -0.462488061E+01  0.318422750E+01
     4
 # iter = 63000  time[fs]=63.00000
   C -0.708911744E+01 -0.356319333E+00  0.354769477E+00
   C  0.660030193E+01  0.482559385E+00 -0.127454720E+00
   H -0.348786764E+02  0.458468217E+01 -0.466310210E+01
   H  0.333414788E+02 -0.467996460E+01  0.322166371E+01
     4
 # iter = 63500  time[fs]=63.50000
   C -0.717716995E+01 -0.361408808E+00  0.359288426E+00
   C  0.668250475E+01  0.488778334E+00 -0.129650198E+00
   H -0.352846944E+02  0.463870149E+01 -0.471838434E+01
   H  0.337263898E+02 -0.473507014E+01  0.325911418E+01
     4
 # iter = 64000  time[fs]=64.00000
   C -0.726528547E+01 -0.366503518E+00  0.363811040E+00
   C  0.676477148E+01  0.495002349E+00 -0.131848537E+00
   H -0.356908581E+02  0.469274391E+01 -0.477369016E+01
   H  0.341114360E+02 -0.479019677E+01  0.329657861E+01
     4
 # iter = 64500  time[fs]=64.50000
   C -0.735346249E+01 -0.371603342E+00  0.368337234E+00
   C  0.684710056E+01  0.501231314E+00 -0.134049672E+00
   H -0.360971644E+02  0.474680891E+01 -0.482901905E+01
   H  0.344966145E+02 -0.484534401E+01  0.333405667E+01
     4
 # iter = 65000  time[fs]=65.00000
   C -0.744169951E+01 -0.376708165E+00  0.372866931E+00
   C  0.692949048E+01  0.507465118E+00 -0.136253540E+00
   H -0.365036101E+02  0.480089601E+01 -0.488437050E+01
   H  0.348819224E+02 -0.490051143E+01  0.337154808E+01
     4
 # iter = 65500  time[fs]=65.50000
   C -0.752999512E+01 -0.381817876E+00  0.377400054E+00
   C  0.701193980E+01  0.513703653E+00 -0.138460083E+00
   H -0.369101921E+02  0.485500473E+01 -0.493974403E+01
   H  0.352673567E+02 -0.495569857E+01  0.340905255E+01
     4
 # iter = 66000  time[fs]=66.00000
   C -0.761834794E+01 -0.386932367E+00  0.381936528E+00
   C  0.709444713E+01  0.519946813E+00 -0.140669242E+00
   H -0.373169074E+02  0.490913460E+01 -0.499513916E+01
   H  0.356529147E+02 -0.501090504E+01  0.344656979E+01
     4
 # iter = 66500  time[fs]=66.50000
   C -0.770675663E+01 -0.392051532E+00  0.386476282E+00
   C  0.717701112E+01  0.526194499E+00 -0.142880960E+00
   H -0.377237532E+02  0.496328519E+01 -0.505055544E+01
   H  0.360385939E+02 -0.506613041E+01  0.348409954E+01
     4
 # iter = 67000  time[fs]=67.00000
   C -0.779521991E+01 -0.397175272E+00  0.391019245E+00
   C  0.725963046E+01  0.532446613E+00 -0.145095184E+00
   H -0.381307267E+02  0.501745605E+01 -0.510599242E+01
   H  0.364243916E+02 -0.512137430E+01  0.352164154E+01
     4
 # iter = 67500  time[fs]=67.50000
   C -0.788373654E+01 -0.402303489E+00  0.395565351E+00
   C  0.734230390E+01  0.538703058E+00 -0.147311860E+00
   H -0.385378252E+02  0.507164677E+01 -0.516144968E+01
   H  0.368103053E+02 -0.517663632E+01  0.355919553E+01
     4
 # iter = 68000  time[fs]=68.00000
   C -0.797230532E+01 -0.407436086E+00  0.400114534E+00
   C  0.742503021E+01  0.544963745E+00 -0.149530937E+00
   H -0.389450460E+02  0.512585694E+01 -0.521692680E+01
   H  0.371963327E+02 -0.523191610E+01  0.359676127E+01
     4
 # iter = 68500  time[fs]=68.50000
   C -0.806092508E+01 -0.412572973E+00  0.404666731E+00
   C  0.750780823E+01  0.551228582E+00 -0.151752366E+00
   H -0.393523868E+02  0.518008617E+01 -0.527242337E+01
   H  0.375824713E+02 -0.528721328E+01  0.363433852E+01
     4
 # iter = 69000  time[fs]=69.00000
   C -0.814959470E+01 -0.417714061E+00  0.409221880E+00
   C  0.759063681E+01  0.557497486E+00 -0.153976098E+00
   H -0.397598449E+02  0.523433408E+01 -0.532793901E+01
   H  0.379687189E+02 -0.534252752E+01  0.367192705E+01
     4
 # iter = 69500  time[fs]=69.50000
   C -0.823831310E+01 -0.422859262E+00  0.413779922E+00
   C  0.767351484E+01  0.563770371E+00 -0.156202086E+00
   H -0.401674181E+02  0.528860029E+01 -0.538347333E+01
   H  0.383550734E+02 -0.539785848E+01  0.370952663E+01
     4
 # iter = 70000  time[fs]=70.00000
   C -0.832707922E+01 -0.428008494E+00  0.418340799E+00
   C  0.775644127E+01  0.570047157E+00 -0.158430287E+00
   H -0.405751040E+02  0.534288444E+01 -0.543902597E+01
   H  0.387415325E+02 -0.545320583E+01  0.374713705E+01
     4
 # iter = 70500  time[fs]=70.50000
   C -0.841589203E+01 -0.433161675E+00  0.422904454E+00
   C  0.783941505E+01  0.576327764E+00 -0.160660654E+00
   H -0.409829004E+02  0.539718618E+01 -0.549459657E+01
   H  0.391280943E+02 -0.550856924E+01  0.378475810E+01
     4
 # iter = 71000  time[fs]=71.00000
   C -0.850475056E+01 -0.438318725E+00  0.427470833E+00
   C  0.792243518E+01  0.582612118E+00 -0.162893147E+00
   H -0.413908051E+02  0.545150518E+01 -0.555018479E+01
   H  0.395147566E+02 -0.556394842E+01  0.382238957E+01
     4
 # iter = 71500  time[fs]=71.50000
   C -0.859365384E+01 -0.443479570E+00  0.432039883E+00
   C  0.800550070E+01  0.588900143E+00 -0.165127722E+00
   H -0.417988161E+02  0.550584111E+01 -0.560579027E+01
   H  0.399015176E+02 -0.561934305E+01  0.386003125E+01
     4
 # iter = 72000  time[fs]=72.00000
   C -0.868260095E+01 -0.448644133E+00  0.436611553E+00
   C  0.808861066E+01  0.595191767E+00 -0.167364341E+00
   H -0.422069311E+02  0.556019363E+01 -0.566141271E+01
   H  0.402883754E+02 -0.567475285E+01  0.389768297E+01
     4
 # iter = 72500  time[fs]=72.50000
   C -0.877159097E+01 -0.453812344E+00  0.441185793E+00
   C  0.817176415E+01  0.601486921E+00 -0.169602964E+00
   H -0.426151484E+02  0.561456245E+01 -0.571705177E+01
   H  0.406753280E+02 -0.573017754E+01  0.393534453E+01
     4
 # iter = 73000  time[fs]=73.00000
   C -0.886062305E+01 -0.458984132E+00  0.445762554E+00
   C  0.825496028E+01  0.607785537E+00 -0.171843553E+00
   H -0.430234659E+02  0.566894726E+01 -0.577270715E+01
   H  0.410623738E+02 -0.578561683E+01  0.397301574E+01
     4
 # iter = 73500  time[fs]=73.50000
   C -0.894969633E+01 -0.464159428E+00  0.450341788E+00
   C  0.833819819E+01  0.614087549E+00 -0.174086070E+00
   H -0.434318817E+02  0.572334776E+01 -0.582837855E+01
   H  0.414495109E+02 -0.584107046E+01  0.401069643E+01
     4
 # iter = 74000  time[fs]=74.00000
   C -0.903880999E+01 -0.469338167E+00  0.454923451E+00
   C  0.842147705E+01  0.620392892E+00 -0.176330481E+00
   H -0.438403940E+02  0.577776366E+01 -0.588406567E+01
   H  0.418367377E+02 -0.589653817E+01  0.404838642E+01
     4
 # iter = 74500  time[fs]=74.50000
   C -0.912796323E+01 -0.474520283E+00  0.459507496E+00
   C  0.850479606E+01  0.626701505E+00 -0.178576749E+00
   H -0.442490011E+02  0.583219470E+01 -0.593976823E+01
   H  0.422240526E+02 -0.595201970E+01  0.408608555E+01
     4
 # iter = 75000  time[fs]=75.00000
   C -0.921715528E+01 -0.479705716E+00  0.464093881E+00
   C  0.858815441E+01  0.633013326E+00 -0.180824842E+00
   H -0.446577012E+02  0.588664059E+01 -0.599548595E+01
   H  0.426114539E+02 -0.600751480E+01  0.412379366E+01
     4
 # iter = 75500  time[fs]=75.50000
   C -0.930638537E+01 -0.484894402E+00  0.468682564E+00
   C  0.867155136E+01  0.639328297E+00 -0.183074725E+00
   H -0.450664926E+02  0.594110107E+01 -0.605121857E+01
   H  0.429989400E+02 -0.606302324E+01  0.416151058E+01
     4
 # iter = 76000  time[fs]=76.00000
   C -0.939565279E+01 -0.490086284E+00  0.473273503E+00
   C  0.875498615E+01  0.645646360E+00 -0.185326367E+00
   H -0.454753737E+02  0.599557589E+01 -0.610696581E+01
   H  0.433865095E+02 -0.611854478E+01  0.419923615E+01
     4
 # iter = 76500  time[fs]=76.50000
   C -0.948495682E+01 -0.495281303E+00  0.477866658E+00
   C  0.883845808E+01  0.651967459E+00 -0.187579737E+00
   H -0.458843429E+02  0.605006479E+01 -0.616272742E+01
   H  0.437741609E+02 -0.617407919E+01  0.423697023E+01
     4
 # iter = 77000  time[fs]=77.00000
   C -0.957429676E+01 -0.500479404E+00  0.482461990E+00
   C  0.892196642E+01  0.658291541E+00 -0.189834803E+00
   H -0.462933986E+02  0.610456753E+01 -0.621850316E+01
   H  0.441618927E+02 -0.622962624E+01  0.427471267E+01
     4
 # iter = 77500  time[fs]=77.50000
   C -0.966367195E+01 -0.505680531E+00  0.487059461E+00
   C  0.900551051E+01  0.664618551E+00 -0.192091536E+00
   H -0.467025394E+02  0.615908388E+01 -0.627429277E+01
   H  0.445497035E+02 -0.628518573E+01  0.431246333E+01
     4
 # iter = 78000  time[fs]=78.00000
   C -0.975308172E+01 -0.510884632E+00  0.491659034E+00
   C  0.908908968E+01  0.670948439E+00 -0.194349907E+00
   H -0.471117637E+02  0.621361359E+01 -0.633009603E+01
   H  0.449375920E+02 -0.634075744E+01  0.435022206E+01
     4
 # iter = 78500  time[fs]=78.50000
   C -0.984252546E+01 -0.516091654E+00  0.496260673E+00
   C  0.917270329E+01  0.677281154E+00 -0.196609888E+00
   H -0.475210701E+02  0.626815645E+01 -0.638591270E+01
   H  0.453255568E+02 -0.639634116E+01  0.438798872E+01
     4
 # iter = 79000  time[fs]=79.00000
   C -0.993200252E+01 -0.521301546E+00  0.500864342E+00
   C  0.925635071E+01  0.683616647E+00 -0.198871450E+00
   H -0.479304572E+02  0.632271223E+01 -0.644174256E+01
   H  0.457135967E+02 -0.645193669E+01  0.442576320E+01
     4
 # iter = 79500  time[fs]=79.50000
   C -0.100215123E+02 -0.526514261E+00  0.505470008E+00
   C  0.934003132E+01  0.689954871E+00 -0.201134569E+00
   H -0.483399237E+02  0.637728073E+01 -0.649758538E+01
   H  0.461017104E+02 -0.650754384E+01  0.446354535E+01
     4
 # iter = 80000  time[fs]=80.00000
   C -0.101110543E+02 -0.531729749E+00  0.510077637E+00
   C  0.942374453E+01  0.696295778E+00 -0.203399216E+00
   H -0.487494682E+02  0.643186172E+01 -0.655344096E+01
   H  0.464898965E+02 -0.656316241E+01  0.450133505E+01
