     4
 # iter = 25000  time[fs]=25.00000
   C -0.936193094E+00  0.114734519E-01  0.124636744E-01
   C  0.103572493E+01  0.397107519E-01  0.751629467E-02
   H -0.530078189E+01  0.420182823E+00 -0.337664199E+00
   H  0.529755049E+01 -0.604381202E+00 -0.374058570E+00
     4
 # iter = 25500  time[fs]=25.50000
   C -0.978041577E+00  0.908984282E-02  0.146159925E-01
   C  0.107955087E+01  0.421645977E-01  0.945760251E-02
   H -0.563017304E+01  0.442844548E+00 -0.357360605E+00
   H  0.561546040E+01 -0.646048356E+00 -0.396689842E+00
     4
 # iter = 26000  time[fs]=26.00000
   C -0.102285232E+01  0.664497343E-02  0.168055817E-01
   C  0.112631408E+01  0.447051729E-01  0.114258256E-01
   H -0.596473040E+01  0.465931783E+00 -0.377404329E+00
   H  0.593883644E+01 -0.688446650E+00 -0.419744034E+00
     4
 # iter = 26500  time[fs]=26.50000
   C -0.107038377E+01  0.413993276E-02  0.190285056E-01
   C  0.117577519E+01  0.473289675E-01  0.134178280E-01
   H -0.630388301E+01  0.489395869E+00 -0.397756363E+00
   H  0.626708135E+01 -0.731498371E+00 -0.443175282E+00
     4
 # iter = 27000  time[fs]=27.00000
   C -0.112040978E+01  0.157628512E-02  0.212813717E-01
   C  0.122771005E+01  0.500322990E-01  0.154309978E-01
   H -0.664714484E+01  0.513195783E+00 -0.418383725E+00
   H  0.659968522E+01 -0.775137081E+00 -0.466944519E+00
     4
 # iter = 27500  time[fs]=27.50000
   C -0.117272093E+01 -0.104404734E-02  0.235612404E-01
   C  0.128191102E+01  0.528113866E-01  0.174631393E-01
   H -0.699409946E+01  0.537296662E+00 -0.439258301E+00
   H  0.693621008E+01 -0.819305611E+00 -0.491018233E+00
     4
 # iter = 28000  time[fs]=28.00000
   C -0.122712484E+01 -0.371889341E-02  0.258655525E-01
   C  0.133818736E+01  0.556624223E-01  0.195123900E-01
   H -0.734438788E+01  0.561668658E+00 -0.460355957E+00
   H  0.727627760E+01 -0.863954471E+00 -0.515367499E+00
     4
 # iter = 28500  time[fs]=28.50000
   C -0.128344584E+01 -0.644592639E-02  0.281920697E-01
   C  0.139636483E+01  0.585816328E-01  0.215771569E-01
   H -0.769769886E+01  0.586286045E+00 -0.481655837E+00
   H  0.761955917E+01 -0.909040577E+00 -0.539967194E+00
     4
 # iter = 29000  time[fs]=29.00000
   C -0.134152422E+01 -0.922274037E-02  0.305388262E-01
   C  0.145628502E+01  0.615653294E-01  0.236560664E-01
   H -0.805376108E+01  0.611126503E+00 -0.503139809E+00
   H  0.796576790E+01 -0.954526215E+00 -0.564795382E+00
     4
 # iter = 29500  time[fs]=29.50000
   C -0.140121514E+01 -0.120469100E-01  0.329040893E-01
   C  0.151780425E+01  0.646099451E-01  0.257479251E-01
   H -0.841233680E+01  0.636170561E+00 -0.524792016E+00
   H  0.831465209E+01 -0.100037821E+01 -0.589832803E+00
     4
 # iter = 30000  time[fs]=30.00000
   C -0.146238754E+01 -0.149160356E-01  0.352863254E-01
   C  0.158079252E+01  0.677120607E-01  0.278516893E-01
   H -0.877321674E+01  0.661401136E+00 -0.546598520E+00
   H  0.866598990E+01 -0.104656726E+01 -0.615062472E+00
     4
 # iter = 30500  time[fs]=30.50000
   C -0.152492294E+01 -0.178277756E-01  0.376841731E-01
   C  0.164513227E+01  0.708684212E-01  0.299664404E-01
   H -0.913621583E+01  0.686803165E+00 -0.568547009E+00
   H  0.901958498E+01 -0.109306732E+01 -0.640469336E+00
     4
 # iter = 31000  time[fs]=31.00000
   C -0.158871426E+01 -0.207798695E-01  0.400964189E-01
   C  0.171071728E+01  0.740759453E-01  0.320913650E-01
   H -0.950116970E+01  0.712363308E+00 -0.590626557E+00
   H  0.937526279E+01 -0.113985522E+01 -0.666040000E+00
     4
 # iter = 31500  time[fs]=31.50000
   C -0.165366471E+01 -0.237701524E-01  0.425219785E-01
   C  0.177745153E+01  0.773317279E-01  0.342257389E-01
   H -0.986793181E+01  0.738069693E+00 -0.612827428E+00
   H  0.973286759E+01 -0.118691019E+01 -0.691762498E+00
     4
 # iter = 32000  time[fs]=32.00000
   C -0.171968676E+01 -0.267965639E-01  0.449598792E-01
   C  0.184524817E+01  0.806330394E-01  0.363689146E-01
   H -0.102363710E+02  0.763911715E+00 -0.635140913E+00
   H  0.100922599E+02 -0.123421360E+01 -0.717626098E+00
     4
 # iter = 32500  time[fs]=32.50000
   C -0.178670119E+01 -0.298571526E-01  0.474092465E-01
   C  0.191402861E+01  0.839773215E-01  0.385203099E-01
   H -0.106063695E+02  0.789879863E+00 -0.657559188E+00
   H  0.104533145E+02 -0.128174865E+01 -0.743621142E+00
     4
 # iter = 33000  time[fs]=33.00000
   C -0.185463621E+01 -0.329500764E-01  0.498692913E-01
   C  0.198372163E+01  0.873621805E-01  0.406793999E-01
   H -0.109778211E+02  0.815965578E+00 -0.680075204E+00
   H  0.108159183E+02 -0.132950018E+01 -0.769738909E+00
     4
 # iter = 33500  time[fs]=33.50000
   C -0.192342668E+01 -0.360736017E-01  0.523393001E-01
   C  0.205426262E+01  0.907853798E-01  0.428457088E-01
   H -0.113506300E+02  0.842161128E+00 -0.702682590E+00
   H  0.111799691E+02 -0.137745441E+01 -0.795971503E+00
     4
 # iter = 34000  time[fs]=34.00000
   C -0.199301344E+01 -0.392261001E-01  0.548186256E-01
   C  0.212559289E+01  0.942448315E-01  0.450188043E-01
   H -0.117247090E+02  0.868459513E+00 -0.725375565E+00
   H  0.115453743E+02 -0.142559882E+01 -0.822311749E+00
     4
 # iter = 34500  time[fs]=34.50000
   C -0.206334264E+01 -0.424060440E-01  0.573066794E-01
   C  0.219765901E+01  0.977385873E-01  0.471982924E-01
   H -0.120999792E+02  0.894854367E+00 -0.748148871E+00
   H  0.119120496E+02 -0.147392201E+01 -0.848753112E+00
     4
 # iter = 35000  time[fs]=35.00000
   C -0.213436522E+01 -0.456120021E-01  0.598029251E-01
   C  0.227041233E+01  0.101264829E+00  0.493838123E-01
   H -0.124763684E+02  0.921339893E+00 -0.770997715E+00
   H  0.122799182E+02 -0.152241353E+01 -0.875289624E+00
     4
 # iter = 35500  time[fs]=35.50000
   C -0.220603638E+01 -0.488426343E-01  0.623068727E-01
   C  0.234380842E+01  0.104821862E+00  0.515750334E-01
   H -0.128538108E+02  0.947910794E+00 -0.793917712E+00
   H  0.126489097E+02 -0.157106383E+01 -0.901915818E+00
     4
 # iter = 36000  time[fs]=36.00000
   C -0.227831519E+01 -0.520966858E-01  0.648180735E-01
   C  0.241780666E+01  0.108408103E+00  0.537716515E-01
   H -0.132322458E+02  0.974562217E+00 -0.816904844E+00
   H  0.130189598E+02 -0.161986411E+01 -0.928626681E+00
     4
 # iter = 36500  time[fs]=36.50000
   C -0.235116414E+01 -0.553729823E-01  0.673361155E-01
   C  0.249236986E+01  0.112022076E+00  0.559733864E-01
   H -0.136116182E+02  0.100128971E+01 -0.839955417E+00
   H  0.133900093E+02 -0.166880630E+01 -0.955417598E+00
     4
 # iter = 37000  time[fs]=37.00000
   C -0.242454883E+01 -0.586704244E-01  0.698606201E-01
   C  0.256746391E+01  0.115662400E+00  0.581799789E-01
   H -0.139918769E+02  0.102808916E+01 -0.863066031E+00
   H  0.137620039E+02 -0.171788294E+01 -0.982284317E+00
     4
 # iter = 37500  time[fs]=37.50000
   C -0.249843765E+01 -0.619879829E-01  0.723912383E-01
   C  0.264305746E+01  0.119327788E+00  0.603911893E-01
   H -0.143729748E+02  0.105495681E+01 -0.886233549E+00
   H  0.141348933E+02 -0.176708713E+01 -0.100922291E+01
     4
 # iter = 38000  time[fs]=38.00000
   C -0.257280152E+01 -0.653246935E-01  0.749276479E-01
   C  0.271912167E+01  0.123017034E+00  0.626067951E-01
   H -0.147548685E+02  0.108188915E+01 -0.909455069E+00
   H  0.145086311E+02 -0.181641248E+01 -0.103622974E+01
     4
 # iter = 38500  time[fs]=38.50000
   C -0.264761363E+01 -0.686796529E-01  0.774695509E-01
   C  0.279562996E+01  0.126729010E+00  0.648265893E-01
   H -0.151375176E+02  0.110888294E+01 -0.932727903E+00
   H  0.148831744E+02 -0.186585306E+01 -0.106330144E+01
     4
 # iter = 39000  time[fs]=39.00000
   C -0.272284924E+01 -0.720520139E-01  0.800166712E-01
   C  0.287255779E+01  0.130462661E+00  0.670503793E-01
   H -0.155208850E+02  0.113593519E+01 -0.956049556E+00
   H  0.152584833E+02 -0.191540337E+01 -0.109043488E+01
     4
 # iter = 39500  time[fs]=39.50000
   C -0.279848545E+01 -0.754409818E-01  0.825687525E-01
   C  0.294988246E+01  0.134216996E+00  0.692779856E-01
   H -0.159049359E+02  0.116304311E+01 -0.979417711E+00
   H  0.156345209E+02 -0.196505829E+01 -0.111762714E+01
     4
 # iter = 40000  time[fs]=40.00000
   C -0.287450108E+01 -0.788458105E-01  0.851255564E-01
   C  0.302758297E+01  0.137991088E+00  0.715092402E-01
   H -0.162896380E+02  0.119020411E+01 -0.100283021E+01
   H  0.160112526E+02 -0.201481303E+01 -0.114487552E+01
     4
 # iter = 40500  time[fs]=40.50000
   C -0.295087647E+01 -0.822657989E-01  0.876868611E-01
   C  0.310563984E+01  0.141784064E+00  0.737439859E-01
   H -0.166749613E+02  0.121741576E+01 -0.102628503E+01
   H  0.163886465E+02 -0.206466313E+01 -0.117217747E+01
     4
 # iter = 41000  time[fs]=41.00000
   C -0.302759338E+01 -0.857002881E-01  0.902524597E-01
   C  0.318403497E+01  0.145595108E+00  0.759820757E-01
   H -0.170608777E+02  0.124467580E+01 -0.104978029E+01
   H  0.167666724E+02 -0.211460440E+01 -0.119953063E+01
     4
 # iter = 41500  time[fs]=41.50000
   C -0.310463484E+01 -0.891486580E-01  0.928221590E-01
   C  0.326275155E+01  0.149423447E+00  0.782233714E-01
   H -0.174473609E+02  0.127198212E+01 -0.107331424E+01
   H  0.171453024E+02 -0.216463295E+01 -0.122693279E+01
     4
 # iter = 42000  time[fs]=42.00000
   C -0.318198505E+01 -0.926103248E-01  0.953957781E-01
   C  0.334177391E+01  0.153268359E+00  0.804677430E-01
   H -0.178343864E+02  0.129933274E+01 -0.109688522E+01
   H  0.175245103E+02 -0.221474510E+01 -0.125438186E+01
     4
 # iter = 42500  time[fs]=42.50000
   C -0.325962927E+01 -0.960847385E-01  0.979731478E-01
   C  0.342108744E+01  0.157129161E+00  0.827150686E-01
   H -0.182219311E+02  0.132672580E+01 -0.112049170E+01
   H  0.179042715E+02 -0.226493741E+01 -0.128187590E+01
     4
 # iter = 43000  time[fs]=43.00000
   C -0.333755373E+01 -0.995713801E-01  0.100554109E+00
   C  0.350067850E+01  0.161005209E+00  0.849652330E-01
   H -0.186099734E+02  0.135415957E+01 -0.114413220E+01
   H  0.182845629E+02 -0.231520664E+01 -0.130941308E+01
     4
 # iter = 43500  time[fs]=43.50000
   C -0.341574559E+01 -0.103069760E+00  0.103138514E+00
   C  0.358053436E+01  0.164895895E+00  0.872181277E-01
   H -0.189984930E+02  0.138163240E+01 -0.116780537E+01
   H  0.186653627E+02 -0.236554974E+01 -0.133699166E+01
     4
 # iter = 44000  time[fs]=44.00000
   C -0.349419280E+01 -0.106579416E+00  0.105726221E+00
   C  0.366064307E+01  0.168800648E+00  0.894736504E-01
   H -0.193874709E+02  0.140914275E+01 -0.119150993E+01
   H  0.190466507E+02 -0.241596385E+01 -0.136461003E+01
     4
 # iter = 44500  time[fs]=44.50000
   C -0.357288408E+01 -0.110099910E+00  0.108317099E+00
   C  0.374099347E+01  0.172718925E+00  0.917317040E-01
   H -0.197768889E+02  0.143668917E+01 -0.121524465E+01
   H  0.194284076E+02 -0.246644624E+01 -0.139226666E+01
     4
 # iter = 45000  time[fs]=45.00000
   C -0.365180886E+01 -0.113630830E+00  0.110911024E+00
   C  0.382157506E+01  0.176650213E+00  0.939921971E-01
   H -0.201667301E+02  0.146427029E+01 -0.123900839E+01
   H  0.198106152E+02 -0.251699436E+01 -0.141996010E+01
     4
 # iter = 45500  time[fs]=45.50000
   C -0.373095718E+01 -0.117171783E+00  0.113507878E+00
   C  0.390237800E+01  0.180594027E+00  0.962550429E-01
   H -0.205569784E+02  0.149188480E+01 -0.126280008E+01
   H  0.201932565E+02 -0.256760580E+01 -0.144768898E+01
     4
 # iter = 46000  time[fs]=46.00000
   C -0.381031972E+01 -0.120722399E+00  0.116107551E+00
   C  0.398339302E+01  0.184549908E+00  0.985201591E-01
   H -0.209476188E+02  0.151953149E+01 -0.128661868E+01
   H  0.205763152E+02 -0.261827826E+01 -0.147545201E+01
     4
 # iter = 46500  time[fs]=46.50000
   C -0.388988767E+01 -0.124282327E+00  0.118709938E+00
   C  0.406461142E+01  0.188517419E+00  0.100787468E+00
   H -0.213386369E+02  0.154720920E+01 -0.131046324E+01
   H  0.209597762E+02 -0.266900957E+01 -0.150324797E+01
     4
 # iter = 47000  time[fs]=47.00000
   C -0.396965275E+01 -0.127851231E+00  0.121314940E+00
   C  0.414602498E+01  0.192496148E+00  0.103056894E+00
   H -0.217300191E+02  0.157491683E+01 -0.133433283E+01
   H  0.213436248E+02 -0.271979767E+01 -0.153107570E+01
     4
 # iter = 47500  time[fs]=47.50000
   C -0.404960715E+01 -0.131428796E+00  0.123922464E+00
   C  0.422762596E+01  0.196485701E+00  0.105328369E+00
   H -0.221217525E+02  0.160265333E+01 -0.135822658E+01
   H  0.217278474E+02 -0.277064062E+01 -0.155893409E+01
     4
 # iter = 48000  time[fs]=48.00000
   C -0.412974348E+01 -0.135014720E+00  0.126532421E+00
   C  0.430940706E+01  0.200485705E+00  0.107601824E+00
   H -0.225138250E+02  0.163041773E+01 -0.138214367E+01
   H  0.221124310E+02 -0.282153656E+01 -0.158682211E+01
     4
 # iter = 48500  time[fs]=48.50000
   C -0.421005478E+01 -0.138608718E+00  0.129144726E+00
   C  0.439136137E+01  0.204495805E+00  0.109877196E+00
   H -0.229062250E+02  0.165820907E+01 -0.140608332E+01
   H  0.224973632E+02 -0.287248372E+01 -0.161473876E+01
     4
 # iter = 49000  time[fs]=49.00000
   C -0.429053447E+01 -0.142210516E+00  0.131759299E+00
   C  0.447348235E+01  0.208515663E+00  0.112154424E+00
   H -0.232989415E+02  0.168602648E+01 -0.143004477E+01
   H  0.228826322E+02 -0.292348043E+01 -0.164268310E+01
     4
 # iter = 49500  time[fs]=49.50000
   C -0.437117629E+01 -0.145819856E+00  0.134376065E+00
   C  0.455576384E+01  0.212544958E+00  0.114433451E+00
   H -0.236919639E+02  0.171386909E+01 -0.145402732E+01
   H  0.232682270E+02 -0.297452510E+01 -0.167065422E+01
     4
 # iter = 50000  time[fs]=50.00000
   C -0.445197434E+01 -0.149436490E+00  0.136994951E+00
   C  0.463819996E+01  0.216583384E+00  0.116714220E+00
   H -0.240852824E+02  0.174173610E+01 -0.147803029E+01
   H  0.236541367E+02 -0.302561620E+01 -0.169865127E+01
     4
 # iter = 50500  time[fs]=50.50000
   C -0.453292301E+01 -0.153060183E+00  0.139615888E+00
   C  0.472078518E+01  0.220630647E+00  0.118996679E+00
   H -0.244788874E+02  0.176962674E+01 -0.150205304E+01
   H  0.240403514E+02 -0.307675228E+01 -0.172667344E+01
     4
 # iter = 51000  time[fs]=51.00000
   C -0.461401699E+01 -0.156690710E+00  0.142238810E+00
   C  0.480351422E+01  0.224686470E+00  0.121280777E+00
   H -0.248727699E+02  0.179754028E+01 -0.152609496E+01
   H  0.244268614E+02 -0.312793195E+01 -0.175471994E+01
     4
 # iter = 51500  time[fs]=51.50000
   C -0.469525122E+01 -0.160327856E+00  0.144863656E+00
   C  0.488638209E+01  0.228750586E+00  0.123566467E+00
   H -0.252669213E+02  0.182547601E+01 -0.155015545E+01
   H  0.248136575E+02 -0.317915391E+01 -0.178279004E+01
     4
 # iter = 52000  time[fs]=52.00000
   C -0.477662091E+01 -0.163971417E+00  0.147490364E+00
   C  0.496938401E+01  0.232822740E+00  0.125853702E+00
   H -0.256613333E+02  0.185343327E+01 -0.157423395E+01
   H  0.252007308E+02 -0.323041687E+01 -0.181088302E+01
     4
 # iter = 52500  time[fs]=52.50000
   C -0.485812148E+01 -0.167621196E+00  0.150118879E+00
   C  0.505251548E+01  0.236902689E+00  0.128142437E+00
   H -0.260559981E+02  0.188141140E+01 -0.159832994E+01
   H  0.255880730E+02 -0.328171963E+01 -0.183899821E+01
     4
 # iter = 53000  time[fs]=53.00000
   C -0.493974859E+01 -0.171277007E+00  0.152749146E+00
   C  0.513577219E+01  0.240990201E+00  0.130432631E+00
   H -0.264509081E+02  0.190940981E+01 -0.162244289E+01
   H  0.259756762E+02 -0.333306104E+01 -0.186713495E+01
     4
 # iter = 53500  time[fs]=53.50000
   C -0.502149810E+01 -0.174938670E+00  0.155381113E+00
   C  0.521915003E+01  0.245085053E+00  0.132724242E+00
   H -0.268460562E+02  0.193742791E+01 -0.164657232E+01
   H  0.263635325E+02 -0.338444000E+01 -0.189529263E+01
     4
 # iter = 54000  time[fs]=54.00000
   C -0.510336606E+01 -0.178606013E+00  0.158014730E+00
   C  0.530264510E+01  0.249187032E+00  0.135017232E+00
   H -0.272414354E+02  0.196546513E+01 -0.167071777E+01
   H  0.267516346E+02 -0.343585543E+01 -0.192347064E+01
     4
 # iter = 54500  time[fs]=54.50000
   C -0.518534871E+01 -0.182278873E+00  0.160649950E+00
   C  0.538625367E+01  0.253295933E+00  0.137311564E+00
   H -0.276370392E+02  0.199352094E+01 -0.169487877E+01
   H  0.271399756E+02 -0.348730632E+01 -0.195166842E+01
     4
 # iter = 55000  time[fs]=55.00000
   C -0.526744246E+01 -0.185957092E+00  0.163286726E+00
   C  0.546997218E+01  0.257411561E+00  0.139607201E+00
   H -0.280328613E+02  0.202159482E+01 -0.171905489E+01
   H  0.275285487E+02 -0.353879171E+01 -0.197988543E+01
     4
 # iter = 55500  time[fs]=55.50000
   C -0.534964387E+01 -0.189640518E+00  0.165925016E+00
   C  0.555379724E+01  0.261533728E+00  0.141904110E+00
   H -0.284288955E+02  0.204968627E+01 -0.174324574E+01
   H  0.279173474E+02 -0.359031065E+01 -0.200812113E+01
     4
 # iter = 56000  time[fs]=56.00000
   C -0.543194967E+01 -0.193329006E+00  0.168564777E+00
   C  0.563772560E+01  0.265662254E+00  0.144202256E+00
   H -0.288251361E+02  0.207779483E+01 -0.176745090E+01
   H  0.283063655E+02 -0.364186224E+01 -0.203637502E+01
     4
 # iter = 56500  time[fs]=56.50000
   C -0.551435672E+01 -0.197022419E+00  0.171205969E+00
   C  0.572175415E+01  0.269796966E+00  0.146501608E+00
   H -0.292215775E+02  0.210592004E+01 -0.179166999E+01
   H  0.286955971E+02 -0.369344563E+01 -0.206464662E+01
     4
 # iter = 57000  time[fs]=57.00000
   C -0.559686201E+01 -0.200720621E+00  0.173848554E+00
   C  0.580587991E+01  0.273937697E+00  0.148802135E+00
   H -0.296182143E+02  0.213406145E+01 -0.181590266E+01
   H  0.290850365E+02 -0.374505998E+01 -0.209293547E+01
     4
 # iter = 57500  time[fs]=57.50000
   C -0.567946269E+01 -0.204423485E+00  0.176492494E+00
   C  0.589010006E+01  0.278084287E+00  0.151103808E+00
   H -0.300150414E+02  0.216221866E+01 -0.184014854E+01
   H  0.294746781E+02 -0.379670449E+01 -0.212124111E+01
     4
 # iter = 58000  time[fs]=58.00000
   C -0.576215598E+01 -0.208130887E+00  0.179137754E+00
   C  0.597441186E+01  0.282236584E+00  0.153406599E+00
   H -0.304120538E+02  0.219039125E+01 -0.186440731E+01
   H  0.298645168E+02 -0.384837840E+01 -0.214956312E+01
     4
 # iter = 58500  time[fs]=58.50000
   C -0.584493926E+01 -0.211842708E+00  0.181784299E+00
   C  0.605881269E+01  0.286394438E+00  0.155710480E+00
   H -0.308092469E+02  0.221857883E+01 -0.188867862E+01
   H  0.302545473E+02 -0.390008097E+01 -0.217790108E+01
     4
 # iter = 59000  time[fs]=59.00000
   C -0.592781000E+01 -0.215558835E+00  0.184432097E+00
   C  0.614330007E+01  0.290557709E+00  0.158015424E+00
   H -0.312066159E+02  0.224678104E+01 -0.191296217E+01
   H  0.306447650E+02 -0.395181149E+01 -0.220625460E+01
     4
 # iter = 59500  time[fs]=59.50000
   C -0.601076577E+01 -0.219279157E+00  0.187081115E+00
   C  0.622787157E+01  0.294726258E+00  0.160321406E+00
   H -0.316041565E+02  0.227499750E+01 -0.193725766E+01
   H  0.310351649E+02 -0.400356927E+01 -0.223462329E+01
     4
 # iter = 60000  time[fs]=60.00000
   C -0.609380424E+01 -0.223003569E+00  0.189731325E+00
   C  0.631252491E+01  0.298899955E+00  0.162628402E+00
   H -0.320018644E+02  0.230322787E+01 -0.196156480E+01
   H  0.314257427E+02 -0.405535365E+01 -0.226300678E+01
     4
 # iter = 60500  time[fs]=60.50000
   C -0.617692318E+01 -0.226731968E+00  0.192382694E+00
   C  0.639725785E+01  0.303078671E+00  0.164936387E+00
   H -0.323997355E+02  0.233147182E+01 -0.198588330E+01
   H  0.318164940E+02 -0.410716400E+01 -0.229140471E+01
     4
 # iter = 61000  time[fs]=61.00000
   C -0.626012042E+01 -0.230464256E+00  0.195035197E+00
   C  0.648206828E+01  0.307262285E+00  0.167245340E+00
   H -0.327977660E+02  0.235972902E+01 -0.201021289E+01
   H  0.322074145E+02 -0.415899969E+01 -0.231981675E+01
     4
 # iter = 61500  time[fs]=61.50000
   C -0.634339392E+01 -0.234200339E+00  0.197688805E+00
   C  0.656695415E+01  0.311450678E+00  0.169555237E+00
   H -0.331959519E+02  0.238799916E+01 -0.203455332E+01
   H  0.325985002E+02 -0.421086014E+01 -0.234824255E+01
     4
 # iter = 62000  time[fs]=62.00000
   C -0.642674167E+01 -0.237940124E+00  0.200343491E+00
   C  0.665191348E+01  0.315643735E+00  0.171866058E+00
   H -0.335942897E+02  0.241628194E+01 -0.205890432E+01
   H  0.329897471E+02 -0.426274477E+01 -0.237668180E+01
     4
 # iter = 62500  time[fs]=62.50000
   C -0.651016176E+01 -0.241683525E+00  0.202999232E+00
   C  0.673694439E+01  0.319841348E+00  0.174177781E+00
   H -0.339927757E+02  0.244457707E+01 -0.208326566E+01
   H  0.333811516E+02 -0.431465304E+01 -0.240513419E+01
     4
 # iter = 63000  time[fs]=63.00000
   C -0.659365236E+01 -0.245430455E+00  0.205656001E+00
   C  0.682204505E+01  0.324043409E+00  0.176490387E+00
   H -0.343914066E+02  0.247288426E+01 -0.210763711E+01
   H  0.337727099E+02 -0.436658440E+01 -0.243359942E+01
     4
 # iter = 63500  time[fs]=63.50000
   C -0.667721168E+01 -0.249180832E+00  0.208313775E+00
   C  0.690721370E+01  0.328249817E+00  0.178803857E+00
   H -0.347901790E+02  0.250120325E+01 -0.213201842E+01
   H  0.341644186E+02 -0.441853833E+01 -0.246207720E+01
     4
 # iter = 64000  time[fs]=64.00000
   C -0.676083802E+01 -0.252934577E+00  0.210972531E+00
   C  0.699244866E+01  0.332460470E+00  0.181118171E+00
   H -0.351890897E+02  0.252953376E+01 -0.215640939E+01
   H  0.345562742E+02 -0.447051435E+01 -0.249056725E+01
     4
 # iter = 64500  time[fs]=64.50000
   C -0.684452974E+01 -0.256691612E+00  0.213632248E+00
   C  0.707774828E+01  0.336675275E+00  0.183433312E+00
   H -0.355881357E+02  0.255787556E+01 -0.218080980E+01
   H  0.349482734E+02 -0.452251196E+01 -0.251906930E+01
     4
 # iter = 65000  time[fs]=65.00000
   C -0.692828523E+01 -0.260451865E+00  0.216292904E+00
   C  0.716311101E+01  0.340894137E+00  0.185749262E+00
   H -0.359873139E+02  0.258622839E+01 -0.220521944E+01
   H  0.353404131E+02 -0.457453070E+01 -0.254758309E+01
     4
 # iter = 65500  time[fs]=65.50000
   C -0.701210297E+01 -0.264215262E+00  0.218954477E+00
   C  0.724853532E+01  0.345116968E+00  0.188066005E+00
   H -0.363866215E+02  0.261459201E+01 -0.222963812E+01
   H  0.357326902E+02 -0.462657011E+01 -0.257610837E+01
     4
 # iter = 66000  time[fs]=66.00000
   C -0.709598149E+01 -0.267981735E+00  0.221616949E+00
   C  0.733401974E+01  0.349343680E+00  0.190383522E+00
   H -0.367860557E+02  0.264296620E+01 -0.225406565E+01
   H  0.361251017E+02 -0.467862975E+01 -0.260464488E+01
     4
 # iter = 66500  time[fs]=66.50000
   C -0.717991934E+01 -0.271751216E+00  0.224280299E+00
   C  0.741956286E+01  0.353574189E+00  0.192701800E+00
   H -0.371856137E+02  0.267135073E+01 -0.227850183E+01
   H  0.365176446E+02 -0.473070921E+01 -0.263319241E+01
     4
 # iter = 67000  time[fs]=67.00000
   C -0.726391515E+01 -0.275523639E+00  0.226944509E+00
   C  0.750516333E+01  0.357808414E+00  0.195020822E+00
   H -0.375852930E+02  0.269974539E+01 -0.230294648E+01
   H  0.369103163E+02 -0.478280807E+01 -0.266175070E+01
     4
 # iter = 67500  time[fs]=67.50000
   C -0.734796759E+01 -0.279298943E+00  0.229609561E+00
   C  0.759081981E+01  0.362046276E+00  0.197340573E+00
   H -0.379850909E+02  0.272814996E+01 -0.232739944E+01
   H  0.373031140E+02 -0.483492592E+01 -0.269031955E+01
     4
 # iter = 68000  time[fs]=68.00000
   C -0.743207537E+01 -0.283077066E+00  0.232275437E+00
   C  0.767653103E+01  0.366287698E+00  0.199661039E+00
   H -0.383850051E+02  0.275656424E+01 -0.235186052E+01
   H  0.376960351E+02 -0.488706239E+01 -0.271889873E+01
     4
 # iter = 68500  time[fs]=68.50000
   C -0.751623724E+01 -0.286857948E+00  0.234942120E+00
   C  0.776229576E+01  0.370532607E+00  0.201982205E+00
   H -0.387850331E+02  0.278498804E+01 -0.237632957E+01
   H  0.380890770E+02 -0.493921709E+01 -0.274748804E+01
     4
 # iter = 69000  time[fs]=69.00000
   C -0.760045200E+01 -0.290641533E+00  0.237609594E+00
   C  0.784811280E+01  0.374780930E+00  0.204304058E+00
   H -0.391851727E+02  0.281342116E+01 -0.240080642E+01
   H  0.384822374E+02 -0.499138967E+01 -0.277608727E+01
     4
 # iter = 69500  time[fs]=69.50000
   C -0.768471848E+01 -0.294427764E+00  0.240277842E+00
   C  0.793398101E+01  0.379032599E+00  0.206626584E+00
   H -0.395854215E+02  0.284186342E+01 -0.242529093E+01
   H  0.388755137E+02 -0.504357977E+01 -0.280469623E+01
     4
 # iter = 70000  time[fs]=70.00000
   C -0.776903555E+01 -0.298216588E+00  0.242946849E+00
   C  0.801989926E+01  0.383287545E+00  0.208949771E+00
   H -0.399857774E+02  0.287031465E+01 -0.244978293E+01
   H  0.392689036E+02 -0.509578704E+01 -0.283331472E+01
     4
 # iter = 70500  time[fs]=70.50000
   C -0.785340212E+01 -0.302007953E+00  0.245616599E+00
   C  0.810586648E+01  0.387545702E+00  0.211273606E+00
   H -0.403862383E+02  0.289877465E+01 -0.247428229E+01
   H  0.396624050E+02 -0.514801116E+01 -0.286194256E+01
     4
 # iter = 71000  time[fs]=71.00000
   C -0.793781714E+01 -0.305801807E+00  0.248287079E+00
   C  0.819188161E+01  0.391807008E+00  0.213598077E+00
   H -0.407868021E+02  0.292724328E+01 -0.249878886E+01
   H  0.400560157E+02 -0.520025180E+01 -0.289057956E+01
     4
 # iter = 71500  time[fs]=71.50000
   C -0.802227956E+01 -0.309598101E+00  0.250958274E+00
   C  0.827794364E+01  0.396071401E+00  0.215923172E+00
   H -0.411874669E+02  0.295572035E+01 -0.252330250E+01
   H  0.404497334E+02 -0.525250864E+01 -0.291922556E+01
     4
 # iter = 72000  time[fs]=72.00000
   C -0.810678841E+01 -0.313396788E+00  0.253630169E+00
   C  0.836405159E+01  0.400338819E+00  0.218248878E+00
   H -0.415882306E+02  0.298420572E+01 -0.254782308E+01
   H  0.408435562E+02 -0.530478138E+01 -0.294788037E+01
     4
 # iter = 72500  time[fs]=72.50000
   C -0.819134272E+01 -0.317197820E+00  0.256302753E+00
   C  0.845020450E+01  0.404609206E+00  0.220575186E+00
   H -0.419890915E+02  0.301269922E+01 -0.257235047E+01
   H  0.412374820E+02 -0.535706972E+01 -0.297654385E+01
     4
 # iter = 73000  time[fs]=73.00000
   C -0.827594155E+01 -0.321001153E+00  0.258976010E+00
   C  0.853640145E+01  0.408882505E+00  0.222902084E+00
   H -0.423900476E+02  0.304120070E+01 -0.259688454E+01
   H  0.416315089E+02 -0.540937337E+01 -0.300521582E+01
     4
 # iter = 73500  time[fs]=73.50000
   C -0.836058400E+01 -0.324806743E+00  0.261649930E+00
   C  0.862264154E+01  0.413158659E+00  0.225229562E+00
   H -0.427910972E+02  0.306971002E+01 -0.262142517E+01
   H  0.420256350E+02 -0.546169206E+01 -0.303389612E+01
     4
 # iter = 74000  time[fs]=74.00000
   C -0.844526918E+01 -0.328614547E+00  0.264324500E+00
   C  0.870892391E+01  0.417437617E+00  0.227557609E+00
   H -0.431922387E+02  0.309822704E+01 -0.264597224E+01
   H  0.424198585E+02 -0.551402551E+01 -0.306258462E+01
     4
 # iter = 74500  time[fs]=74.50000
   C -0.852999625E+01 -0.332424523E+00  0.266999707E+00
   C  0.879524770E+01  0.421719325E+00  0.229886215E+00
   H -0.435934702E+02  0.312675161E+01 -0.267052563E+01
   H  0.428141776E+02 -0.556637345E+01 -0.309128115E+01
     4
 # iter = 75000  time[fs]=75.00000
   C -0.861476437E+01 -0.336236632E+00  0.269675539E+00
   C  0.888161209E+01  0.426003733E+00  0.232215370E+00
   H -0.439947901E+02  0.315528359E+01 -0.269508523E+01
   H  0.432085905E+02 -0.561873562E+01 -0.311998557E+01
     4
 # iter = 75500  time[fs]=75.50000
   C -0.869957275E+01 -0.340050833E+00  0.272351987E+00
   C  0.896801630E+01  0.430290792E+00  0.234545065E+00
   H -0.443961969E+02  0.318382287E+01 -0.271965093E+01
   H  0.436030955E+02 -0.567111178E+01 -0.314869774E+01
     4
 # iter = 76000  time[fs]=76.00000
   C -0.878442059E+01 -0.343867089E+00  0.275029038E+00
   C  0.905445955E+01  0.434580454E+00  0.236875290E+00
   H -0.447976890E+02  0.321236930E+01 -0.274422262E+01
   H  0.439976910E+02 -0.572350167E+01 -0.317741754E+01
     4
 # iter = 76500  time[fs]=76.50000
   C -0.886930714E+01 -0.347685363E+00  0.277706681E+00
   C  0.914094108E+01  0.438872672E+00  0.239206036E+00
   H -0.451992650E+02  0.324092277E+01 -0.276880019E+01
   H  0.443923754E+02 -0.577590505E+01 -0.320614481E+01
     4
 # iter = 77000  time[fs]=77.00000
   C -0.895423167E+01 -0.351505618E+00  0.280384907E+00
   C  0.922746016E+01  0.443167401E+00  0.241537295E+00
   H -0.456009232E+02  0.326948315E+01 -0.279338355E+01
   H  0.447871472E+02 -0.582832171E+01 -0.323487944E+01
     4
 # iter = 77500  time[fs]=77.50000
   C -0.903919344E+01 -0.355327819E+00  0.283063706E+00
   C  0.931401610E+01  0.447464596E+00  0.243869058E+00
   H -0.460026623E+02  0.329805032E+01 -0.281797260E+01
   H  0.451820047E+02 -0.588075139E+01 -0.326362129E+01
     4
 # iter = 78000  time[fs]=78.00000
   C -0.912419178E+01 -0.359151932E+00  0.285743066E+00
   C  0.940060818E+01  0.451764215E+00  0.246201316E+00
   H -0.464044810E+02  0.332662417E+01 -0.284256723E+01
   H  0.455769465E+02 -0.593319390E+01 -0.329237025E+01
     4
 # iter = 78500  time[fs]=78.50000
   C -0.920922599E+01 -0.362977924E+00  0.288422979E+00
   C  0.948723575E+01  0.456066215E+00  0.248534061E+00
   H -0.468063777E+02  0.335520458E+01 -0.286716735E+01
   H  0.459719712E+02 -0.598564900E+01 -0.332112619E+01
     4
 # iter = 79000  time[fs]=79.00000
   C -0.929429541E+01 -0.366805761E+00  0.291103434E+00
   C  0.957389815E+01  0.460370555E+00  0.250867286E+00
   H -0.472083513E+02  0.338379145E+01 -0.289177288E+01
   H  0.463670773E+02 -0.603811650E+01 -0.334988899E+01
     4
 # iter = 79500  time[fs]=79.50000
   C -0.937939941E+01 -0.370635412E+00  0.293784424E+00
   C  0.966059474E+01  0.464677195E+00  0.253200982E+00
   H -0.476104004E+02  0.341238467E+01 -0.291638372E+01
   H  0.467622635E+02 -0.609059618E+01 -0.337865855E+01
     4
 # iter = 80000  time[fs]=80.00000
   C -0.946453736E+01 -0.374466846E+00  0.296465939E+00
   C  0.974732491E+01  0.468986098E+00  0.255535142E+00
   H -0.480125238E+02  0.344098412E+01 -0.294099978E+01
   H  0.471575285E+02 -0.614308784E+01 -0.340743475E+01
