     4
 # iter = 25000  time[fs]=25.00000
   C -0.958124430E+00 -0.155722176E-02  0.565711624E-01
   C  0.100751690E+01  0.968862204E-02 -0.129804963E-01
   H -0.529961425E+01  0.443298464E+00  0.138699196E+00
   H  0.527808175E+01 -0.247140757E+00 -0.323939542E+00
     4
 # iter = 25500  time[fs]=25.50000
   C -0.100048979E+01 -0.445823914E-02  0.586692440E-01
   C  0.104871507E+01  0.102431562E-01 -0.119481423E-01
   H -0.563054951E+01  0.467415808E+00  0.146860806E+00
   H  0.559789963E+01 -0.265414899E+00 -0.344384146E+00
     4
 # iter = 26000  time[fs]=26.00000
   C -0.104577386E+01 -0.740345096E-02  0.608757455E-01
   C  0.109280831E+01  0.108281403E-01 -0.110025167E-01
   H -0.596669913E+01  0.491998395E+00  0.155136432E+00
   H  0.592321539E+01 -0.283989350E+00 -0.365203063E+00
     4
 # iter = 26500  time[fs]=26.50000
   C -0.109374419E+01 -0.103921202E-01  0.631793898E-01
   C  0.113956637E+01  0.114446802E-01 -0.101346630E-01
   H -0.630748313E+01  0.516992397E+00  0.163513412E+00
   H  0.625342307E+01 -0.302832397E+00 -0.386355786E+00
     4
 # iter = 27000  time[fs]=27.00000
   C -0.114418225E+01 -0.134232278E-01  0.655700817E-01
   C  0.118877262E+01  0.120932679E-01 -0.933646865E-02
   H -0.665240833E+01  0.542352526E+00  0.171980949E+00
   H  0.658800624E+01 -0.321916884E+00 -0.407807725E+00
     4
 # iter = 27500  time[fs]=27.50000
   C -0.119688485E+01 -0.164955222E-01  0.680388345E-01
   C  0.124022563E+01  0.127739033E-01 -0.860065145E-02
   H -0.700105265E+01  0.568040368E+00  0.180529781E+00
   H  0.692652202E+01 -0.341219415E+00 -0.429529163E+00
     4
 # iter = 28000  time[fs]=28.00000
   C -0.125166472E+01 -0.196075763E-01  0.705776786E-01
   C  0.129373965E+01  0.134862057E-01 -0.792071683E-02
   H -0.735305260E+01  0.594023091E+00  0.189151924E+00
   H  0.726858832E+01 -0.360719713E+00 -0.451494417E+00
     4
 # iter = 28500  time[fs]=28.50000
   C -0.130835029E+01 -0.227578427E-01  0.731795641E-01
   C  0.134914452E+01  0.142295103E-01 -0.729089789E-02
   H -0.770809327E+01  0.620272435E+00  0.197840454E+00
   H  0.761387371E+01 -0.380400112E+00 -0.473681167E+00
     4
 # iter = 29000  time[fs]=29.00000
   C -0.136678513E+01 -0.259447021E-01  0.758382621E-01
   C  0.140628503E+01  0.150029481E-01 -0.670608817E-02
   H -0.806590038E+01  0.646763923E+00  0.206589339E+00
   H  0.796208913E+01 -0.400245139E+00 -0.496069911E+00
     4
 # iter = 29500  time[fs]=29.50000
   C -0.142682703E+01 -0.291665037E-01  0.785482711E-01
   C  0.146502006E+01  0.158055110E-01 -0.616177301E-02
   H -0.842623378E+01  0.673476225E+00  0.215393299E+00
   H  0.831298123E+01 -0.420241172E+00 -0.518643528E+00
     4
 # iter = 30000  time[fs]=30.00000
   C -0.148834701E+01 -0.324215973E-01  0.813047307E-01
   C  0.152522163E+01  0.166361029E-01 -0.565396334E-02
   H -0.878888221E+01  0.700390649E+00  0.224247688E+00
   H  0.866632693E+01 -0.440376171E+00 -0.541386915E+00
     4
 # iter = 30500  time[fs]=30.50000
   C -0.155122820E+01 -0.357083580E-01  0.841033424E-01
   C  0.158677374E+01  0.174935792E-01 -0.517913396E-02
   H -0.915365894E+01  0.727490735E+00  0.233148403E+00
   H  0.902192892E+01 -0.460639442E+00 -0.564286689E+00
     4
 # iter = 31000  time[fs]=31.00000
   C -0.161536481E+01 -0.390252037E-01  0.869402999E-01
   C  0.164957140E+01  0.183767775E-01 -0.473416728E-02
   H -0.952039823E+01  0.754761916E+00  0.242091803E+00
   H  0.937961194E+01 -0.481021451E+00 -0.587330946E+00
     4
 # iter = 31500  time[fs]=31.50000
   C -0.168066101E+01 -0.423706080E-01  0.898122272E-01
   C  0.171351949E+01  0.192845392E-01 -0.431630304E-02
   H -0.988895242E+01  0.782191243E+00  0.251074645E+00
   H  0.973921972E+01 -0.501513663E+00 -0.610509053E+00
     4
 # iter = 32000  time[fs]=32.00000
   C -0.174703005E+01 -0.457431080E-01  0.927161238E-01
   C  0.177853191E+01  0.202157257E-01 -0.392309365E-02
   H -0.102591894E+02  0.809767158E+00  0.260094031E+00
   H  0.101006124E+02 -0.522108413E+00 -0.633811479E+00
     4
 # iter = 32500  time[fs]=32.50000
   C -0.181439327E+01 -0.491413095E-01  0.956493179E-01
   C  0.184453058E+01  0.211692302E-01 -0.355236502E-02
   H -0.106309905E+02  0.837479305E+00  0.269147362E+00
   H  0.104636644E+02 -0.542798792E+00 -0.657229648E+00
     4
 # iter = 33000  time[fs]=33.00000
   C -0.188267930E+01 -0.525638895E-01  0.986094247E-01
   C  0.191144467E+01  0.221439851E-01 -0.320218225E-02
   H -0.110042490E+02  0.865318370E+00  0.278232295E+00
   H  0.108282626E+02 -0.563578553E+00 -0.680755823E+00
     4
 # iter = 33500  time[fs]=33.50000
   C -0.195182333E+01 -0.560095959E-01  0.101594311E+00
   C  0.197920984E+01  0.231389666E-01 -0.287081985E-02
   H -0.113788683E+02  0.893275947E+00  0.287346718E+00
   H  0.111943045E+02 -0.584442029E+00 -0.704382998E+00
     4
 # iter = 34000  time[fs]=34.00000
   C -0.202176642E+01 -0.594772473E-01  0.104602065E+00
   C  0.204776758E+01  0.241531980E-01 -0.255673577E-02
   H -0.117547609E+02  0.921344429E+00  0.296488718E+00
   H  0.115616975E+02 -0.605384066E+00 -0.728104814E+00
     4
 # iter = 34500  time[fs]=34.50000
   C -0.209245485E+01 -0.629657308E-01  0.107630966E+00
   C  0.211706460E+01  0.251857503E-01 -0.225854890E-02
   H -0.121318473E+02  0.949516904E+00  0.305656554E+00
   H  0.119303573E+02 -0.626399964E+00 -0.751915480E+00
     4
 # iter = 35000  time[fs]=35.00000
   C -0.216383967E+01 -0.664739991E-01  0.110679468E+00
   C  0.218705229E+01  0.262357426E-01 -0.197501955E-02
   H -0.125100551E+02  0.977787082E+00  0.314848645E+00
   H  0.123002069E+02 -0.647485426E+00 -0.775809709E+00
     4
 # iter = 35500  time[fs]=35.50000
   C -0.223587614E+01 -0.700010683E-01  0.113746172E+00
   C  0.225768625E+01  0.273023414E-01 -0.170503253E-02
   H -0.128893180E+02  0.100614922E+01  0.324063545E+00
   H  0.126711762E+02 -0.668636512E+00 -0.799782664E+00
     4
 # iter = 36000  time[fs]=36.00000
   C -0.230852331E+01 -0.735460139E-01  0.116829812E+00
   C  0.232892585E+01  0.283847589E-01 -0.144758242E-02
   H -0.132695754E+02  0.103459805E+01  0.333299929E+00
   H  0.130432007E+02 -0.689849602E+00 -0.823829908E+00
     4
 # iter = 36500  time[fs]=36.50000
   C -0.238174367E+01 -0.771079679E-01  0.119929243E+00
   C  0.240073386E+01  0.294822517E-01 -0.120176082E-02
   H -0.136507716E+02  0.106312875E+01  0.342556586E+00
   H  0.134162215E+02 -0.711121365E+00 -0.847947361E+00
     4
 # iter = 37000  time[fs]=37.00000
   C -0.245550280E+01 -0.806861153E-01  0.123043422E+00
   C  0.247307611E+01  0.305941185E-01 -0.966745243E-03
   H -0.140328554E+02  0.109173688E+01  0.351832398E+00
   H  0.137901840E+02 -0.732448726E+00 -0.872131265E+00
     4
 # iter = 37500  time[fs]=37.50000
   C -0.252976904E+01 -0.842796911E-01  0.126171397E+00
   C  0.254592120E+01  0.317196984E-01 -0.741789395E-03
   H -0.144157795E+02  0.112041835E+01  0.361126338E+00
   H  0.141650382E+02 -0.753828841E+00 -0.896378150E+00
     4
 # iter = 38000  time[fs]=38.00000
   C -0.260451324E+01 -0.878879767E-01  0.129312304E+00
   C  0.261924020E+01  0.328583683E-01 -0.526214759E-03
   H -0.147995003E+02  0.114916938E+01  0.370437455E+00
   H  0.145407378E+02 -0.775259077E+00 -0.920684806E+00
     4
 # iter = 38500  time[fs]=38.50000
   C -0.267970853E+01 -0.915102971E-01  0.132465348E+00
   C  0.269300644E+01  0.340095412E-01 -0.319403189E-03
   H -0.151839775E+02  0.117798646E+01  0.379764872E+00
   H  0.149172399E+02 -0.796736992E+00 -0.945048258E+00
     4
 # iter = 39000  time[fs]=39.00000
   C -0.275533008E+01 -0.951460180E-01  0.135629803E+00
   C  0.276719528E+01  0.351726638E-01 -0.120790444E-03
   H -0.155691735E+02  0.120686637E+01  0.389107775E+00
   H  0.152945047E+02 -0.818260313E+00 -0.969465745E+00
     4
 # iter = 39500  time[fs]=39.50000
   C -0.283135494E+01 -0.987945431E-01  0.138805003E+00
   C  0.284178396E+01  0.363472145E-01  0.701394962E-04
   H -0.159550537E+02  0.123580608E+01  0.398465408E+00
   H  0.156724954E+02 -0.839826926E+00 -0.993934699E+00
     4
 # iter = 40000  time[fs]=40.00000
   C -0.290776183E+01 -0.102455311E+00  0.141990333E+00
   C  0.291675136E+01  0.375327016E-01  0.253859418E-03
   H -0.163415856E+02  0.126480278E+01  0.407837069E+00
   H  0.160511775E+02 -0.861434858E+00 -0.101845273E+01
     4
 # iter = 40500  time[fs]=40.50000
   C -0.298453102E+01 -0.106127794E+00  0.145185228E+00
   C  0.299207791E+01  0.387286612E-01  0.430803280E-03
   H -0.167287391E+02  0.129385388E+01  0.417222103E+00
   H  0.164305189E+02 -0.883082268E+00 -0.104301760E+01
     4
 # iter = 41000  time[fs]=41.00000
   C -0.306164418E+01 -0.109811495E+00  0.148389167E+00
   C  0.306774542E+01  0.399346556E-01  0.601370089E-03
   H -0.171164860E+02  0.132295692E+01  0.426619901E+00
   H  0.168104900E+02 -0.904767431E+00 -0.106762723E+01
     4
 # iter = 41500  time[fs]=41.50000
   C -0.313908426E+01 -0.113505945E+00  0.151601666E+00
   C  0.314373699E+01  0.411502716E-01  0.765927341E-03
   H -0.175048000E+02  0.135210963E+01  0.436029891E+00
   H  0.171910626E+02 -0.926488733E+00 -0.109227966E+01
     4
 # iter = 42000  time[fs]=42.00000
   C -0.321683539E+01 -0.117210701E+00  0.154822279E+00
   C  0.322003684E+01  0.423751188E-01  0.924814061E-03
   H -0.178936566E+02  0.138130987E+01  0.445451540E+00
   H  0.175722106E+02 -0.948244662E+00 -0.111697308E+01
     4
 # iter = 42500  time[fs]=42.50000
   C -0.329488274E+01 -0.120925347E+00  0.158050592E+00
   C  0.329663030E+01  0.436088282E-01  0.107834351E-02
   H -0.182830326E+02  0.141055565E+01  0.454884348E+00
   H  0.179539095E+02 -0.970033794E+00 -0.114170576E+01
     4
 # iter = 43000  time[fs]=43.00000
   C -0.337321248E+01 -0.124649488E+00  0.161286219E+00
   C  0.337350364E+01  0.448510509E-01  0.122680557E-02
   H -0.186729063E+02  0.143984507E+01  0.464327847E+00
   H  0.183361364E+02 -0.991854793E+00 -0.116647609E+01
     4
 # iter = 43500  time[fs]=43.50000
   C -0.345181167E+01 -0.128382753E+00  0.164528802E+00
   C  0.345064402E+01  0.461014568E-01  0.137046894E-02
   H -0.190632574E+02  0.146917639E+01  0.473781596E+00
   H  0.187188696E+02 -0.101370640E+01 -0.119128256E+01
     4
 # iter = 44000  time[fs]=44.00000
   C -0.353066822E+01 -0.132124788E+00  0.167778007E+00
   C  0.352803945E+01  0.473597332E-01  0.150958296E-02
   H -0.194540668E+02  0.149854793E+01  0.483245181E+00
   H  0.191020887E+02 -0.103558743E+01 -0.121612374E+01
     4
 # iter = 44500  time[fs]=44.50000
   C -0.360977076E+01 -0.135875261E+00  0.171033523E+00
   C  0.360567865E+01  0.486255839E-01  0.164437942E-02
   H -0.198453164E+02  0.152795812E+01  0.492718212E+00
   H  0.194857747E+02 -0.105749676E+01 -0.124099829E+01
     4
 # iter = 45000  time[fs]=45.00000
   C -0.368910865E+01 -0.139633855E+00  0.174295059E+00
   C  0.368355107E+01  0.498987281E-01  0.177507403E-02
   H -0.202369892E+02  0.155740550E+01  0.502200321E+00
   H  0.198699094E+02 -0.107943334E+01 -0.126590494E+01
     4
 # iter = 45500  time[fs]=45.50000
   C -0.376867188E+01 -0.143400271E+00  0.177562344E+00
   C  0.376164680E+01  0.511788994E-01  0.190186781E-02
   H -0.206290692E+02  0.158688867E+01  0.511691162E+00
   H  0.202544758E+02 -0.110139616E+01 -0.129084248E+01
     4
 # iter = 46000  time[fs]=46.00000
   C -0.384845106E+01 -0.147174226E+00  0.180835121E+00
   C  0.383995649E+01  0.524658449E-01  0.202494835E-02
   H -0.210215411E+02  0.161640631E+01  0.521190407E+00
   H  0.206394578E+02 -0.112338428E+01 -0.131580979E+01
     4
 # iter = 46500  time[fs]=46.50000
   C -0.392843732E+01 -0.150955450E+00  0.184113154E+00
   C  0.391847138E+01  0.537593243E-01  0.214449090E-02
   H -0.214143907E+02  0.164595717E+01  0.530697746E+00
   H  0.210248402E+02 -0.114539680E+01 -0.134080580E+01
     4
 # iter = 47000  time[fs]=47.00000
   C -0.400862232E+01 -0.154743687E+00  0.187396216E+00
   C  0.399718319E+01  0.550591094E-01  0.226065939E-02
   H -0.218076044E+02  0.167554007E+01  0.540212887E+00
   H  0.214106085E+02 -0.116743287E+01 -0.136582947E+01
     4
 # iter = 47500  time[fs]=47.50000
   C -0.408899820E+01 -0.158538694E+00  0.190684098E+00
   C  0.407608411E+01  0.563649829E-01  0.237360734E-02
   H -0.222011692E+02  0.170515389E+01  0.549735551E+00
   H  0.217967491E+02 -0.118949169E+01 -0.139087986E+01
     4
 # iter = 48000  time[fs]=48.00000
   C -0.416955752E+01 -0.162340240E+00  0.193976600E+00
   C  0.415516678E+01  0.576767382E-01  0.248347869E-02
   H -0.225950729E+02  0.173479757E+01  0.559265475E+00
   H  0.221832489E+02 -0.121157249E+01 -0.141595604E+01
     4
 # iter = 48500  time[fs]=48.50000
   C -0.425029326E+01 -0.166148103E+00  0.197273538E+00
   C  0.423442424E+01  0.589941785E-01  0.259040851E-02
   H -0.229893041E+02  0.176447011E+01  0.568802410E+00
   H  0.225700958E+02 -0.123367454E+01 -0.144105715E+01
     4
 # iter = 49000  time[fs]=49.00000
   C -0.433119879E+01 -0.169962075E+00  0.200574734E+00
   C  0.431384991E+01  0.603171162E-01  0.269452374E-02
   H -0.233838515E+02  0.179417053E+01  0.578346118E+00
   H  0.229572779E+02 -0.125579715E+01 -0.146618236E+01
     4
 # iter = 49500  time[fs]=49.50000
   C -0.441226782E+01 -0.173781956E+00  0.203880022E+00
   C  0.439343755E+01  0.616453724E-01  0.279594375E-02
   H -0.237787049E+02  0.182389793E+01  0.587896372E+00
   H  0.233447842E+02 -0.127793965E+01 -0.149133087E+01
     4
 # iter = 50000  time[fs]=50.00000
   C -0.449349439E+01 -0.177607555E+00  0.207189245E+00
   C  0.447318126E+01  0.629787767E-01  0.289478092E-02
   H -0.241738541E+02  0.185365144E+01  0.597452959E+00
   H  0.237326041E+02 -0.130010142E+01 -0.151650195E+01
     4
 # iter = 50500  time[fs]=50.50000
   C -0.457487285E+01 -0.181438691E+00  0.210502255E+00
   C  0.455307543E+01  0.643171661E-01  0.299114119E-02
   H -0.245692898E+02  0.188343023E+01  0.607015675E+00
   H  0.241207274E+02 -0.132228185E+01 -0.154169488E+01
     4
 # iter = 51000  time[fs]=51.00000
   C -0.465639784E+01 -0.185275189E+00  0.213818912E+00
   C  0.463311476E+01  0.656603850E-01  0.308512444E-02
   H -0.249650028E+02  0.191323352E+01  0.616584323E+00
   H  0.245091447E+02 -0.134448038E+01 -0.156690897E+01
     4
 # iter = 51500  time[fs]=51.50000
   C -0.473806428E+01 -0.189116884E+00  0.217139082E+00
   C  0.471329421E+01  0.670082850E-01  0.317682502E-02
   H -0.253609845E+02  0.194306054E+01  0.626158719E+00
   H  0.248978467E+02 -0.136669646E+01 -0.159214358E+01
     4
 # iter = 52000  time[fs]=52.00000
   C -0.481986732E+01 -0.192963617E+00  0.220462639E+00
   C  0.479360896E+01  0.683607237E-01  0.326633207E-02
   H -0.257572268E+02  0.197291058E+01  0.635738685E+00
   H  0.252868246E+02 -0.138892956E+01 -0.161739809E+01
     4
 # iter = 52500  time[fs]=52.50000
   C -0.490180236E+01 -0.196815238E+00  0.223789464E+00
   C  0.487405446E+01  0.697175652E-01  0.335372988E-02
   H -0.261537216E+02  0.200278296E+01  0.645324051E+00
   H  0.256760702E+02 -0.141117919E+01 -0.164267190E+01
     4
 # iter = 53000  time[fs]=53.00000
   C -0.498386502E+01 -0.200671600E+00  0.227119444E+00
   C  0.495462637E+01  0.710786793E-01  0.343909828E-02
   H -0.265504615E+02  0.203267701E+01  0.654914657E+00
   H  0.260655754E+02 -0.143344486E+01 -0.166796444E+01
     4
 # iter = 53500  time[fs]=53.50000
   C -0.506605113E+01 -0.204532564E+00  0.230452469E+00
   C  0.503532055E+01  0.724439414E-01  0.352251288E-02
   H -0.269474392E+02  0.206259210E+01  0.664510347E+00
   H  0.264553327E+02 -0.145572612E+01 -0.169327518E+01
     4
 # iter = 54000  time[fs]=54.00000
   C -0.514835671E+01 -0.208397999E+00  0.233788438E+00
   C  0.511613306E+01  0.738132318E-01  0.360404535E-02
   H -0.273446480E+02  0.209252764E+01  0.674110973E+00
   H  0.268453346E+02 -0.147802253E+01 -0.171860359E+01
     4
 # iter = 54500  time[fs]=54.50000
   C -0.523077795E+01 -0.212267776E+00  0.237127252E+00
   C  0.519706013E+01  0.751864361E-01  0.368376374E-02
   H -0.277420812E+02  0.212248305E+01  0.683716393E+00
   H  0.272355741E+02 -0.150033367E+01 -0.174394917E+01
     4
 # iter = 55000  time[fs]=55.00000
   C -0.531331125E+01 -0.216141772E+00  0.240468819E+00
   C  0.527809817E+01  0.765634443E-01  0.376173263E-02
   H -0.281397324E+02  0.215245778E+01  0.693326472E+00
   H  0.276260447E+02 -0.152265913E+01 -0.176931145E+01
     4
 # iter = 55500  time[fs]=55.50000
   C -0.539595313E+01 -0.220019871E+00  0.243813050E+00
   C  0.535924376E+01  0.779441511E-01  0.383801342E-02
   H -0.285375956E+02  0.218245129E+01  0.702941080E+00
   H  0.280167398E+02 -0.154499853E+01 -0.179468996E+01
     4
 # iter = 56000  time[fs]=56.00000
   C -0.547870030E+01 -0.223901960E+00  0.247159861E+00
   C  0.544049362E+01  0.793284550E-01  0.391266448E-02
   H -0.289356651E+02  0.221246307E+01  0.712560092E+00
   H  0.284076533E+02 -0.156735150E+01 -0.182008427E+01
     4
 # iter = 56500  time[fs]=56.50000
   C -0.556154959E+01 -0.227787930E+00  0.250509169E+00
   C  0.552184461E+01  0.807162588E-01  0.398574137E-02
   H -0.293339352E+02  0.224249265E+01  0.722183388E+00
   H  0.287987793E+02 -0.158971767E+01 -0.184549396E+01
     4
 # iter = 57000  time[fs]=57.00000
   C -0.564449797E+01 -0.231677678E+00  0.253860899E+00
   C  0.560329374E+01  0.821074690E-01  0.405729700E-02
   H -0.297324005E+02  0.227253954E+01  0.731810852E+00
   H  0.291901120E+02 -0.161209671E+01 -0.187091862E+01
     4
 # iter = 57500  time[fs]=57.50000
   C -0.572754256E+01 -0.235571104E+00  0.257214977E+00
   C  0.568483813E+01  0.835019957E-01  0.412738179E-02
   H -0.301310560E+02  0.230260330E+01  0.741442375E+00
   H  0.295816460E+02 -0.163448828E+01 -0.189635786E+01
     4
 # iter = 58000  time[fs]=58.00000
   C -0.581068056E+01 -0.239468110E+00  0.260571332E+00
   C  0.576647503E+01  0.848997524E-01  0.419604380E-02
   H -0.305298966E+02  0.233268349E+01  0.751077851E+00
   H  0.299733761E+02 -0.165689206E+01 -0.192181131E+01
     4
 # iter = 58500  time[fs]=58.50000
   C -0.589390933E+01 -0.243368606E+00  0.263929897E+00
   C  0.584820182E+01  0.863006558E-01  0.426332892E-02
   H -0.309289177E+02  0.236277970E+01  0.760717177E+00
   H  0.303652972E+02 -0.167930776E+01 -0.194727860E+01
     4
 # iter = 59000  time[fs]=59.00000
   C -0.597722630E+01 -0.247272502E+00  0.267290606E+00
   C  0.593001596E+01  0.877046258E-01  0.432928094E-02
   H -0.313281145E+02  0.239289153E+01  0.770360254E+00
   H  0.307574045E+02 -0.170173507E+01 -0.197275938E+01
     4
 # iter = 59500  time[fs]=59.50000
   C -0.606062905E+01 -0.251179712E+00  0.270653400E+00
   C  0.601191502E+01  0.891115852E-01  0.439394169E-02
   H -0.317274828E+02  0.242301858E+01  0.780006989E+00
   H  0.311496932E+02 -0.172417371E+01 -0.199825333E+01
     4
 # iter = 60000  time[fs]=60.00000
   C -0.614411520E+01 -0.255090153E+00  0.274018217E+00
   C  0.609389668E+01  0.905214596E-01  0.445735118E-02
   H -0.321270182E+02  0.245316049E+01  0.789657291E+00
   H  0.315421589E+02 -0.174662341E+01 -0.202376012E+01
     4
 # iter = 60500  time[fs]=60.50000
   C -0.622768251E+01 -0.259003747E+00  0.277385001E+00
   C  0.617595870E+01  0.919341773E-01  0.451954766E-02
   H -0.325267167E+02  0.248331689E+01  0.799311070E+00
   H  0.319347972E+02 -0.176908391E+01 -0.204927944E+01
     4
 # iter = 61000  time[fs]=61.00000
   C -0.631132882E+01 -0.262920415E+00  0.280753698E+00
   C  0.625809893E+01  0.933496691E-01  0.458056772E-02
   H -0.329265744E+02  0.251348744E+01  0.808968244E+00
   H  0.323276040E+02 -0.179155494E+01 -0.207481098E+01
     4
 # iter = 61500  time[fs]=61.50000
   C -0.639505202E+01 -0.266840084E+00  0.284124255E+00
   C  0.634031531E+01  0.947678683E-01  0.464044643E-02
   H -0.333265873E+02  0.254367181E+01  0.818628731E+00
   H  0.327205752E+02 -0.181403626E+01 -0.210035447E+01
     4
 # iter = 62000  time[fs]=62.00000
   C -0.647885012E+01 -0.270762682E+00  0.287496623E+00
   C  0.642260585E+01  0.961887105E-01  0.469921736E-02
   H -0.337267520E+02  0.257386966E+01  0.828292451E+00
   H  0.331137068E+02 -0.183652764E+01 -0.212590962E+01
     4
 # iter = 62500  time[fs]=62.50000
   C -0.656272120E+01 -0.274688141E+00  0.290870752E+00
   C  0.650496864E+01  0.976121334E-01  0.475691269E-02
   H -0.341270647E+02  0.260408070E+01  0.837959329E+00
   H  0.335069953E+02 -0.185902885E+01 -0.215147615E+01
     4
 # iter = 63000  time[fs]=63.00000
   C -0.664666338E+01 -0.278616394E+00  0.294246596E+00
   C  0.658740183E+01  0.990380772E-01  0.481356330E-02
   H -0.345275221E+02  0.263430462E+01  0.847629292E+00
   H  0.339004368E+02 -0.188153965E+01 -0.217705382E+01
     4
 # iter = 63500  time[fs]=63.50000
   C -0.673067488E+01 -0.282547376E+00  0.297624111E+00
   C  0.666990366E+01  0.100466484E+00  0.486919879E-02
   H -0.349281208E+02  0.266454113E+01  0.857302268E+00
   H  0.342940280E+02 -0.190405985E+01 -0.220264237E+01
     4
 # iter = 64000  time[fs]=64.00000
   C -0.681475397E+01 -0.286481025E+00  0.301003254E+00
   C  0.675247241E+01  0.101897297E+00  0.492384759E-02
   H -0.353288578E+02  0.269478994E+01  0.866978190E+00
   H  0.346877654E+02 -0.192658923E+01 -0.222824155E+01
     4
 # iter = 64500  time[fs]=64.50000
   C -0.689889900E+01 -0.290417281E+00  0.304383983E+00
   C  0.683510644E+01  0.103330462E+00  0.497753701E-02
   H -0.357297298E+02  0.272505079E+01  0.876656991E+00
   H  0.350816457E+02 -0.194912760E+01 -0.225385114E+01
     4
 # iter = 65000  time[fs]=65.00000
   C -0.698310836E+01 -0.294356085E+00  0.307766258E+00
   C  0.691780416E+01  0.104765927E+00  0.503029329E-02
   H -0.361307340E+02  0.275532342E+01  0.886338607E+00
   H  0.354756658E+02 -0.197167474E+01 -0.227947090E+01
     4
 # iter = 65500  time[fs]=65.50000
   C -0.706738051E+01 -0.298297382E+00  0.311150040E+00
   C  0.700056404E+01  0.106203642E+00  0.508214164E-02
   H -0.365318673E+02  0.278560756E+01  0.896022977E+00
   H  0.358698227E+02 -0.199423049E+01 -0.230510061E+01
     4
 # iter = 66000  time[fs]=66.00000
   C -0.715171394E+01 -0.302241117E+00  0.314535294E+00
   C  0.708338460E+01  0.107643556E+00  0.513310632E-02
   H -0.369331271E+02  0.281590297E+01  0.905710040E+00
   H  0.362641133E+02 -0.201679466E+01 -0.233074006E+01
     4
 # iter = 66500  time[fs]=66.50000
   C -0.723610723E+01 -0.306187236E+00  0.317921983E+00
   C  0.716626441E+01  0.109085623E+00  0.518321066E-02
   H -0.373345106E+02  0.284620941E+01  0.915399739E+00
   H  0.366585348E+02 -0.203936707E+01 -0.235638904E+01
     4
 # iter = 67000  time[fs]=67.00000
   C -0.732055897E+01 -0.310135690E+00  0.321310073E+00
   C  0.724920209E+01  0.110529797E+00  0.523247713E-02
   H -0.377360152E+02  0.287652666E+01  0.925092017E+00
   H  0.370530844E+02 -0.206194755E+01 -0.238204736E+01
     4
 # iter = 67500  time[fs]=67.50000
   C -0.740506783E+01 -0.314086428E+00  0.324699530E+00
   C  0.733219632E+01  0.111976032E+00  0.528092735E-02
   H -0.381376383E+02  0.290685449E+01  0.934786821E+00
   H  0.374477594E+02 -0.208453593E+01 -0.240771482E+01
     4
 # iter = 68000  time[fs]=68.00000
   C -0.748963250E+01 -0.318039403E+00  0.328090322E+00
   C  0.741524580E+01  0.113424285E+00  0.532858217E-02
   H -0.385393775E+02  0.293719268E+01  0.944484097E+00
   H  0.378425572E+02 -0.210713206E+01 -0.243339123E+01
     4
 # iter = 68500  time[fs]=68.50000
   C -0.757425173E+01 -0.321994568E+00  0.331482419E+00
   C  0.749834928E+01  0.114874516E+00  0.537546167E-02
   H -0.389412304E+02  0.296754101E+01  0.954183794E+00
   H  0.382374753E+02 -0.212973578E+01 -0.245907641E+01
     4
 # iter = 69000  time[fs]=69.00000
   C -0.765892429E+01 -0.325951878E+00  0.334875790E+00
   C  0.758150557E+01  0.116326682E+00  0.542158520E-02
   H -0.393431946E+02  0.299789930E+01  0.963885864E+00
   H  0.386325112E+02 -0.215234694E+01 -0.248477018E+01
     4
 # iter = 69500  time[fs]=69.50000
   C -0.774364902E+01 -0.329911289E+00  0.338270406E+00
   C  0.766471350E+01  0.117780744E+00  0.546697146E-02
   H -0.397452680E+02  0.302826733E+01  0.973590257E+00
   H  0.390276625E+02 -0.217496538E+01 -0.251047237E+01
     4
 # iter = 70000  time[fs]=70.00000
   C -0.782842478E+01 -0.333872759E+00  0.341666240E+00
   C  0.774797194E+01  0.119236665E+00  0.551163844E-02
   H -0.401474484E+02  0.305864491E+01  0.983296928E+00
   H  0.394229270E+02 -0.219759098E+01 -0.253618281E+01
     4
 # iter = 70500  time[fs]=70.50000
   C -0.791325045E+01 -0.337836246E+00  0.345063264E+00
   C  0.783127980E+01  0.120694407E+00  0.555560356E-02
   H -0.405497336E+02  0.308903187E+01  0.993005832E+00
   H  0.398183023E+02 -0.222022358E+01 -0.256190135E+01
     4
 # iter = 71000  time[fs]=71.00000
   C -0.799812499E+01 -0.341801711E+00  0.348461452E+00
   C  0.791463601E+01  0.122153934E+00  0.559888359E-02
   H -0.409521216E+02  0.311942801E+01  0.100271692E+01
   H  0.402137864E+02 -0.224286307E+01 -0.258762783E+01
     4
 # iter = 71500  time[fs]=71.50000
   C -0.808304734E+01 -0.345769115E+00  0.351860779E+00
   C  0.799803957E+01  0.123615210E+00  0.564149477E-02
   H -0.413546104E+02  0.314983317E+01  0.101243016E+01
   H  0.406093771E+02 -0.226550929E+01 -0.261336209E+01
     4
 # iter = 72000  time[fs]=72.00000
   C -0.816801651E+01 -0.349738420E+00  0.355261220E+00
   C  0.808148946E+01  0.125078203E+00  0.568345277E-02
   H -0.417571981E+02  0.318024716E+01  0.102214550E+01
   H  0.410050723E+02 -0.228816214E+01 -0.263910398E+01
     4
 # iter = 72500  time[fs]=72.50000
   C -0.825303152E+01 -0.353709589E+00  0.358662751E+00
   C  0.816498474E+01  0.126542879E+00  0.572477274E-02
   H -0.421598827E+02  0.321066983E+01  0.103186291E+01
   H  0.414008701E+02 -0.231082148E+01 -0.266485337E+01
     4
 # iter = 73000  time[fs]=73.00000
   C -0.833809143E+01 -0.357682588E+00  0.362065349E+00
   C  0.824852446E+01  0.128009205E+00  0.576546932E-02
   H -0.425626625E+02  0.324110102E+01  0.104158234E+01
   H  0.417967685E+02 -0.233348719E+01 -0.269061011E+01
     4
 # iter = 73500  time[fs]=73.50000
   C -0.842319534E+01 -0.361657380E+00  0.365468993E+00
   C  0.833210773E+01  0.129477151E+00  0.580555670E-02
   H -0.429655357E+02  0.327154055E+01  0.105130376E+01
   H  0.421927657E+02 -0.235615917E+01 -0.271637406E+01
     4
 # iter = 74000  time[fs]=74.00000
   C -0.850834234E+01 -0.365633934E+00  0.368873659E+00
   C  0.841573365E+01  0.130946686E+00  0.584504858E-02
   H -0.433685005E+02  0.330198829E+01  0.106102713E+01
   H  0.425888597E+02 -0.237883729E+01 -0.274214510E+01
     4
 # iter = 74500  time[fs]=74.50000
   C -0.859353158E+01 -0.369612215E+00  0.372279328E+00
   C  0.849940139E+01  0.132417781E+00  0.588395822E-02
   H -0.437715553E+02  0.333244408E+01  0.107075241E+01
   H  0.429850489E+02 -0.240152144E+01 -0.276792309E+01
     4
 # iter = 75000  time[fs]=75.00000
   C -0.867876223E+01 -0.373592192E+00  0.375685979E+00
   C  0.858311010E+01  0.133890408E+00  0.592229849E-02
   H -0.441746984E+02  0.336290778E+01  0.108047957E+01
   H  0.433813315E+02 -0.242421152E+01 -0.279370791E+01
     4
 # iter = 75500  time[fs]=75.50000
   C -0.876403347E+01 -0.377573835E+00  0.379093592E+00
   C  0.866685900E+01  0.135364537E+00  0.596008181E-02
   H -0.445779282E+02  0.339337925E+01  0.109020858E+01
   H  0.437777057E+02 -0.244690742E+01 -0.281949944E+01
     4
 # iter = 76000  time[fs]=76.00000
   C -0.884934451E+01 -0.381557113E+00  0.382502148E+00
   C  0.875064729E+01  0.136840142E+00  0.599732025E-02
   H -0.449812433E+02  0.342385835E+01  0.109993940E+01
   H  0.441741701E+02 -0.246960904E+01 -0.284529756E+01
     4
 # iter = 76500  time[fs]=76.50000
   C -0.893469459E+01 -0.385541996E+00  0.385911628E+00
   C  0.883447422E+01  0.138317196E+00  0.603402549E-02
   H -0.453846420E+02  0.345434495E+01  0.110967200E+01
   H  0.445707229E+02 -0.249231629E+01 -0.287110215E+01
     4
 # iter = 77000  time[fs]=77.00000
   C -0.902008296E+01 -0.389528457E+00  0.389322014E+00
   C  0.891833905E+01  0.139795674E+00  0.607020884E-02
   H -0.457881229E+02  0.348483891E+01  0.111940635E+01
   H  0.449673626E+02 -0.251502905E+01 -0.289691310E+01
     4
 # iter = 77500  time[fs]=77.50000
   C -0.910550890E+01 -0.393516467E+00  0.392733289E+00
   C  0.900224106E+01  0.141275550E+00  0.610588129E-02
   H -0.461916846E+02  0.351534011E+01  0.112914242E+01
   H  0.453640877E+02 -0.253774725E+01 -0.292273031E+01
     4
 # iter = 78000  time[fs]=78.00000
   C -0.919097170E+01 -0.397505999E+00  0.396145435E+00
   C  0.908617956E+01  0.142756801E+00  0.614105349E-02
   H -0.465953257E+02  0.354584843E+01  0.113888017E+01
   H  0.457608967E+02 -0.256047079E+01 -0.294855365E+01
     4
 # iter = 78500  time[fs]=78.50000
   C -0.927647068E+01 -0.401497027E+00  0.399558437E+00
   C  0.917015386E+01  0.144239402E+00  0.617573576E-02
   H -0.469990448E+02  0.357636374E+01  0.114861959E+01
   H  0.461577882E+02 -0.258319957E+01 -0.297438304E+01
     4
 # iter = 79000  time[fs]=79.00000
   C -0.936200517E+01 -0.405489525E+00  0.402972277E+00
   C  0.925416332E+01  0.145723330E+00  0.620993813E-02
   H -0.474028406E+02  0.360688593E+01  0.115836063E+01
   H  0.465547608E+02 -0.260593352E+01 -0.300021836E+01
     4
 # iter = 79500  time[fs]=79.50000
   C -0.944757453E+01 -0.409483468E+00  0.406386940E+00
   C  0.933820728E+01  0.147208562E+00  0.624367033E-02
   H -0.478067118E+02  0.363741489E+01  0.116810328E+01
   H  0.469518131E+02 -0.262867254E+01 -0.302605952E+01
     4
 # iter = 80000  time[fs]=80.00000
   C -0.953317812E+01 -0.413478832E+00  0.409802411E+00
   C  0.942228512E+01  0.148695076E+00  0.627694181E-02
   H -0.482106572E+02  0.366795049E+01  0.117784751E+01
   H  0.473489438E+02 -0.265141655E+01 -0.305190642E+01
