     4
 # iter = 25000  time[fs]=25.00000
   C -0.964402994E+00  0.310210263E-02 -0.423293818E-01
   C  0.102988934E+01 -0.618426254E-01  0.325078910E-02
   H -0.529995671E+01 -0.189485170E+00  0.358373379E+00
   H  0.533024171E+01  0.313316201E+00 -0.558084188E+00
     4
 # iter = 25500  time[fs]=25.50000
   C -0.100780791E+01  0.371370533E-02 -0.435815431E-01
   C  0.107341697E+01 -0.648361736E-01  0.617628434E-02
   H -0.563251669E+01 -0.202493516E+00  0.384516432E+00
   H  0.565179845E+01  0.335975830E+00 -0.592013916E+00
     4
 # iter = 26000  time[fs]=26.00000
   C -0.105415010E+01  0.443251106E-02 -0.449220581E-01
   C  0.111987330E+01 -0.679540728E-01  0.920587775E-02
   H -0.597039485E+01 -0.215698951E+00  0.411088756E+00
   H  0.597877624E+01  0.359038322E+00 -0.626561848E+00
     4
 # iter = 26500  time[fs]=26.50000
   C -0.110319030E+01  0.525029606E-02 -0.463457453E-01
   C  0.116901899E+01 -0.711863125E-01  0.123327489E-01
   H -0.631299627E+01 -0.229080294E+00  0.438042966E+00
   H  0.631058104E+01  0.382461060E+00 -0.661660932E+00
     4
 # iter = 27000  time[fs]=27.00000
   C -0.115470459E+01  0.615938804E-02 -0.478475646E-01
   C  0.122063024E+01 -0.745236879E-01  0.155504504E-01
   H -0.665981553E+01 -0.242619519E+00  0.465338862E+00
   H  0.664670605E+01  0.406207621E+00 -0.697254083E+00
     4
 # iter = 27500  time[fs]=27.50000
   C -0.120848569E+01  0.715267607E-02 -0.494226569E-01
   C  0.127450001E+01 -0.779577645E-01  0.188529080E-01
   H -0.701042039E+01 -0.256301165E+00  0.492942084E+00
   H  0.698671626E+01  0.430246668E+00 -0.733292356E+00
     4
 # iter = 28000  time[fs]=28.00000
   C -0.126434324E+01  0.822360458E-02 -0.510663781E-01
   C  0.133043823E+01 -0.814808380E-01  0.222344220E-01
   H -0.736443892E+01 -0.270111888E+00  0.520823063E+00
   H  0.733023603E+01  0.454551067E+00 -0.769733516E+00
     4
 # iter = 28500  time[fs]=28.50000
   C -0.132210342E+01  0.936615528E-02 -0.527743226E-01
   C  0.138827143E+01 -0.850858871E-01  0.256896653E-01
   H -0.772154913E+01 -0.284040093E+00  0.548956190E+00
   H  0.767693929E+01  0.479097189E+00 -0.806540896E+00
     4
 # iter = 29000  time[fs]=29.00000
   C -0.138160817E+01  0.105748206E-01 -0.545423379E-01
   C  0.144784192E+01 -0.887665242E-01  0.292136766E-01
   H -0.808147076E+01 -0.298075649E+00  0.577319154E+00
   H  0.802654142E+01  0.503864344E+00 -0.843682480E+00
     4
 # iter = 29500  time[fs]=29.50000
   C -0.144271421E+01  0.118445716E-01 -0.563665306E-01
   C  0.150900676E+01 -0.925169448E-01  0.328018497E-01
   H -0.844395858E+01 -0.312209655E+00  0.605892410E+00
   H  0.837879283E+01  0.528834321E+00 -0.881130168E+00
     4
 # iter = 30000  time[fs]=30.00000
   C -0.150529180E+01  0.131708239E-01 -0.582432656E-01
   C  0.157163661E+01 -0.963318774E-01  0.364499179E-01
   H -0.880879699E+01 -0.326434253E+00  0.634658751E+00
   H  0.873347360E+01  0.553991020E+00 -0.918859174E+00
     4
 # iter = 30500  time[fs]=30.50000
   C -0.156922368E+01  0.145494012E-01 -0.601691601E-01
   C  0.163561451E+01 -0.100206535E+00  0.401539367E-01
   H -0.917579553E+01 -0.340742473E+00  0.663602954E+00
   H  0.909038911E+01  0.579320138E+00 -0.956847537E+00
     4
 # iter = 31000  time[fs]=31.00000
   C -0.163440382E+01  0.159765014E-01 -0.621410734E-01
   C  0.170083479E+01 -0.104136570E+00  0.439102643E-01
   H -0.954478525E+01 -0.355128106E+00  0.692711491E+00
   H  0.944936640E+01  0.604808922E+00 -0.995075713E+00
     4
 # iter = 31500  time[fs]=31.50000
   C -0.170073636E+01  0.174486619E-01 -0.641560953E-01
   C  0.176720192E+01 -0.108118030E+00  0.477155413E-01
   H -0.991561567E+01 -0.369585597E+00  0.721972292E+00
   H  0.981025120E+01  0.630445953E+00 -0.103352624E+01
     4
 # iter = 32000  time[fs]=32.00000
   C -0.176813462E+01  0.189627290E-01 -0.662115323E-01
   C  0.183462948E+01 -0.112147324E+00  0.515666700E-01
   H -0.102881522E+02 -0.384109962E+00  0.751374546E+00
   H  0.101729053E+02  0.656220969E+00 -0.107218346E+01
     4
 # iter = 32500  time[fs]=32.50000
   C -0.183652007E+01  0.205158277E-01 -0.683048935E-01
   C  0.190303926E+01 -0.116221178E+00  0.554607950E-01
   H -0.106622742E+02 -0.398696706E+00  0.780908533E+00
   H  0.105372047E+02  0.682124719E+00 -0.111103328E+01
     4
 # iter = 33000  time[fs]=33.00000
   C -0.190582158E+01  0.221053351E-01 -0.704338759E-01
   C  0.197236038E+01 -0.120336612E+00  0.593952834E-01
   H -0.110378729E+02 -0.413341771E+00  0.810565484E+00
   H  0.109030375E+02  0.708148833E+00 -0.115006298E+01
     4
 # iter = 33500  time[fs]=33.50000
   C -0.197597457E+01  0.237288557E-01 -0.725963506E-01
   C  0.204252850E+01 -0.124490903E+00  0.633677070E-01
   H -0.114148501E+02 -0.428041472E+00  0.840337465E+00
   H  0.112703024E+02  0.734285720E+00 -0.118926101E+01
     4
 # iter = 34000  time[fs]=34.00000
   C -0.204692036E+01  0.253841992E-01 -0.747903495E-01
   C  0.211348518E+01 -0.128681565E+00  0.673758249E-01
   H -0.117931169E+02 -0.442792460E+00  0.870217272E+00
   H  0.116389077E+02  0.760528470E+00 -0.122861691E+01
     4
 # iter = 34500  time[fs]=34.50000
   C -0.211860553E+01  0.270693603E-01 -0.770140518E-01
   C  0.218517722E+01 -0.132906322E+00  0.714175677E-01
   H -0.121725923E+02 -0.457591682E+00  0.900198348E+00
   H  0.120087701E+02  0.786870779E+00 -0.126812114E+01
     4
 # iter = 35000  time[fs]=35.00000
   C -0.219098140E+01  0.287825006E-01 -0.792657725E-01
   C  0.225755614E+01 -0.137163088E+00  0.754910227E-01
   H -0.125532029E+02 -0.472436344E+00  0.930274708E+00
   H  0.123798133E+02  0.813306882E+00 -0.130776498E+01
     4
 # iter = 35500  time[fs]=35.50000
   C -0.226400351E+01  0.305219325E-01 -0.815439513E-01
   C  0.233057768E+01 -0.141449947E+00  0.795944208E-01
   H -0.129348813E+02 -0.487323885E+00  0.960440873E+00
   H  0.127519679E+02  0.839831490E+00 -0.134754044E+01
     4
 # iter = 36000  time[fs]=36.00000
   C -0.233763119E+01  0.322861042E-01 -0.838471418E-01
   C  0.240420134E+01 -0.145765140E+00  0.837261237E-01
   H -0.133175660E+02 -0.502251955E+00  0.990691819E+00
   H  0.131251701E+02  0.866439746E+00 -0.138744021E+01
     4
 # iter = 36500  time[fs]=36.50000
   C -0.241182722E+01  0.340735874E-01 -0.861740021E-01
   C  0.247839007E+01 -0.150107045E+00  0.878846128E-01
   H -0.137012003E+02 -0.517218385E+00  0.102102293E+01
   H  0.134993614E+02  0.893127173E+00 -0.142745753E+01
     4
 # iter = 37000  time[fs]=37.00000
   C -0.248655742E+01  0.358830650E-01 -0.885232863E-01
   C  0.255310983E+01 -0.154474167E+00  0.920684791E-01
   H -0.140857324E+02 -0.532221178E+00  0.105142994E+01
   H  0.138744880E+02  0.919889640E+00 -0.146758619E+01
     4
 # iter = 37500  time[fs]=37.50000
   C -0.256179037E+01  0.377133207E-01 -0.908938364E-01
   C  0.262832937E+01 -0.158865126E+00  0.962764136E-01
   H -0.144711143E+02 -0.547258485E+00  0.108190892E+01
   H  0.142505001E+02  0.946723326E+00 -0.150782045E+01
     4
 # iter = 38000  time[fs]=38.00000
   C -0.263749717E+01  0.395632302E-01 -0.932845749E-01
   C  0.270401993E+01 -0.163278646E+00  0.100507199E+00
   H -0.148573017E+02 -0.562328592E+00  0.111245623E+01
   H  0.146273518E+02  0.973624691E+00 -0.154815499E+01
     4
 # iter = 38500  time[fs]=38.50000
   C -0.271365117E+01  0.414317520E-01 -0.956944981E-01
   C  0.278015496E+01 -0.167713543E+00  0.104759702E+00
   H -0.152442537E+02 -0.577429911E+00  0.114306851E+01
   H  0.150050008E+02  0.100059045E+01 -0.158858489E+01
     4
 # iter = 39000  time[fs]=39.00000
   C -0.279022776E+01  0.433179207E-01 -0.981226704E-01
   C  0.285670999E+01 -0.172168721E+00  0.109032865E+00
   H -0.156319324E+02 -0.592560964E+00  0.117374262E+01
   H  0.153834074E+02  0.102761755E+01 -0.162910557E+01
     4
 # iter = 39500  time[fs]=39.50000
   C -0.286720416E+01  0.452208396E-01 -0.100568218E+00
   C  0.293366236E+01 -0.176643160E+00  0.113325704E+00
   H -0.160203024E+02 -0.607720373E+00  0.120447564E+01
   H  0.157625351E+02  0.105470314E+01 -0.166971275E+01
     4
 # iter = 40000  time[fs]=40.00000
   C -0.294455931E+01  0.471396750E-01 -0.103030326E+00
   C  0.301099110E+01 -0.181135912E+00  0.117637297E+00
   H -0.164093309E+02 -0.622906856E+00  0.123526488E+01
   H  0.161423499E+02  0.108184456E+01 -0.171040248E+01
     4
 # iter = 40500  time[fs]=40.50000
   C -0.302227365E+01  0.490736507E-01 -0.105508230E+00
   C  0.308867675E+01 -0.185646095E+00  0.121966784E+00
   H -0.167989875E+02 -0.638119212E+00  0.126610778E+01
   H  0.165228199E+02  0.110903934E+01 -0.175117104E+01
     4
 # iter = 41000  time[fs]=41.00000
   C -0.310032900E+01  0.510220430E-01 -0.108001215E+00
   C  0.316670125E+01 -0.190172885E+00  0.126313356E+00
   H -0.171892435E+02 -0.653356320E+00  0.129700199E+01
   H  0.169039155E+02  0.113628516E+01 -0.179201497E+01
     4
 # iter = 41500  time[fs]=41.50000
   C -0.317870849E+01  0.529841766E-01 -0.110508612E+00
   C  0.324504779E+01 -0.194715513E+00  0.130676260E+00
   H -0.175800723E+02 -0.668617127E+00  0.132794529E+01
   H  0.172856090E+02  0.116357984E+01 -0.183293101E+01
     4
 # iter = 42000  time[fs]=42.00000
   C -0.325739637E+01  0.549594200E-01 -0.113029791E+00
   C  0.332370072E+01 -0.199273260E+00  0.135054785E+00
   H -0.179714490E+02 -0.683900647E+00  0.135893560E+01
   H  0.176678744E+02  0.119092134E+01 -0.187391614E+01
     4
 # iter = 42500  time[fs]=42.50000
   C -0.333637796E+01  0.569471825E-01 -0.115564163E+00
   C  0.340264545E+01 -0.203845453E+00  0.139448266E+00
   H -0.183633503E+02 -0.699205953E+00  0.138997097E+01
   H  0.180506874E+02  0.121830774E+01 -0.191496748E+01
     4
 # iter = 43000  time[fs]=43.00000
   C -0.341563957E+01  0.589469107E-01 -0.118111173E+00
   C  0.348186833E+01 -0.208431461E+00  0.143856075E+00
   H -0.187557541E+02 -0.714532175E+00  0.142104958E+01
   H  0.184340252E+02  0.124573725E+01 -0.195608236E+01
     4
 # iter = 43500  time[fs]=43.50000
   C -0.349516838E+01  0.609580855E-01 -0.120670297E+00
   C  0.356135664E+01 -0.213030691E+00  0.148277625E+00
   H -0.191486399E+02 -0.729878490E+00  0.145216970E+01
   H  0.188178663E+02  0.127320817E+01 -0.199725825E+01
     4
 # iter = 44000  time[fs]=44.00000
   C -0.357495239E+01  0.629802195E-01 -0.123241044E+00
   C  0.364109844E+01 -0.217642587E+00  0.152712359E+00
   H -0.195419883E+02 -0.745244125E+00  0.148332970E+01
   H  0.192021905E+02  0.130071889E+01 -0.203849277E+01
     4
 # iter = 44500  time[fs]=44.50000
   C -0.365498036E+01  0.650128545E-01 -0.125822950E+00
   C  0.372108256E+01 -0.222266627E+00  0.157159754E+00
   H -0.199357811E+02 -0.760628350E+00  0.151452807E+01
   H  0.195869789E+02  0.132826790E+01 -0.207978367E+01
     4
 # iter = 45000  time[fs]=45.00000
   C -0.373524174E+01  0.670555596E-01 -0.128415577E+00
   C  0.380129850E+01 -0.226902317E+00  0.161619316E+00
   H -0.203300010E+02 -0.776030474E+00  0.154576334E+01
   H  0.199722133E+02  0.135585379E+01 -0.212112884E+01
     4
 # iter = 45500  time[fs]=45.50000
   C -0.381572663E+01  0.691079285E-01 -0.131018510E+00
   C  0.388173641E+01 -0.231549195E+00  0.166090578E+00
   H -0.207246317E+02 -0.791449845E+00  0.157703416E+01
   H  0.203578771E+02  0.138347520E+01 -0.216252626E+01
     4
 # iter = 46000  time[fs]=46.00000
   C -0.389642570E+01  0.711695785E-01 -0.133631360E+00
   C  0.396238704E+01 -0.236206821E+00  0.170573098E+00
   H -0.211196581E+02 -0.806885846E+00  0.160833924E+01
   H  0.207439541E+02  0.141113085E+01 -0.220397405E+01
     4
 # iter = 46500  time[fs]=46.50000
   C -0.397733019E+01  0.732401482E-01 -0.136253755E+00
   C  0.404324166E+01 -0.240874782E+00  0.175066459E+00
   H -0.215150654E+02 -0.822337890E+00  0.163967734E+01
   H  0.211304291E+02  0.143881954E+01 -0.224547041E+01
     4
 # iter = 47000  time[fs]=47.00000
   C -0.405843183E+01  0.753192961E-01 -0.138885346E+00
   C  0.412429206E+01 -0.245552689E+00  0.179570264E+00
   H -0.219108401E+02 -0.837805423E+00  0.167104732E+01
   H  0.215172880E+02  0.146654011E+01 -0.228701363E+01
     4
 # iter = 47500  time[fs]=47.50000
   C -0.413972283E+01  0.774066996E-01 -0.141525800E+00
   C  0.420553049E+01 -0.250240171E+00  0.184084139E+00
   H -0.223069690E+02 -0.853287916E+00  0.170244808E+01
   H  0.219045171E+02  0.149429148E+01 -0.232860210E+01
     4
 # iter = 48000  time[fs]=48.00000
   C -0.422119583E+01  0.795020531E-01 -0.144174802E+00
   C  0.428694963E+01 -0.254936877E+00  0.188607728E+00
   H -0.227034398E+02 -0.868784870E+00  0.173387856E+01
   H  0.222921035E+02  0.152207261E+01 -0.237023429E+01
     4
 # iter = 48500  time[fs]=48.50000
   C -0.430284386E+01  0.816050672E-01 -0.146832052E+00
   C  0.436854258E+01 -0.259642478E+00  0.193140692E+00
   H -0.231002409E+02 -0.884295807E+00  0.176533777E+01
   H  0.226800349E+02  0.154988251E+01 -0.241190874E+01
     4
 # iter = 49000  time[fs]=49.00000
   C -0.438466037E+01  0.837154676E-01 -0.149497267E+00
   C  0.445030279E+01 -0.264356657E+00  0.197682710E+00
   H -0.234973610E+02 -0.899820275E+00  0.179682478E+01
   H  0.230682999E+02  0.157772026E+01 -0.245362406E+01
     4
 # iter = 49500  time[fs]=49.50000
   C -0.446663911E+01  0.858329941E-01 -0.152170176E+00
   C  0.453222407E+01 -0.269079116E+00  0.202233477E+00
   H -0.238947896E+02 -0.915357841E+00  0.182833868E+01
   H  0.234568872E+02  0.160558496E+01 -0.249537893E+01
     4
 # iter = 50000  time[fs]=50.00000
   C -0.454877418E+01  0.879573993E-01 -0.154850522E+00
   C  0.461430057E+01 -0.273809572E+00  0.206792703E+00
   H -0.242925166E+02 -0.930908093E+00  0.185987862E+01
   H  0.238457865E+02  0.163347575E+01 -0.253717209E+01
     4
 # iter = 50500  time[fs]=50.50000
   C -0.463106000E+01  0.900884485E-01 -0.157538059E+00
   C  0.469652672E+01 -0.278547754E+00  0.211360110E+00
   H -0.246905324E+02 -0.946470640E+00  0.189144377E+01
   H  0.242349876E+02  0.166139184E+01 -0.257900234E+01
     4
 # iter = 51000  time[fs]=51.00000
   C -0.471349125E+01  0.922259181E-01 -0.160232556E+00
   C  0.477889724E+01 -0.283293406E+00  0.215935435E+00
   H -0.250888279E+02 -0.962045106E+00  0.192303337E+01
   H  0.246244811E+02  0.168933243E+01 -0.262086855E+01
     4
 # iter = 51500  time[fs]=51.50000
   C -0.479606288E+01  0.943695957E-01 -0.162933789E+00
   C  0.486140713E+01 -0.288046284E+00  0.220518426E+00
   H -0.254873943E+02 -0.977631134E+00  0.195464667E+01
   H  0.250142578E+02  0.171729680E+01 -0.266276961E+01
     4
 # iter = 52000  time[fs]=52.00000
   C -0.487877010E+01  0.965192787E-01 -0.165641546E+00
   C  0.494405161E+01 -0.292806155E+00  0.225108843E+00
   H -0.258862233E+02 -0.993228380E+00  0.198628296E+01
   H  0.254043090E+02  0.174528424E+01 -0.270470449E+01
     4
 # iter = 52500  time[fs]=52.50000
   C -0.496160836E+01  0.986747739E-01 -0.168355624E+00
   C  0.502682616E+01 -0.297572797E+00  0.229706457E+00
   H -0.262853070E+02 -0.100883652E+01  0.201794155E+01
   H  0.257946265E+02  0.177329406E+01 -0.274667218E+01
     4
 # iter = 53000  time[fs]=53.00000
   C -0.504457330E+01  0.100835897E+00 -0.171075830E+00
   C  0.510972646E+01 -0.302345997E+00  0.234311049E+00
   H -0.266846377E+02 -0.102445523E+01  0.204962181E+01
   H  0.261852022E+02  0.180132564E+01 -0.278867173E+01
     4
 # iter = 53500  time[fs]=53.50000
   C -0.512766079E+01  0.103002474E+00 -0.173801979E+00
   C  0.519274840E+01 -0.307125553E+00  0.238922409E+00
   H -0.270842082E+02 -0.104008423E+01  0.208132310E+01
   H  0.265760286E+02  0.182937833E+01 -0.283070223E+01
     4
 # iter = 54000  time[fs]=54.00000
   C -0.521086689E+01  0.105174334E+00 -0.176533893E+00
   C  0.527588807E+01 -0.311911273E+00  0.243540336E+00
   H -0.274840115E+02 -0.105572321E+01  0.211304484E+01
   H  0.269670984E+02  0.185745156E+01 -0.287276279E+01
     4
 # iter = 54500  time[fs]=54.50000
   C -0.529418785E+01  0.107351320E+00 -0.179271404E+00
   C  0.535914173E+01 -0.316702971E+00  0.248164640E+00
   H -0.278840410E+02 -0.107137191E+01  0.214478645E+01
   H  0.273584048E+02  0.188554475E+01 -0.291485259E+01
     4
 # iter = 55000  time[fs]=55.00000
   C -0.537762005E+01  0.109533276E+00 -0.182014349E+00
   C  0.544250581E+01 -0.321500471E+00  0.252795137E+00
   H -0.282842903E+02 -0.108703006E+01  0.217654738E+01
   H  0.277499409E+02  0.191365736E+01 -0.295697081E+01
     4
 # iter = 55500  time[fs]=55.50000
   C -0.546116009E+01  0.111720057E+00 -0.184762572E+00
   C  0.552597691E+01 -0.326303603E+00  0.257431650E+00
   H -0.286847533E+02 -0.110269740E+01  0.220832711E+01
   H  0.281417004E+02  0.194178886E+01 -0.299911668E+01
     4
 # iter = 56000  time[fs]=56.00000
   C -0.554480468E+01  0.113911521E+00 -0.187515925E+00
   C  0.560955177E+01 -0.331112206E+00  0.262074010E+00
   H -0.290854240E+02 -0.111837370E+01  0.224012514E+01
   H  0.285336772E+02  0.196993874E+01 -0.304128947E+01
     4
 # iter = 56500  time[fs]=56.50000
   C -0.562855068E+01  0.116107535E+00 -0.190274264E+00
   C  0.569322727E+01 -0.335926124E+00  0.266722056E+00
   H -0.294862969E+02 -0.113405871E+01  0.227194097E+01
   H  0.289258653E+02  0.199810654E+01 -0.308348845E+01
     4
 # iter = 57000  time[fs]=57.00000
   C -0.571239509E+01  0.118307970E+00 -0.193037453E+00
   C  0.577700045E+01 -0.340745207E+00  0.271375633E+00
   H -0.298873666E+02 -0.114975222E+01  0.230377415E+01
   H  0.293182592E+02  0.202629177E+01 -0.312571295E+01
     4
 # iter = 57500  time[fs]=57.50000
   C -0.579633506E+01  0.120512701E+00 -0.195805360E+00
   C  0.586086844E+01 -0.345569314E+00  0.276034590E+00
   H -0.302886279E+02 -0.116545400E+01  0.233562423E+01
   H  0.297108534E+02  0.205449400E+01 -0.316796230E+01
     4
 # iter = 58000  time[fs]=58.00000
   C -0.588036781E+01  0.122721610E+00 -0.198577858E+00
   C  0.594482851E+01 -0.350398307E+00  0.280698785E+00
   H -0.306900757E+02 -0.118116384E+01  0.236749078E+01
   H  0.301036427E+02  0.208271279E+01 -0.321023587E+01
     4
 # iter = 58500  time[fs]=58.50000
   C -0.596449072E+01  0.124934583E+00 -0.201354825E+00
   C  0.602887805E+01 -0.355232054E+00  0.285368079E+00
   H -0.310917052E+02 -0.119688156E+01  0.239937337E+01
   H  0.304966221E+02  0.211094773E+01 -0.325253306E+01
     4
 # iter = 59000  time[fs]=59.00000
   C -0.604870125E+01  0.127151511E+00 -0.204136145E+00
   C  0.611301453E+01 -0.360070430E+00  0.290042341E+00
   H -0.314935119E+02 -0.121260694E+01  0.243127162E+01
   H  0.308897866E+02  0.213919842E+01 -0.329485328E+01
     4
 # iter = 59500  time[fs]=59.50000
   C -0.613299699E+01  0.129372289E+00 -0.206921706E+00
   C  0.619723556E+01 -0.364913312E+00  0.294721442E+00
   H -0.318954913E+02 -0.122833982E+01  0.246318514E+01
   H  0.312831318E+02  0.216746447E+01 -0.333719595E+01
     4
 # iter = 60000  time[fs]=60.00000
   C -0.621737559E+01  0.131596816E+00 -0.209711398E+00
   C  0.628153882E+01 -0.369760583E+00  0.299405260E+00
   H -0.322976391E+02 -0.124407999E+01  0.249511355E+01
   H  0.316766530E+02  0.219574552E+01 -0.337956054E+01
     4
 # iter = 60500  time[fs]=60.50000
   C -0.630183482E+01  0.133824993E+00 -0.212505118E+00
   C  0.636592208E+01 -0.374612130E+00  0.304093676E+00
   H -0.326999511E+02 -0.125982730E+01  0.252705651E+01
   H  0.320703460E+02  0.222404121E+01 -0.342194651E+01
     4
 # iter = 61000  time[fs]=61.00000
   C -0.638637254E+01  0.136056729E+00 -0.215302765E+00
   C  0.645038321E+01 -0.379467847E+00  0.308786576E+00
   H -0.331024234E+02 -0.127558158E+01  0.255901366E+01
   H  0.324642067E+02  0.225235119E+01 -0.346435337E+01
     4
 # iter = 61500  time[fs]=61.50000
   C -0.647098666E+01  0.138291932E+00 -0.218104243E+00
   C  0.653492016E+01 -0.384327627E+00  0.313483851E+00
   H -0.335050522E+02 -0.129134266E+01  0.259098468E+01
   H  0.328582309E+02  0.228067512E+01 -0.350678062E+01
     4
 # iter = 62000  time[fs]=62.00000
   C -0.655567521E+01  0.140530517E+00 -0.220909457E+00
   C  0.661953095E+01 -0.389191371E+00  0.318185395E+00
   H -0.339078337E+02 -0.130711038E+01  0.262296923E+01
   H  0.332524148E+02  0.230901270E+01 -0.354922779E+01
     4
 # iter = 62500  time[fs]=62.50000
   C -0.664043627E+01  0.142772399E+00 -0.223718319E+00
   C  0.670421368E+01 -0.394058981E+00  0.322891105E+00
   H -0.343107644E+02 -0.132288460E+01  0.265496702E+01
   H  0.336467548E+02  0.233736360E+01 -0.359169443E+01
     4
 # iter = 63000  time[fs]=63.00000
   C -0.672526799E+01  0.145017497E+00 -0.226530741E+00
   C  0.678896652E+01 -0.398930364E+00  0.327600882E+00
   H -0.347138408E+02 -0.133866518E+01  0.268697774E+01
   H  0.340412471E+02  0.236572753E+01 -0.363418008E+01
     4
 # iter = 63500  time[fs]=63.50000
   C -0.681016860E+01  0.147265735E+00 -0.229346640E+00
   C  0.687378770E+01 -0.403805431E+00  0.332314633E+00
   H -0.351170596E+02 -0.135445196E+01  0.271900110E+01
   H  0.344358883E+02  0.239410420E+01 -0.367668433E+01
     4
 # iter = 64000  time[fs]=64.00000
   C -0.689513640E+01  0.149517036E+00 -0.232165934E+00
   C  0.695867554E+01 -0.408684093E+00  0.337032263E+00
   H -0.355204175E+02 -0.137024482E+01  0.275103683E+01
   H  0.348306750E+02  0.242249332E+01 -0.371920677E+01
     4
 # iter = 64500  time[fs]=64.50000
   C -0.698016972E+01  0.151771330E+00 -0.234988545E+00
   C  0.704362839E+01 -0.413566268E+00  0.341753686E+00
   H -0.359239115E+02 -0.138604361E+01  0.278308465E+01
   H  0.352256040E+02  0.245089462E+01 -0.376174699E+01
     4
 # iter = 65000  time[fs]=65.00000
   C -0.706526699E+01  0.154028545E+00 -0.237814398E+00
   C  0.712864467E+01 -0.418451873E+00  0.346478815E+00
   H -0.363275385E+02 -0.140184822E+01  0.281514429E+01
   H  0.356206721E+02  0.247930785E+01 -0.380430461E+01
     4
 # iter = 65500  time[fs]=65.50000
   C -0.715042666E+01  0.156288615E+00 -0.240643419E+00
   C  0.721372286E+01 -0.423340830E+00  0.351207566E+00
   H -0.367312956E+02 -0.141765853E+01  0.284721551E+01
   H  0.360158763E+02  0.250773274E+01 -0.384687926E+01
     4
 # iter = 66000  time[fs]=66.00000
   C -0.723564725E+01  0.158551474E+00 -0.243475538E+00
   C  0.729886149E+01 -0.428233064E+00  0.355939859E+00
   H -0.371351800E+02 -0.143347440E+01  0.287929806E+01
   H  0.364112135E+02  0.253616905E+01 -0.388947057E+01
     4
 # iter = 66500  time[fs]=66.50000
   C -0.732092734E+01  0.160817058E+00 -0.246310687E+00
   C  0.738405914E+01 -0.433128502E+00  0.360675618E+00
   H -0.375391890E+02 -0.144929573E+01  0.291139170E+01
   H  0.368066811E+02  0.256461655E+01 -0.393207819E+01
     4
 # iter = 67000  time[fs]=67.00000
   C -0.740626555E+01  0.163085308E+00 -0.249148799E+00
   C  0.746931445E+01 -0.438027072E+00  0.365414766E+00
   H -0.379433199E+02 -0.146512240E+01  0.294349620E+01
   H  0.372022761E+02  0.259307499E+01 -0.397470179E+01
     4
 # iter = 67500  time[fs]=67.50000
   C -0.749166053E+01  0.165356164E+00 -0.251989811E+00
   C  0.755462607E+01 -0.442928705E+00  0.370157230E+00
   H -0.383475701E+02 -0.148095430E+01  0.297561134E+01
   H  0.375979960E+02  0.262154416E+01 -0.401734103E+01
     4
 # iter = 68000  time[fs]=68.00000
   C -0.757711100E+01  0.167629570E+00 -0.254833659E+00
   C  0.763999274E+01 -0.447833336E+00  0.374902941E+00
   H -0.387519372E+02 -0.149679133E+01  0.300773690E+01
   H  0.379938380E+02  0.265002384E+01 -0.405999560E+01
     4
 # iter = 68500  time[fs]=68.50000
   C -0.766261571E+01  0.169905468E+00 -0.257680285E+00
   C  0.772541321E+01 -0.452740900E+00  0.379651830E+00
   H -0.391564188E+02 -0.151263339E+01  0.303987267E+01
   H  0.383897998E+02  0.267851382E+01 -0.410266519E+01
     4
 # iter = 69000  time[fs]=69.00000
   C -0.774817346E+01  0.172183808E+00 -0.260529630E+00
   C  0.781088630E+01 -0.457651335E+00  0.384403830E+00
   H -0.395610125E+02 -0.152848037E+01  0.307201844E+01
   H  0.387858788E+02  0.270701388E+01 -0.414534949E+01
     4
 # iter = 69500  time[fs]=69.50000
   C -0.783378308E+01  0.174464535E+00 -0.263381638E+00
   C  0.789641083E+01 -0.462564581E+00  0.389158877E+00
   H -0.399657161E+02 -0.154433218E+01  0.310417402E+01
   H  0.391820727E+02  0.273552384E+01 -0.418804822E+01
     4
 # iter = 70000  time[fs]=70.00000
   C -0.791944343E+01  0.176747601E+00 -0.266236253E+00
   C  0.798198568E+01 -0.467480579E+00  0.393916909E+00
   H -0.403705274E+02 -0.156018872E+01  0.313633922E+01
   H  0.395783792E+02  0.276404350E+01 -0.423076109E+01
     4
 # iter = 70500  time[fs]=70.50000
   C -0.800515343E+01  0.179032957E+00 -0.269093423E+00
   C  0.806760978E+01 -0.472399272E+00  0.398677866E+00
   H -0.407754442E+02 -0.157604991E+01  0.316851385E+01
   H  0.399747961E+02  0.279257268E+01 -0.427348783E+01
     4
 # iter = 71000  time[fs]=71.00000
   C -0.809091200E+01  0.181320555E+00 -0.271953097E+00
   C  0.815328207E+01 -0.477320605E+00  0.403441689E+00
   H -0.411804645E+02 -0.159191565E+01  0.320069772E+01
   H  0.403713212E+02  0.282111118E+01 -0.431622816E+01
     4
 # iter = 71500  time[fs]=71.50000
   C -0.817671813E+01  0.183610350E+00 -0.274815223E+00
   C  0.823900152E+01 -0.482244525E+00  0.408208322E+00
   H -0.415855862E+02 -0.160778586E+01  0.323289067E+01
   H  0.407679524E+02  0.284965884E+01 -0.435898185E+01
     4
 # iter = 72000  time[fs]=72.00000
   C -0.826257083E+01  0.185902297E+00 -0.277679755E+00
   C  0.832476716E+01 -0.487170981E+00  0.412977708E+00
   H -0.419908075E+02 -0.162366046E+01  0.326509252E+01
   H  0.411646876E+02  0.287821548E+01 -0.440174862E+01
     4
 # iter = 72500  time[fs]=72.50000
   C -0.834846911E+01  0.188196353E+00 -0.280546644E+00
   C  0.841057801E+01 -0.492099922E+00  0.417749794E+00
   H -0.423961263E+02 -0.163953937E+01  0.329730310E+01
   H  0.415615249E+02  0.290678093E+01 -0.444452823E+01
     4
 # iter = 73000  time[fs]=73.00000
   C -0.843441206E+01  0.190492477E+00 -0.283415845E+00
   C  0.849643317E+01 -0.497031299E+00  0.422524528E+00
   H -0.428015410E+02 -0.165542249E+01  0.332952225E+01
   H  0.419584624E+02  0.293535504E+01 -0.448732045E+01
     4
 # iter = 73500  time[fs]=73.50000
   C -0.852039876E+01  0.192790627E+00 -0.286287313E+00
   C  0.858233171E+01 -0.501965065E+00  0.427301860E+00
   H -0.432070496E+02 -0.167130977E+01  0.336174982E+01
   H  0.423554982E+02  0.296393764E+01 -0.453012505E+01
     4
 # iter = 74000  time[fs]=74.00000
   C -0.860642833E+01  0.195090765E+00 -0.289161006E+00
   C  0.866827278E+01 -0.506901175E+00  0.432081740E+00
   H -0.436126505E+02 -0.168720112E+01  0.339398565E+01
   H  0.427526304E+02  0.299252858E+01 -0.457294180E+01
     4
 # iter = 74500  time[fs]=74.50000
   C -0.869249991E+01  0.197392852E+00 -0.292036881E+00
   C  0.875425551E+01 -0.511839582E+00  0.436864121E+00
   H -0.440183419E+02 -0.170309647E+01  0.342622960E+01
   H  0.431498572E+02  0.302112771E+01 -0.461577048E+01
     4
 # iter = 75000  time[fs]=75.00000
   C -0.877861268E+01  0.199696851E+00 -0.294914897E+00
   C  0.884027910E+01 -0.516780244E+00  0.441648955E+00
   H -0.444241222E+02 -0.171899575E+01  0.345848151E+01
   H  0.435471771E+02  0.304973489E+01 -0.465861087E+01
     4
 # iter = 75500  time[fs]=75.50000
   C -0.886476582E+01  0.202002726E+00 -0.297795016E+00
   C  0.892634273E+01 -0.521723118E+00  0.446436199E+00
   H -0.448299898E+02 -0.173489889E+01  0.349074125E+01
   H  0.439445882E+02  0.307834996E+01 -0.470146278E+01
     4
 # iter = 76000  time[fs]=76.00000
   C -0.895095856E+01  0.204310441E+00 -0.300677197E+00
   C  0.901244562E+01 -0.526668164E+00  0.451225806E+00
   H -0.452359431E+02 -0.175080582E+01  0.352300868E+01
   H  0.443420890E+02  0.310697280E+01 -0.474432599E+01
     4
 # iter = 76500  time[fs]=76.50000
   C -0.903719014E+01  0.206619962E+00 -0.303561404E+00
   C  0.909858704E+01 -0.531615342E+00  0.456017736E+00
   H -0.456419807E+02 -0.176671648E+01  0.355528366E+01
   H  0.447396778E+02  0.313560327E+01 -0.478720032E+01
     4
 # iter = 77000  time[fs]=77.00000
   C -0.912345981E+01  0.208931257E+00 -0.306447600E+00
   C  0.918476623E+01 -0.536564612E+00  0.460811946E+00
   H -0.460481010E+02 -0.178263081E+01  0.358756607E+01
   H  0.451373531E+02  0.316424124E+01 -0.483008556E+01
     4
 # iter = 77500  time[fs]=77.50000
   C -0.920976686E+01  0.211244292E+00 -0.309335749E+00
   C  0.927098249E+01 -0.541515937E+00  0.465608395E+00
   H -0.464543025E+02 -0.179854874E+01  0.361985578E+01
   H  0.455351135E+02  0.319288658E+01 -0.487298153E+01
     4
 # iter = 78000  time[fs]=78.00000
   C -0.929611059E+01  0.213559036E+00 -0.312225817E+00
   C  0.935723512E+01 -0.546469279E+00  0.470407044E+00
   H -0.468605840E+02 -0.181447020E+01  0.365215266E+01
   H  0.459329573E+02  0.322153917E+01 -0.491588805E+01
     4
 # iter = 78500  time[fs]=78.50000
   C -0.938249031E+01  0.215875459E+00 -0.315117770E+00
   C  0.944352346E+01 -0.551424604E+00  0.475207855E+00
   H -0.472669439E+02 -0.183039515E+01  0.368445659E+01
   H  0.463308833E+02  0.325019888E+01 -0.495880495E+01
     4
 # iter = 79000  time[fs]=79.00000
   C -0.946890536E+01  0.218193530E+00 -0.318011574E+00
   C  0.952984683E+01 -0.556381876E+00  0.480010789E+00
   H -0.476733811E+02 -0.184632353E+01  0.371676746E+01
   H  0.467288899E+02  0.327886559E+01 -0.500173204E+01
     4
 # iter = 79500  time[fs]=79.50000
   C -0.955535511E+01  0.220513221E+00 -0.320907199E+00
   C  0.961620460E+01 -0.561341060E+00  0.484815811E+00
   H -0.480798941E+02 -0.186225527E+01  0.374908515E+01
   H  0.471269759E+02  0.330753919E+01 -0.504466916E+01
     4
 # iter = 80000  time[fs]=80.00000
   C -0.964183892E+01  0.222834503E+00 -0.323804613E+00
   C  0.970259616E+01 -0.566302125E+00  0.489622885E+00
   H -0.484864818E+02 -0.187819032E+01  0.378140955E+01
   H  0.475251399E+02  0.333621958E+01 -0.508761615E+01
