     4
 # iter = 25000  time[fs]=25.00000
   C -0.105663231E+01  0.721734392E-03 -0.210600043E-01
   C  0.994809903E+00 -0.183766895E-01  0.506918621E-03
   H -0.540246401E+01 -0.552796947E+00  0.438308120E+00
   H  0.536672917E+01  0.119800419E+00 -0.465769843E+00
     4
 # iter = 25500  time[fs]=25.50000
   C -0.110882892E+01  0.301129807E-02 -0.217094699E-01
   C  0.103840243E+01 -0.191284110E-01  0.271975281E-02
   H -0.573655089E+01 -0.585643931E+00  0.468036098E+00
   H  0.568837494E+01  0.129404282E+00 -0.494735035E+00
     4
 # iter = 26000  time[fs]=26.00000
   C -0.116379666E+01  0.535828405E-02 -0.224087224E-01
   C  0.108470947E+01 -0.199074290E-01  0.499053824E-02
   H -0.607559834E+01 -0.619022548E+00  0.498213078E+00
   H  0.601566067E+01  0.139178268E+00 -0.524247202E+00
     4
 # iter = 26500  time[fs]=26.50000
   C -0.122129550E+01  0.775936558E-02 -0.231550340E-01
   C  0.113349708E+01 -0.207138503E-01  0.731574144E-02
   H -0.641906408E+01 -0.652874184E+00  0.528790473E+00
   H  0.634797109E+01  0.149104966E+00 -0.554248087E+00
     4
 # iter = 27000  time[fs]=27.00000
   C -0.128110478E+01  0.102113448E-01 -0.239457498E-01
   C  0.118454982E+01 -0.215473769E-01  0.969200980E-02
   H -0.676648542E+01 -0.687149051E+00  0.559726866E+00
   H  0.668478076E+01  0.159169387E+00 -0.584687901E+00
     4
 # iter = 27500  time[fs]=27.50000
   C -0.134302315E+01  0.127111598E-01 -0.247783023E-01
   C  0.123767087E+01 -0.224074150E-01  0.121161687E-01
   H -0.711746514E+01 -0.721804555E+00  0.590986712E+00
   H  0.702563828E+01  0.169358552E+00 -0.615523815E+00
     4
 # iter = 28000  time[fs]=28.00000
   C -0.140686791E+01  0.152558944E-01 -0.256502260E-01
   C  0.129268142E+01 -0.232931639E-01  0.145852222E-01
   H -0.747166019E+01 -0.756804010E+00  0.622539313E+00
   H  0.737015363E+01  0.179661163E+00 -0.646718765E+00
     4
 # iter = 28500  time[fs]=28.50000
   C -0.147247383E+01  0.178427859E-01 -0.265591700E-01
   C  0.134941967E+01 -0.242036866E-01  0.170963532E-01
   H -0.782877265E+01 -0.792115628E+00  0.654358001E+00
   H  0.771798801E+01  0.190067340E+00 -0.678240487E+00
     4
 # iter = 29000  time[fs]=29.00000
   C -0.153969186E+01  0.204692300E-01 -0.275029056E-01
   C  0.140773954E+01 -0.251379638E-01  0.196469218E-01
   H -0.818854248E+01 -0.827711700E+00  0.686419479E+00
   H  0.806884556E+01  0.200568394E+00 -0.710060752E+00
     4
 # iter = 29500  time[fs]=29.50000
   C -0.160838774E+01  0.231327818E-01 -0.284793313E-01
   C  0.146750941E+01 -0.260949346E-01  0.222344621E-01
   H -0.855074151E+01 -0.863567949E+00  0.718703290E+00
   H  0.842246670E+01  0.211156655E+00 -0.742154730E+00
     4
 # iter = 30000  time[fs]=30.00000
   C -0.167844062E+01  0.258311544E-01 -0.294864733E-01
   C  0.152861072E+01 -0.270735267E-01  0.248566762E-01
   H -0.891516867E+01 -0.899662994E+00  0.751191389E+00
   H  0.877862260E+01  0.221825319E+00 -0.774500484E+00
     4
 # iter = 30500  time[fs]=30.50000
   C -0.174974165E+01  0.285622142E-01 -0.305224844E-01
   C  0.159093667E+01 -0.280726780E-01  0.275114270E-01
   H -0.928164598E+01 -0.935977920E+00  0.783867781E+00
   H  0.913711067E+01  0.232568328E+00 -0.807078544E+00
     4
 # iter = 31000  time[fs]=31.00000
   C -0.182219282E+01  0.313239748E-01 -0.315856397E-01
   C  0.165439109E+01 -0.290913516E-01  0.301967301E-01
   H -0.965001522E+01 -0.972495919E+00  0.816718233E+00
   H  0.949775084E+01  0.243380266E+00 -0.839871560E+00
     4
 # iter = 31500  time[fs]=31.50000
   C -0.189570574E+01  0.341145902E-01 -0.326743322E-01
   C  0.171888721E+01 -0.301285460E-01  0.329107446E-01
   H -0.100201352E+02 -0.100920199E+01  0.849730026E+00
   H  0.986038240E+01  0.254256275E+00 -0.872864009E+00
     4
 # iter = 32000  time[fs]=32.00000
   C -0.197020066E+01  0.369323461E-01 -0.337870661E-01
   C  0.178434672E+01 -0.311833018E-01  0.356517640E-01
   H -0.103918795E+02 -0.104608271E+01  0.882891756E+00
   H  0.102248614E+02  0.265191980E+00 -0.906041954E+00
     4
 # iter = 32500  time[fs]=32.50000
   C -0.204560548E+01  0.397756519E-01 -0.349224512E-01
   C  0.185069885E+01 -0.322547053E-01  0.384182067E-01
   H -0.107651345E+02 -0.108312601E+01  0.916193158E+00
   H  0.105910586E+02  0.276183430E+00 -0.939392839E+00
     4
 # iter = 33000  time[fs]=33.00000
   C -0.212185495E+01  0.426430321E-01 -0.360791953E-01
   C  0.191787952E+01 -0.333418900E-01  0.412086071E-01
   H -0.111397976E+02 -0.112032099E+01  0.949624964E+00
   H  0.109588572E+02  0.287227046E+00 -0.972905312E+00
     4
 # iter = 33500  time[fs]=33.50000
   C -0.219888990E+01  0.455331180E-01 -0.372560981E-01
   C  0.198583064E+01 -0.344440372E-01  0.440216069E-01
   H -0.115157764E+02 -0.115765779E+01  0.983178781E+00
   H  0.113281518E+02  0.298319576E+00 -0.100656908E+01
     4
 # iter = 34000  time[fs]=34.00000
   C -0.227665659E+01  0.484446398E-01 -0.384520444E-01
   C  0.205449944E+01 -0.355603752E-01  0.468559463E-01
   H -0.118929867E+02 -0.119512750E+01  0.101684698E+01
   H  0.116988467E+02  0.309458057E+00 -0.104037480E+01
     4
 # iter = 34500  time[fs]=34.50000
   C -0.235510616E+01  0.513764192E-01 -0.396659978E-01
   C  0.212383792E+01 -0.366901780E-01  0.497104570E-01
   H -0.122713520E+02 -0.123272195E+01  0.105062263E+01
   H  0.120708549E+02  0.320639781E+00 -0.107431392E+01
     4
 # iter = 35000  time[fs]=35.00000
   C -0.243419405E+01  0.543273615E-01 -0.408969948E-01
   C  0.219380235E+01 -0.378327634E-01  0.525840540E-01
   H -0.126508026E+02 -0.127043374E+01  0.108449937E+01
   H  0.124440970E+02  0.331862271E+00 -0.110837865E+01
     4
 # iter = 35500  time[fs]=35.50000
   C -0.251387960E+01  0.572964501E-01 -0.421441393E-01
   C  0.226435278E+01 -0.389874909E-01  0.554757296E-01
   H -0.130312748E+02 -0.130825607E+01  0.111847140E+01
   H  0.128185004E+02  0.343123252E+00 -0.114256185E+01
     4
 # iter = 36000  time[fs]=36.00000
   C -0.259412560E+01  0.602827392E-01 -0.434065969E-01
   C  0.233545270E+01 -0.401537595E-01  0.583845467E-01
   H -0.134127102E+02 -0.134618271E+01  0.115253340E+01
   H  0.131939986E+02  0.354420630E+00 -0.117685695E+01
     4
 # iter = 36500  time[fs]=36.50000
   C -0.267489798E+01  0.632853487E-01 -0.446835907E-01
   C  0.240706865E+01 -0.413310055E-01  0.613096333E-01
   H -0.137950550E+02 -0.138420794E+01  0.118668045E+01
   H  0.135705306E+02  0.365752475E+00 -0.121125790E+01
     4
 # iter = 37000  time[fs]=37.00000
   C -0.275616547E+01  0.663034590E-01 -0.459743962E-01
   C  0.247916991E+01 -0.425187001E-01  0.642501770E-01
   H -0.141782599E+02 -0.142232647E+01  0.122090804E+01
   H  0.139480401E+02  0.377117006E+00 -0.124575915E+01
     4
 # iter = 37500  time[fs]=37.50000
   C -0.283789931E+01  0.693363057E-01 -0.472783375E-01
   C  0.255172826E+01 -0.437163471E-01  0.672054205E-01
   H -0.145622793E+02 -0.146053345E+01  0.125521200E+01
   H  0.143264752E+02  0.388512572E+00 -0.128035552E+01
     4
 # iter = 38000  time[fs]=38.00000
   C -0.292007301E+01  0.723831756E-01 -0.485947833E-01
   C  0.262471771E+01 -0.449234811E-01  0.701746567E-01
   H -0.149470711E+02 -0.149882437E+01  0.128958847E+01
   H  0.147057880E+02  0.399937644E+00 -0.131504226E+01
     4
 # iter = 38500  time[fs]=38.50000
   C -0.300266216E+01  0.754434023E-01 -0.499231437E-01
   C  0.269811427E+01 -0.461396649E-01  0.731572252E-01
   H -0.153325963E+02 -0.153719505E+01  0.132403385E+01
   H  0.150859341E+02  0.411390801E+00 -0.134981494E+01
     4
 # iter = 39000  time[fs]=39.00000
   C -0.308564419E+01  0.785163628E-01 -0.512628665E-01
   C  0.277189580E+01 -0.473644882E-01  0.761525083E-01
   H -0.157188187E+02 -0.157564163E+01  0.135854484E+01
   H  0.154668724E+02  0.422870719E+00 -0.138466944E+01
     4
 # iter = 39500  time[fs]=39.50000
   C -0.316899822E+01  0.816014741E-01 -0.526134348E-01
   C  0.284604181E+01 -0.485975652E-01  0.791599277E-01
   H -0.161057047E+02 -0.161416051E+01  0.139311833E+01
   H  0.158485645E+02  0.434376168E+00 -0.141960193E+01
     4
 # iter = 40000  time[fs]=40.00000
   C -0.325270489E+01  0.846981897E-01 -0.539743639E-01
   C  0.292053329E+01 -0.498385334E-01  0.821789416E-01
   H -0.164932230E+02 -0.165274832E+01  0.142775144E+01
   H  0.162309750E+02  0.445905997E+00 -0.145460885E+01
     4
 # iter = 40500  time[fs]=40.50000
   C -0.333674626E+01  0.878059972E-01 -0.553451990E-01
   C  0.299535264E+01 -0.510870513E-01  0.852090416E-01
   H -0.168813444E+02 -0.169140194E+01  0.146244148E+01
   H  0.166140705E+02  0.457459130E+00 -0.148968686E+01
     4
 # iter = 41000  time[fs]=41.00000
   C -0.342110562E+01  0.909244158E-01 -0.567255130E-01
   C  0.307048347E+01 -0.523427980E-01  0.882497504E-01
   H -0.172700418E+02 -0.173011845E+01  0.149718593E+01
   H  0.169978202E+02  0.469034561E+00 -0.152483284E+01
     4
 # iter = 41500  time[fs]=41.50000
   C -0.350576744E+01  0.940529933E-01 -0.581149044E-01
   C  0.314591053E+01 -0.536054705E-01  0.913006192E-01
   H -0.176592896E+02 -0.176889511E+01  0.153198245E+01
   H  0.173821950E+02  0.480631347E+00 -0.156004388E+01
     4
 # iter = 42000  time[fs]=42.00000
   C -0.359071724E+01  0.971913046E-01 -0.595129954E-01
   C  0.322161962E+01 -0.548747837E-01  0.943612260E-01
   H -0.180490640E+02 -0.180772936E+01  0.156682881E+01
   H  0.177671678E+02  0.492248601E+00 -0.159531723E+01
     4
 # iter = 42500  time[fs]=42.50000
   C -0.367594151E+01  0.100338949E+00 -0.609194300E-01
   C  0.329759748E+01 -0.561504683E-01  0.974311733E-01
   H -0.184393428E+02 -0.184661879E+01  0.160172297E+01
   H  0.181527133E+02  0.503885493E+00 -0.163065032E+01
     4
 # iter = 43000  time[fs]=43.00000
   C -0.376142761E+01  0.103495551E+00 -0.623338730E-01
   C  0.337383173E+01 -0.574322701E-01  0.100510086E+00
   H -0.188301048E+02 -0.188556115E+01  0.163666295E+01
   H  0.185388076E+02  0.515541237E+00 -0.166604074E+01
     4
 # iter = 43500  time[fs]=43.50000
   C -0.384716374E+01  0.106660753E+00 -0.637560076E-01
   C  0.345031077E+01 -0.587199488E-01  0.103597611E+00
   H -0.192213304E+02 -0.192455430E+01  0.167164695E+01
   H  0.189254281E+02  0.527215098E+00 -0.170148621E+01
     4
 # iter = 44000  time[fs]=44.00000
   C -0.393313883E+01  0.109834219E+00 -0.651855350E-01
   C  0.352702375E+01 -0.600132773E-01  0.106693415E+00
   H -0.196130011E+02 -0.196359625E+01  0.170667322E+01
   H  0.193125539E+02  0.538906378E+00 -0.173698459E+01
     4
 # iter = 44500  time[fs]=44.50000
   C -0.401934249E+01  0.113015633E+00 -0.666221726E-01
   C  0.360396049E+01 -0.613120407E-01  0.109797181E+00
   H -0.200050993E+02 -0.200268512E+01  0.174174015E+01
   H  0.197001651E+02  0.550614422E+00 -0.177253385E+01
     4
 # iter = 45000  time[fs]=45.00000
   C -0.410576499E+01  0.116204694E+00 -0.680656532E-01
   C  0.368111144E+01 -0.626160354E-01  0.112908612E+00
   H -0.203976086E+02 -0.204181912E+01  0.177684620E+01
   H  0.200882428E+02  0.562338607E+00 -0.180813209E+01
     4
 # iter = 45500  time[fs]=45.50000
   C -0.419239716E+01  0.119401119E+00 -0.695157236E-01
   C  0.375846761E+01 -0.639250685E-01  0.116027424E+00
   H -0.207905134E+02 -0.208099657E+01  0.181198992E+01
   H  0.204767695E+02  0.574078348E+00 -0.184377750E+01
     4
 # iter = 46000  time[fs]=46.00000
   C -0.427923038E+01  0.122604637E+00 -0.709721440E-01
   C  0.383602055E+01 -0.652389570E-01  0.119153350E+00
   H -0.211837990E+02 -0.212021588E+01  0.184716993E+01
   H  0.208657283E+02  0.585833088E+00 -0.187946837E+01
     4
 # iter = 46500  time[fs]=46.50000
   C -0.436625653E+01  0.125814995E+00 -0.724346871E-01
   C  0.391376230E+01 -0.665575274E-01  0.122286135E+00
   H -0.215774515E+02 -0.215947555E+01  0.188238494E+01
   H  0.212551036E+02  0.597602299E+00 -0.191520308E+01
     4
 # iter = 47000  time[fs]=47.00000
   C -0.445346797E+01  0.129031949E+00 -0.739031369E-01
   C  0.399168536E+01 -0.678806148E-01  0.125425540E+00
   H -0.219714577E+02 -0.219877415E+01  0.191763371E+01
   H  0.216448801E+02  0.609385482E+00 -0.195098010E+01
     4
 # iter = 47500  time[fs]=47.50000
   C -0.454085745E+01  0.132255270E+00 -0.753772886E-01
   C  0.406978265E+01 -0.692080623E-01  0.128571334E+00
   H -0.223658052E+02 -0.223811033E+01  0.195291508E+01
   H  0.220350439E+02  0.621182161E+00 -0.198679797E+01
     4
 # iter = 48000  time[fs]=48.00000
   C -0.462841817E+01  0.135484739E+00 -0.768569472E-01
   C  0.414804747E+01 -0.705397211E-01  0.131723300E+00
   H -0.227604821E+02 -0.227748280E+01  0.198822794E+01
   H  0.224255814E+02  0.632991885E+00 -0.202265531E+01
     4
 # iter = 48500  time[fs]=48.50000
   C -0.471614367E+01  0.138720149E+00 -0.783419274E-01
   C  0.422647350E+01 -0.718754491E-01  0.134881231E+00
   H -0.231554771E+02 -0.231689034E+01  0.202357123E+01
   H  0.228164799E+02  0.644814226E+00 -0.205855080E+01
     4
 # iter = 49000  time[fs]=49.00000
   C -0.480402783E+01  0.141961303E+00 -0.798320528E-01
   C  0.430505476E+01 -0.732151114E-01  0.138044930E+00
   H -0.235507795E+02 -0.235633179E+01  0.205894395E+01
   H  0.232077271E+02  0.656648773E+00 -0.209448320E+01
     4
 # iter = 49500  time[fs]=49.50000
   C -0.489206487E+01  0.145208011E+00 -0.813271553E-01
   C  0.438378557E+01 -0.745585793E-01  0.141214209E+00
   H -0.239463793E+02 -0.239580606E+01  0.209434515E+01
   H  0.235993115E+02  0.668495139E+00 -0.213045130E+01
     4
 # iter = 50000  time[fs]=50.00000
   C -0.498024931E+01  0.148460094E+00 -0.828270748E-01
   C  0.446266055E+01 -0.759057299E-01  0.144388890E+00
   H -0.243422666E+02 -0.243531208E+01  0.212977391E+01
   H  0.239912221E+02  0.680352952E+00 -0.216645399E+01
     4
 # iter = 50500  time[fs]=50.50000
   C -0.506857594E+01  0.151717382E+00 -0.843316584E-01
   C  0.454167462E+01 -0.772564463E-01  0.147568801E+00
   H -0.247384323E+02 -0.247484885E+01  0.216522937E+01
   H  0.243834486E+02  0.692221857E+00 -0.220249017E+01
     4
 # iter = 51000  time[fs]=51.00000
   C -0.515703981E+01  0.154979710E+00 -0.858407604E-01
   C  0.462082292E+01 -0.786106165E-01  0.150753779E+00
   H -0.251348677E+02 -0.251441542E+01  0.220071070E+01
   H  0.247759807E+02  0.704101517E+00 -0.223855881E+01
     4
 # iter = 51500  time[fs]=51.50000
   C -0.524563624E+01  0.158246923E+00 -0.873542414E-01
   C  0.470010085E+01 -0.799681339E-01  0.153943670E+00
   H -0.255315643E+02 -0.255401088E+01  0.223621712E+01
   H  0.251688091E+02  0.715991609E+00 -0.227465893E+01
     4
 # iter = 52000  time[fs]=52.00000
   C -0.533436075E+01  0.161518873E+00 -0.888719684E-01
   C  0.477950404E+01 -0.813288962E-01  0.157138323E+00
   H -0.259285140E+02 -0.259363436E+01  0.227174786E+01
   H  0.255619247E+02  0.727891824E+00 -0.231078959E+01
     4
 # iter = 52500  time[fs]=52.50000
   C -0.542320909E+01  0.164795416E+00 -0.903938141E-01
   C  0.485902832E+01 -0.826928060E-01  0.160337598E+00
   H -0.263257094E+02 -0.263328502E+01  0.230730222E+01
   H  0.259553187E+02  0.739801867E+00 -0.234694987E+01
     4
 # iter = 53000  time[fs]=53.00000
   C -0.551217722E+01  0.168076416E+00 -0.919196568E-01
   C  0.493866972E+01 -0.840597697E-01  0.163541357E+00
   H -0.267231431E+02 -0.267296206E+01  0.234287949E+01
   H  0.263489828E+02  0.751721455E+00 -0.238313893E+01
     4
 # iter = 53500  time[fs]=53.50000
   C -0.560126126E+01  0.171361743E+00 -0.934493798E-01
   C  0.501842446E+01 -0.854296979E-01  0.166749470E+00
   H -0.271208080E+02 -0.271266472E+01  0.237847902E+01
   H  0.267429092E+02  0.763650316E+00 -0.241935594E+01
     4
 # iter = 54000  time[fs]=54.00000
   C -0.569045754E+01  0.174651272E+00 -0.949828715E-01
   C  0.509828895E+01 -0.868025048E-01  0.169961813E+00
   H -0.275186975E+02 -0.275239228E+01  0.241410018E+01
   H  0.271370902E+02  0.775588193E+00 -0.245560011E+01
     4
 # iter = 54500  time[fs]=54.50000
   C -0.577976255E+01  0.177944884E+00 -0.965200248E-01
   C  0.517825973E+01 -0.881781085E-01  0.173178266E+00
   H -0.279168052E+02 -0.279214403E+01  0.244974236E+01
   H  0.275315185E+02  0.787534835E+00 -0.249187067E+01
     4
 # iter = 55000  time[fs]=55.00000
   C -0.586917293E+01  0.181242463E+00 -0.980607372E-01
   C  0.525833352E+01 -0.895564300E-01  0.176398714E+00
   H -0.283151250E+02 -0.283191930E+01  0.248540497E+01
   H  0.279261872E+02  0.799490004E+00 -0.252816691E+01
     4
 # iter = 55500  time[fs]=55.50000
   C -0.595868547E+01  0.184543899E+00 -0.996049102E-01
   C  0.533850718E+01 -0.909373938E-01  0.179623047E+00
   H -0.287136509E+02 -0.287171746E+01  0.252108747E+01
   H  0.283210896E+02  0.811453471E+00 -0.256448812E+01
     4
 # iter = 56000  time[fs]=56.00000
   C -0.604829710E+01  0.187849087E+00 -0.101152449E+00
   C  0.541877770E+01 -0.923209273E-01  0.182851160E+00
   H -0.291123773E+02 -0.291153787E+01  0.255678932E+01
   H  0.287162192E+02  0.823425016E+00 -0.260083364E+01
     4
 # iter = 56500  time[fs]=56.50000
   C -0.613800490E+01  0.191157925E+00 -0.102703264E+00
   C  0.549914222E+01 -0.937069608E-01  0.186082950E+00
   H -0.295112989E+02 -0.295137995E+01  0.259251000E+01
   H  0.291115699E+02  0.835404426E+00 -0.263720281E+01
     4
 # iter = 57000  time[fs]=57.00000
   C -0.622780605E+01  0.194470316E+00 -0.104257266E+00
   C  0.557959799E+01 -0.950954275E-01  0.189318320E+00
   H -0.299104103E+02 -0.299124313E+01  0.262824902E+01
   H  0.295071359E+02  0.847391499E+00 -0.267359504E+01
     4
 # iter = 57500  time[fs]=57.50000
   C -0.631769786E+01  0.197786166E+00 -0.105814373E+00
   C  0.566014236E+01 -0.964862628E-01  0.192557176E+00
   H -0.303097066E+02 -0.303112686E+01  0.266400590E+01
   H  0.299029113E+02  0.859386038E+00 -0.271000971E+01
     4
 # iter = 58000  time[fs]=58.00000
   C -0.640767776E+01  0.201105385E+00 -0.107374503E+00
   C  0.574077282E+01 -0.978794049E-01  0.195799429E+00
   H -0.307091830E+02 -0.307103062E+01  0.269978020E+01
   H  0.302988908E+02  0.871387856E+00 -0.274644626E+01
     4
 # iter = 58500  time[fs]=58.50000
   C -0.649774326E+01  0.204427886E+00 -0.108937579E+00
   C  0.582148694E+01 -0.992747942E-01  0.199044990E+00
   H -0.311088348E+02 -0.311095389E+01  0.273557146E+01
   H  0.306950691E+02  0.883396771E+00 -0.278290414E+01
     4
 # iter = 59000  time[fs]=59.00000
   C -0.658789200E+01  0.207753586E+00 -0.110503526E+00
   C  0.590228241E+01 -0.100672373E+00  0.202293777E+00
   H -0.315086576E+02 -0.315089619E+01  0.277137926E+01
   H  0.310914411E+02  0.895412608E+00 -0.281938281E+01
     4
 # iter = 59500  time[fs]=59.50000
   C -0.667812170E+01  0.211082404E+00 -0.112072273E+00
   C  0.598315698E+01 -0.102072087E+00  0.205545709E+00
   H -0.319086472E+02 -0.319085705E+01  0.280720321E+01
   H  0.314880021E+02  0.907435199E+00 -0.285588177E+01
     4
 # iter = 60000  time[fs]=60.00000
   C -0.676843017E+01  0.214414263E+00 -0.113643749E+00
   C  0.606410853E+01 -0.103473882E+00  0.208800709E+00
   H -0.323087993E+02 -0.323083601E+01  0.284304289E+01
   H  0.318847472E+02  0.919464381E+00 -0.289240053E+01
     4
 # iter = 60500  time[fs]=60.50000
   C -0.685881531E+01  0.217749088E+00 -0.115217889E+00
   C  0.614513499E+01 -0.104877708E+00  0.212058701E+00
   H -0.327091100E+02 -0.327083264E+01  0.287889795E+01
   H  0.322816719E+02  0.931499998E+00 -0.292893860E+01
     4
 # iter = 61000  time[fs]=61.00000
   C -0.694927510E+01  0.221086807E+00 -0.116794627E+00
   C  0.622623439E+01 -0.106283514E+00  0.215319613E+00
   H -0.331095755E+02 -0.331084651E+01  0.291476800E+01
   H  0.326787720E+02  0.943541898E+00 -0.296549553E+01
     4
 # iter = 61500  time[fs]=61.50000
   C -0.703980759E+01  0.224427351E+00 -0.118373902E+00
   C  0.630740482E+01 -0.107691252E+00  0.218583377E+00
   H -0.335101921E+02 -0.335087723E+01  0.295065270E+01
   H  0.330760433E+02  0.955589937E+00 -0.300207089E+01
     4
 # iter = 62000  time[fs]=62.00000
   C -0.713041092E+01  0.227770653E+00 -0.119955653E+00
   C  0.638864445E+01 -0.109100878E+00  0.221849923E+00
   H -0.339109562E+02 -0.339092439E+01  0.298655171E+01
   H  0.334734815E+02  0.967643972E+00 -0.303866423E+01
     4
 # iter = 62500  time[fs]=62.50000
   C -0.722108327E+01  0.231116648E+00 -0.121539822E+00
   C  0.646995152E+01 -0.110512346E+00  0.225119189E+00
   H -0.343118644E+02 -0.343098763E+01  0.302246469E+01
   H  0.338710830E+02  0.979703867E+00 -0.307527516E+01
     4
 # iter = 63000  time[fs]=63.00000
   C -0.731182293E+01  0.234465274E+00 -0.123126354E+00
   C  0.655132433E+01 -0.111925614E+00  0.228391110E+00
   H -0.347129132E+02 -0.347106656E+01  0.305839134E+01
   H  0.342688438E+02  0.991769492E+00 -0.311190327E+01
     4
 # iter = 63500  time[fs]=63.50000
   C -0.740262821E+01  0.237816469E+00 -0.124715195E+00
   C  0.663276126E+01 -0.113340639E+00  0.231665627E+00
   H -0.351140996E+02 -0.351116085E+01  0.309433134E+01
   H  0.346667604E+02  0.100384072E+01 -0.314854817E+01
     4
 # iter = 64000  time[fs]=64.00000
   C -0.749349750E+01  0.241170177E+00 -0.126306292E+00
   C  0.671426071E+01 -0.114757383E+00  0.234942681E+00
   H -0.355154204E+02 -0.355127014E+01  0.313028439E+01
   H  0.350648291E+02  0.101591742E+01 -0.318520950E+01
     4
 # iter = 64500  time[fs]=64.50000
   C -0.758442926E+01  0.244526340E+00 -0.127899594E+00
   C  0.679582118E+01 -0.116175805E+00  0.238222215E+00
   H -0.359168727E+02 -0.359139410E+01  0.316625022E+01
   H  0.354630467E+02  0.102799949E+01 -0.322188689E+01
     4
 # iter = 65000  time[fs]=65.00000
   C -0.767542197E+01  0.247884904E+00 -0.129495054E+00
   C  0.687744119E+01 -0.117595869E+00  0.241504174E+00
   H -0.363184534E+02 -0.363153243E+01  0.320222853E+01
   H  0.358614098E+02  0.104008680E+01 -0.325858000E+01
     4
 # iter = 65500  time[fs]=65.50000
   C -0.776647421E+01  0.251245817E+00 -0.131092622E+00
   C  0.695911933E+01 -0.119017539E+00  0.244788506E+00
   H -0.367201598E+02 -0.367168480E+01  0.323821907E+01
   H  0.362599152E+02  0.105217924E+01 -0.329528849E+01
     4
 # iter = 66000  time[fs]=66.00000
   C -0.785758456E+01  0.254609026E+00 -0.132692255E+00
   C  0.704085423E+01 -0.120440779E+00  0.248075159E+00
   H -0.371219892E+02 -0.371185091E+01  0.327422158E+01
   H  0.366585598E+02  0.106427670E+01 -0.333201203E+01
     4
 # iter = 66500  time[fs]=66.50000
   C -0.794875168E+01  0.257974483E+00 -0.134293907E+00
   C  0.712264458E+01 -0.121865555E+00  0.251364083E+00
   H -0.375239389E+02 -0.375203048E+01  0.331023579E+01
   H  0.370573407E+02  0.107637909E+01 -0.336875030E+01
     4
 # iter = 67000  time[fs]=67.00000
   C -0.803997426E+01  0.261342140E+00 -0.135897535E+00
   C  0.720448910E+01 -0.123291835E+00  0.254655231E+00
   H -0.379260064E+02 -0.379222323E+01  0.334626147E+01
   H  0.374562549E+02  0.108848629E+01 -0.340550300E+01
     4
 # iter = 67500  time[fs]=67.50000
   C -0.813125105E+01  0.264711950E+00 -0.137503098E+00
   C  0.728638655E+01 -0.124719586E+00  0.257948555E+00
   H -0.383281893E+02 -0.383242887E+01  0.338229837E+01
   H  0.378552997E+02  0.110059821E+01 -0.344226984E+01
     4
 # iter = 68000  time[fs]=68.00000
   C -0.822258083E+01  0.268083868E+00 -0.139110556E+00
   C  0.736833575E+01 -0.126148778E+00  0.261244011E+00
   H -0.387304851E+02 -0.387264716E+01  0.341834628E+01
   H  0.382544723E+02  0.111271476E+01 -0.347905051E+01
     4
 # iter = 68500  time[fs]=68.50000
   C -0.831396241E+01  0.271457852E+00 -0.140719869E+00
   C  0.745033554E+01 -0.127579380E+00  0.264541554E+00
   H -0.391328915E+02 -0.391287782E+01  0.345440496E+01
   H  0.386537701E+02  0.112483584E+01 -0.351584475E+01
     4
 # iter = 69000  time[fs]=69.00000
   C -0.840539466E+01  0.274833857E+00 -0.142330999E+00
   C  0.753238481E+01 -0.129011364E+00  0.267841143E+00
   H -0.395354062E+02 -0.395312062E+01  0.349047421E+01
   H  0.390531906E+02  0.113696136E+01 -0.355265229E+01
     4
 # iter = 69500  time[fs]=69.50000
   C -0.849687648E+01  0.278211844E+00 -0.143943911E+00
   C  0.761448247E+01 -0.130444701E+00  0.271142736E+00
   H -0.399380271E+02 -0.399337530E+01  0.352655380E+01
   H  0.394527312E+02  0.114909124E+01 -0.358947285E+01
     4
 # iter = 70000  time[fs]=70.00000
   C -0.858840679E+01  0.281591773E+00 -0.145558567E+00
   C  0.769662749E+01 -0.131879365E+00  0.274446292E+00
   H -0.403407521E+02 -0.403364165E+01  0.356264355E+01
   H  0.398523896E+02  0.116122538E+01 -0.362630618E+01
     4
 # iter = 70500  time[fs]=70.50000
   C -0.867998456E+01  0.284973605E+00 -0.147174934E+00
   C  0.777881884E+01 -0.133315328E+00  0.277751774E+00
   H -0.407435790E+02 -0.407391942E+01  0.359874324E+01
   H  0.402521634E+02  0.117336371E+01 -0.366315204E+01
     4
 # iter = 71000  time[fs]=71.00000
   C -0.877160879E+01  0.288357302E+00 -0.148792978E+00
   C  0.786105556E+01 -0.134752565E+00  0.281059143E+00
   H -0.411465060E+02 -0.411420840E+01  0.363485269E+01
   H  0.406520504E+02  0.118550615E+01 -0.370001019E+01
     4
 # iter = 71500  time[fs]=71.50000
   C -0.886327851E+01  0.291742829E+00 -0.150412666E+00
   C  0.794333668E+01 -0.136191051E+00  0.284368362E+00
   H -0.415495311E+02 -0.415450837E+01  0.367097172E+01
   H  0.410520484E+02  0.119765262E+01 -0.373688038E+01
     4
 # iter = 72000  time[fs]=72.00000
   C -0.895499276E+01  0.295130150E+00 -0.152033966E+00
   C  0.802566129E+01 -0.137630761E+00  0.287679397E+00
   H -0.419526523E+02 -0.419481913E+01  0.370710013E+01
   H  0.414521552E+02  0.120980304E+01 -0.377376240E+01
     4
 # iter = 72500  time[fs]=72.50000
   C -0.904675064E+01  0.298519229E+00 -0.153656848E+00
   C  0.810802850E+01 -0.139071673E+00  0.290992213E+00
   H -0.423558678E+02 -0.423514047E+01  0.374323776E+01
   H  0.418523688E+02  0.122195735E+01 -0.381065602E+01
     4
 # iter = 73000  time[fs]=73.00000
   C -0.913855127E+01  0.301910035E+00 -0.155281282E+00
   C  0.819043744E+01 -0.140513762E+00  0.294306775E+00
   H -0.427591760E+02 -0.427547220E+01  0.377938443E+01
   H  0.422526872E+02  0.123411546E+01 -0.384756103E+01
     4
 # iter = 73500  time[fs]=73.50000
   C -0.923039378E+01  0.305302535E+00 -0.156907238E+00
   C  0.827288726E+01 -0.141957007E+00  0.297623051E+00
   H -0.431625750E+02 -0.431581412E+01  0.381553998E+01
   H  0.426531083E+02  0.124627732E+01 -0.388447721E+01
     4
 # iter = 74000  time[fs]=74.00000
   C -0.932227733E+01  0.308696696E+00 -0.158534689E+00
   C  0.835537715E+01 -0.143401387E+00  0.300941011E+00
   H -0.435660631E+02 -0.435616605E+01  0.385170424E+01
   H  0.430536303E+02  0.125844284E+01 -0.392140437E+01
     4
 # iter = 74500  time[fs]=74.50000
   C -0.941420112E+01  0.312092489E+00 -0.160163606E+00
   C  0.843790631E+01 -0.144846879E+00  0.304260621E+00
   H -0.439696388E+02 -0.439652780E+01  0.388787706E+01
   H  0.434542513E+02  0.127061198E+01 -0.395834230E+01
     4
 # iter = 75000  time[fs]=75.00000
   C -0.950616436E+01  0.315489883E+00 -0.161793963E+00
   C  0.852047399E+01 -0.146293464E+00  0.307581853E+00
   H -0.443733004E+02 -0.443689921E+01  0.392405829E+01
   H  0.438549696E+02  0.128278465E+01 -0.399529082E+01
     4
 # iter = 75500  time[fs]=75.50000
   C -0.959816628E+01  0.318888850E+00 -0.163425734E+00
   C  0.860307943E+01 -0.147741121E+00  0.310904678E+00
   H -0.447770464E+02 -0.447728009E+01  0.396024777E+01
   H  0.442557833E+02  0.129496081E+01 -0.403224973E+01
     4
 # iter = 76000  time[fs]=76.00000
   C -0.969020615E+01  0.322289361E+00 -0.165058893E+00
   C  0.868572190E+01 -0.149189832E+00  0.314229066E+00
   H -0.451808753E+02 -0.451767028E+01  0.399644536E+01
   H  0.446566908E+02  0.130714038E+01 -0.406921885E+01
     4
 # iter = 76500  time[fs]=76.50000
   C -0.978228323E+01  0.325691388E+00 -0.166693417E+00
   C  0.876840070E+01 -0.150639577E+00  0.317554990E+00
   H -0.455847856E+02 -0.455806962E+01  0.403265091E+01
   H  0.450576903E+02  0.131932332E+01 -0.410619801E+01
     4
 # iter = 77000  time[fs]=77.00000
   C -0.987439683E+01  0.329094905E+00 -0.168329279E+00
   C  0.885111515E+01 -0.152090337E+00  0.320882423E+00
   H -0.459887759E+02 -0.459847795E+01  0.406886430E+01
   H  0.454587804E+02  0.133150955E+01 -0.414318703E+01
     4
 # iter = 77500  time[fs]=77.50000
   C -0.996654627E+01  0.332499886E+00 -0.169966458E+00
   C  0.893386457E+01 -0.153542096E+00  0.324211339E+00
   H -0.463928448E+02 -0.463889511E+01  0.410508538E+01
   H  0.458599593E+02  0.134369904E+01 -0.418018574E+01
     4
 # iter = 78000  time[fs]=78.00000
   C -0.100587309E+02  0.335906305E+00 -0.171604931E+00
   C  0.901664831E+01 -0.154994835E+00  0.327541711E+00
   H -0.467969909E+02 -0.467932096E+01  0.414131402E+01
   H  0.462612256E+02  0.135589171E+01 -0.421719398E+01
     4
 # iter = 78500  time[fs]=78.50000
   C -0.101509500E+02  0.339314137E+00 -0.173244674E+00
   C  0.909946576E+01 -0.156448538E+00  0.330873516E+00
   H -0.472012130E+02 -0.471975534E+01  0.417755011E+01
   H  0.466625778E+02  0.136808753E+01 -0.425421159E+01
     4
 # iter = 79000  time[fs]=79.00000
   C -0.102432030E+02  0.342723359E+00 -0.174885667E+00
   C  0.918231628E+01 -0.157903188E+00  0.334206728E+00
   H -0.476055096E+02 -0.476019812E+01  0.421379350E+01
   H  0.470640144E+02  0.138028643E+01 -0.429123840E+01
     4
 # iter = 79500  time[fs]=79.50000
   C -0.103354893E+02  0.346133946E+00 -0.176527888E+00
   C  0.926519929E+01 -0.159358768E+00  0.337541324E+00
   H -0.480098797E+02 -0.480064915E+01  0.425004408E+01
   H  0.474655339E+02  0.139248836E+01 -0.432827428E+01
     4
 # iter = 80000  time[fs]=80.00000
   C -0.104278083E+02  0.349545875E+00 -0.178171317E+00
   C  0.934811419E+01 -0.160815263E+00  0.340877281E+00
   H -0.484143219E+02 -0.484110830E+01  0.428630174E+01
   H  0.478671351E+02  0.140469328E+01 -0.436531906E+01
