     4
 # iter = 25000  time[fs]=25.00000
   C -0.961394535E+00 -0.513903030E-03 -0.314672279E-01
   C  0.983693206E+00 -0.204769348E-01 -0.450703506E-01
   H -0.517097994E+01  0.119916916E+00 -0.351688161E+00
   H  0.525271896E+01 -0.351454037E+00  0.158320886E+00
     4
 # iter = 25500  time[fs]=25.50000
   C -0.100544514E+01 -0.521648043E-03 -0.299645430E-01
   C  0.102636111E+01 -0.197269331E-01 -0.460618426E-01
   H -0.550376488E+01  0.128731715E+00 -0.371166853E+00
   H  0.556931937E+01 -0.372885530E+00  0.171347267E+00
     4
 # iter = 26000  time[fs]=26.00000
   C -0.105252649E+01 -0.499715384E-03 -0.284158302E-01
   C  0.107210066E+01 -0.189894753E-01 -0.470850127E-01
   H -0.584243071E+01  0.137710760E+00 -0.391043309E+00
   H  0.589131001E+01 -0.394686875E+00  0.184599216E+00
     4
 # iter = 26500  time[fs]=26.50000
   C -0.110238800E+01 -0.452704904E-03 -0.268232807E-01
   C  0.112065364E+01 -0.182617041E-01 -0.481395651E-01
   H -0.618630046E+01  0.146835452E+00 -0.411270852E+00
   H  0.621810520E+01 -0.416818563E+00  0.198052796E+00
     4
 # iter = 27000  time[fs]=27.00000
   C -0.115479488E+01 -0.384549225E-03 -0.251890856E-01
   C  0.117177928E+01 -0.175411896E-01 -0.492248666E-01
   H -0.653480164E+01  0.156090041E+00 -0.431810304E+00
   H  0.654920430E+01 -0.439246808E+00  0.211687528E+00
     4
 # iter = 27500  time[fs]=27.50000
   C -0.120952974E+01 -0.298585499E-03 -0.235154227E-01
   C  0.122525544E+01 -0.168258982E-01 -0.503400326E-01
   H -0.688744679E+01  0.165461096E+00 -0.452628515E+00
   H  0.688417686E+01 -0.461942540E+00  0.225485781E+00
     4
 # iter = 28000  time[fs]=28.00000
   C -0.126639310E+01 -0.197631049E-03 -0.218044363E-01
   C  0.128087886E+01 -0.161141489E-01 -0.514840025E-01
   H -0.724381812E+01  0.174937089E+00 -0.473697210E+00
   H  0.722265066E+01 -0.484880592E+00  0.239432282E+00
     4
 # iter = 28500  time[fs]=28.50000
   C -0.132520309E+01 -0.840564664E-04 -0.200582161E-01
   C  0.133846458E+01 -0.154045668E-01 -0.526556023E-01
   H -0.760355533E+01  0.184508062E+00 -0.494992101E+00
   H  0.756430216E+01 -0.508039059E+00  0.253513732E+00
     4
 # iter = 29000  time[fs]=29.00000
   C -0.138579457E+01  0.401473127E-04 -0.182787796E-01
   C  0.139784500E+01 -0.146960373E-01 -0.538535942E-01
   H -0.796634591E+01  0.194165365E+00 -0.516492189E+00
   H  0.790884866E+01 -0.531398777E+00  0.267718488E+00
     4
 # iter = 29500  time[fs]=29.50000
   C -0.144801814E+01  0.173309508E-03 -0.164680584E-01
   C  0.145886866E+01 -0.139876643E-01 -0.550767151E-01
   H -0.833191731E+01  0.203901444E+00 -0.538179205E+00
   H  0.825604198E+01 -0.554942894E+00  0.282036305E+00
     4
 # iter = 30000  time[fs]=30.00000
   C -0.151173884E+01  0.314027909E-03 -0.146278894E-01
   C  0.152139895E+01 -0.132787333E-01 -0.563237057E-01
   H -0.870003063E+01  0.213709666E+00 -0.560037165E+00
   H  0.860566328E+01 -0.578656522E+00  0.296458128E+00
     4
 # iter = 30500  time[fs]=30.50000
   C -0.157683490E+01  0.461124856E-03 -0.127600097E-01
   C  0.158531272E+01 -0.125686797E-01 -0.575933307E-01
   H -0.907047543E+01  0.223584178E+00 -0.582052012E+00
   H  0.895751872E+01 -0.602526456E+00  0.310975922E+00
     4
 # iter = 31000  time[fs]=31.00000
   C -0.164319649E+01  0.613610097E-03 -0.108660541E-01
   C  0.165049898E+01 -0.118570615E-01 -0.588843935E-01
   H -0.944306554E+01  0.233519797E+00 -0.604211321E+00
   H  0.931143595E+01 -0.626540931E+00  0.325582521E+00
     4
 # iter = 31500  time[fs]=31.50000
   C -0.171072454E+01  0.770649668E-03 -0.894755640E-02
   C  0.171685769E+01 -0.111435368E-01 -0.601957455E-01
   H -0.981763556E+01  0.243511908E+00 -0.626504062E+00
   H  0.966726113E+01 -0.650689428E+00  0.340271516E+00
     4
 # iter = 32000  time[fs]=32.00000
   C -0.177932961E+01  0.931539969E-03 -0.700595136E-02
   C  0.178429861E+01 -0.104278452E-01 -0.615262918E-01
   H -0.101940379E+02  0.253556390E+00 -0.648920398E+00
   H  0.100248564E+02 -0.674962507E+00  0.355037151E+00
     4
 # iter = 32500  time[fs]=32.50000
   C -0.184893090E+01  0.109568622E-02 -0.504257847E-02
   C  0.185274023E+01 -0.970979241E-02 -0.628749945E-01
   H -0.105721405E+02  0.263649544E+00 -0.671451525E+00
   H  0.103840980E+02 -0.699351664E+00  0.369874241E+00
     4
 # iter = 33000  time[fs]=33.00000
   C -0.191945530E+01  0.126258461E-02 -0.305868650E-02
   C  0.192210889E+01 -0.898923740E-02 -0.642408733E-01
   H -0.109518246E+02  0.273788046E+00 -0.694089534E+00
   H  0.107448740E+02 -0.723849221E+00  0.384778096E+00
     4
 # iter = 33500  time[fs]=33.50000
   C -0.199083661E+01  0.143180747E-02 -0.105543847E-02
   C  0.199233789E+01 -0.826608218E-02 -0.656230055E-01
   H -0.113329831E+02  0.283968890E+00 -0.716827290E+00
   H  0.111070836E+02 -0.748448217E+00  0.399744466E+00
     4
 # iter = 34000  time[fs]=34.00000
   C -0.206301478E+01  0.160299102E-02  0.966083022E-03
   C  0.206336672E+01 -0.754026335E-02 -0.670205241E-01
   H -0.117155194E+02  0.294189358E+00 -0.739658343E+00
   H  0.114706349E+02 -0.773142328E+00  0.414769487E+00
     4
 # iter = 34500  time[fs]=34.50000
   C -0.213593524E+01  0.177582519E-02  0.300487060E-02
   C  0.213514048E+01 -0.681174519E-02 -0.684326158E-01
   H -0.120993455E+02  0.304446976E+00 -0.762576836E+00
   H  0.118354446E+02 -0.797925789E+00  0.429849634E+00
     4
 # iter = 35000  time[fs]=35.00000
   C -0.220954832E+01  0.195004515E-02  0.505998685E-02
   C  0.220760917E+01 -0.608051410E-02 -0.698585188E-01
   H -0.124843817E+02  0.314739496E+00 -0.785577444E+00
   H  0.122014366E+02 -0.822793336E+00  0.444981686E+00
     4
 # iter = 35500  time[fs]=35.50000
   C -0.228380877E+01  0.212542429E-02  0.713055929E-02
   C  0.228072725E+01 -0.534657402E-02 -0.712975198E-01
   H -0.128705550E+02  0.325064860E+00 -0.808655302E+00
   H  0.125685414E+02 -0.847740146E+00  0.460162692E+00
     4
 # iter = 36000  time[fs]=36.00000
   C -0.235867525E+01  0.230176835E-02  0.921577559E-02
   C  0.235445316E+01 -0.460994274E-02 -0.727489512E-01
   H -0.132577990E+02  0.335421186E+00 -0.831805965E+00
   H  0.129366952E+02 -0.872761791E+00  0.475389939E+00
     4
 # iter = 36500  time[fs]=36.50000
   C -0.243410994E+01  0.247891052E-02  0.113148791E-01
   C  0.242874888E+01 -0.387064889E-02 -0.742121883E-01
   H -0.136460525E+02  0.345806747E+00 -0.855025352E+00
   H  0.133058396E+02 -0.897854198E+00  0.490660933E+00
     4
 # iter = 37000  time[fs]=37.00000
   C -0.251007821E+01  0.265670731E-02  0.134271644E-01
   C  0.250357958E+01 -0.312872950E-02 -0.756866465E-01
   H -0.140352595E+02  0.356219953E+00 -0.878309712E+00
   H  0.136759205E+02 -0.923013613E+00  0.505973372E+00
     4
 # iter = 37500  time[fs]=37.50000
   C -0.258654825E+01  0.283503518E-02  0.155519737E-01
   C  0.257891330E+01 -0.238422802E-02 -0.771717784E-01
   H -0.144253684E+02  0.366659340E+00 -0.901655592E+00
   H  0.140468883E+02 -0.948236566E+00  0.521325127E+00
     4
 # iter = 38000  time[fs]=38.00000
   C -0.266349083E+01  0.301378756E-02  0.176886928E-01
   C  0.265472067E+01 -0.163719272E-02 -0.786670716E-01
   H -0.148163315E+02  0.377123553E+00 -0.925059801E+00
   H  0.144186971E+02 -0.973519847E+00  0.536714228E+00
     4
 # iter = 38500  time[fs]=38.50000
   C -0.274087903E+01  0.319287248E-02  0.198367483E-01
   C  0.273097464E+01 -0.887675370E-03 -0.801720459E-01
   H -0.152081049E+02  0.387611341E+00 -0.948519389E+00
   H  0.147913042E+02 -0.998860477E+00  0.552138847E+00
     4
 # iter = 39000  time[fs]=39.00000
   C -0.281868803E+01  0.337221044E-02  0.219956035E-01
   C  0.280765029E+01 -0.135730221E-03 -0.816862514E-01
   H -0.156006477E+02  0.398121543E+00 -0.972031620E+00
   H  0.151646703E+02 -0.102425569E+01  0.567597285E+00
     4
 # iter = 39500  time[fs]=39.50000
   C -0.289689487E+01  0.355173273E-02  0.241647566E-01
   C  0.288472457E+01  0.618586879E-03 -0.832092658E-01
   H -0.159939221E+02  0.408653079E+00 -0.995593956E+00
   H  0.155387587E+02 -0.104970291E+01  0.583087960E+00
     4
 # iter = 40000  time[fs]=40.00000
   C -0.297547836E+01  0.373137988E-02  0.263437375E-01
   C  0.296217618E+01  0.137521915E-02 -0.847406930E-01
   H -0.163878931E+02  0.419204946E+00 -0.101920403E+01
   H  0.159135352E+02 -0.107519975E+01  0.598609398E+00
     4
 # iter = 40500  time[fs]=40.50000
   C -0.305441880E+01  0.391110044E-02  0.285321053E-01
   C  0.303998537E+01  0.213410941E-02 -0.862801609E-01
   H -0.167825278E+02  0.429776208E+00 -0.104285965E+01
   H  0.162889681E+02 -0.110074395E+01  0.614160222E+00
     4
 # iter = 41000  time[fs]=41.00000
   C -0.313369796E+01  0.409084987E-02  0.307294464E-01
   C  0.311813383E+01  0.289520057E-02 -0.878273195E-01
   H -0.171777958E+02  0.440365993E+00 -0.106655876E+01
   H  0.166650276E+02 -0.112633344E+01  0.629739144E+00
     4
 # iter = 41500  time[fs]=41.50000
   C -0.321329888E+01  0.427058965E-02  0.329353724E-01
   C  0.319660453E+01  0.365843590E-02 -0.893818398E-01
   H -0.175736686E+02  0.450973484E+00 -0.109029944E+01
   H  0.170416861E+02 -0.115196625E+01  0.645344957E+00
     4
 # iter = 42000  time[fs]=42.00000
   C -0.329320577E+01  0.445028645E-02  0.351495180E-01
   C  0.327538164E+01  0.442375937E-02 -0.909434121E-01
   H -0.179701195E+02  0.461597918E+00 -0.111407989E+01
   H  0.174189174E+02 -0.117764054E+01  0.660976532E+00
     4
 # iter = 42500  time[fs]=42.50000
   C -0.337340392E+01  0.462991149E-02  0.373715396E-01
   C  0.335445041E+01  0.519111581E-02 -0.925117444E-01
   H -0.183671236E+02  0.472238578E+00 -0.113789843E+01
   H  0.177966972E+02 -0.120335459E+01  0.676632806E+00
     4
 # iter = 43000  time[fs]=43.00000
   C -0.345387961E+01  0.480943992E-02  0.396011136E-01
   C  0.343379705E+01  0.596045110E-02 -0.940865616E-01
   H -0.187646575E+02  0.482894791E+00 -0.116175349E+01
   H  0.181750028E+02 -0.122910679E+01  0.692312781E+00
     4
 # iter = 43500  time[fs]=43.50000
   C -0.353462001E+01  0.498885031E-02  0.418379350E-01
   C  0.351340872E+01  0.673171231E-02 -0.956676040E-01
   H -0.191626993E+02  0.493565927E+00 -0.118564356E+01
   H  0.185538125E+02 -0.125489559E+01  0.708015517E+00
     4
 # iter = 44000  time[fs]=44.00000
   C -0.361561314E+01  0.516812428E-02  0.440817157E-01
   C  0.359327339E+01  0.750484774E-02 -0.972546262E-01
   H -0.195612283E+02  0.504251391E+00 -0.120956727E+01
   H  0.189331061E+02 -0.128071959E+01  0.723740128E+00
     4
 # iter = 44500  time[fs]=44.50000
   C -0.369684775E+01  0.534724603E-02  0.463321842E-01
   C  0.367337978E+01  0.827980701E-02 -0.988473966E-01
   H -0.199602251E+02  0.514950622E+00 -0.123352330E+01
   H  0.193128647E+02 -0.130657740E+01  0.739485780E+00
     4
 # iter = 45000  time[fs]=45.00000
   C -0.377831331E+01  0.552620208E-02  0.485890835E-01
   C  0.375371733E+01  0.905654112E-02 -0.100445696E+00
   H -0.203596714E+02  0.525663093E+00 -0.125751040E+01
   H  0.196930702E+02 -0.133246777E+01  0.755251683E+00
     4
 # iter = 45500  time[fs]=45.50000
   C -0.385999994E+01  0.570498094E-02  0.508521706E-01
   C  0.383427614E+01  0.983500244E-02 -0.102049316E+00
   H -0.207595500E+02  0.536388304E+00 -0.128152740E+01
   H  0.200737057E+02 -0.135838948E+01  0.771037091E+00
     4
 # iter = 46000  time[fs]=46.00000
   C -0.394189834E+01  0.588357292E-02  0.531212155E-01
   C  0.391504688E+01  0.106151447E-01 -0.103658061E+00
   H -0.211598444E+02  0.547125785E+00 -0.130557321E+01
   H  0.204547551E+02 -0.138434139E+01  0.786841298E+00
     4
 # iter = 46500  time[fs]=46.50000
   C -0.402399976E+01  0.606196983E-02  0.553960004E-01
   C  0.399602079E+01  0.113969231E-01 -0.105271745E+00
   H -0.215605394E+02  0.557875090E+00 -0.132964676E+01
   H  0.208362033E+02 -0.141032241E+01  0.802663637E+00
     4
 # iter = 47000  time[fs]=47.00000
   C -0.410629598E+01  0.624016486E-02  0.576763185E-01
   C  0.407718962E+01  0.121802942E-01 -0.106890189E+00
   H -0.219616203E+02  0.568635796E+00 -0.135374707E+01
   H  0.212180360E+02 -0.143633152E+01  0.818503473E+00
     4
 # iter = 47500  time[fs]=47.50000
   C -0.418877923E+01  0.641815241E-02  0.599619738E-01
   C  0.415854559E+01  0.129652158E-01 -0.108513228E+00
   H -0.223630733E+02  0.579407504E+00 -0.137787321E+01
   H  0.216002395E+02 -0.146236776E+01  0.834360204E+00
     4
 # iter = 48000  time[fs]=48.00000
   C -0.427144219E+01  0.659592789E-02  0.622527801E-01
   C  0.424008135E+01  0.137516473E-01 -0.110140700E+00
   H -0.227648854E+02  0.590189833E+00 -0.140202427E+01
   H  0.219828010E+02 -0.148843018E+01  0.850233259E+00
     4
 # iter = 48500  time[fs]=48.50000
   C -0.435427793E+01  0.677348766E-02  0.645485604E-01
   C  0.432178998E+01  0.145395490E-01 -0.111772454E+00
   H -0.231670440E+02  0.600982423E+00 -0.142619942E+01
   H  0.223657081E+02 -0.151451793E+01  0.866122096E+00
     4
 # iter = 49000  time[fs]=49.00000
   C -0.443727992E+01  0.695082887E-02  0.668491465E-01
   C  0.440366493E+01  0.153288829E-01 -0.113408346E+00
   H -0.235695375E+02  0.611784932E+00 -0.145039784E+01
   H  0.227489493E+02 -0.154063015E+01  0.882026196E+00
     4
 # iter = 49500  time[fs]=49.50000
   C -0.452044197E+01  0.712794940E-02  0.691543781E-01
   C  0.448569998E+01  0.161196120E-01 -0.115048238E+00
   H -0.239723547E+02  0.622597032E+00 -0.147461878E+01
   H  0.231325134E+02 -0.156676606E+01  0.897945069E+00
     4
 # iter = 50000  time[fs]=50.00000
   C -0.460375821E+01  0.730484772E-02  0.714641028E-01
   C  0.456788927E+01  0.169117007E-01 -0.116692000E+00
   H -0.243754847E+02  0.633418415E+00 -0.149886151E+01
   H  0.235163899E+02 -0.159292490E+01  0.913878245E+00
     4
 # iter = 50500  time[fs]=50.50000
   C -0.468722309E+01  0.748152288E-02  0.737781751E-01
   C  0.465022723E+01  0.177051143E-01 -0.118339506E+00
   H -0.247789176E+02  0.644248784E+00 -0.152312533E+01
   H  0.239005689E+02 -0.161910595E+01  0.929825278E+00
     4
 # iter = 51000  time[fs]=51.00000
   C -0.477083133E+01  0.765797441E-02  0.760964564E-01
   C  0.473270859E+01  0.184998194E-01 -0.119990638E+00
   H -0.251826436E+02  0.655087858E+00 -0.154740958E+01
   H  0.242850406E+02 -0.164530852E+01  0.945785740E+00
     4
 # iter = 51500  time[fs]=51.50000
   C -0.485457794E+01  0.783420224E-02  0.784188145E-01
   C  0.481532832E+01  0.192957838E-01 -0.121645282E+00
   H -0.255866534E+02  0.665935367E+00 -0.157171363E+01
   H  0.246697961E+02 -0.167153195E+01  0.961759225E+00
     4
 # iter = 52000  time[fs]=52.00000
   C -0.493845815E+01  0.801020668E-02  0.807451229E-01
   C  0.489808167E+01  0.200929762E-01 -0.123303329E+00
   H -0.259909385E+02  0.676791055E+00 -0.159603688E+01
   H  0.250548265E+02 -0.169777561E+01  0.977745343E+00
     4
 # iter = 52500  time[fs]=52.50000
   C -0.502246744E+01  0.818598837E-02  0.830752611E-01
   C  0.498096411E+01  0.208913663E-01 -0.124964676E+00
   H -0.263954902E+02  0.687654677E+00 -0.162037875E+01
   H  0.254401236E+02 -0.172403891E+01  0.993743722E+00
     4
 # iter = 53000  time[fs]=53.00000
   C -0.510660151E+01  0.836154822E-02  0.854091135E-01
   C  0.506397132E+01  0.216909251E-01 -0.126629223E+00
   H -0.268003006E+02  0.698525998E+00 -0.164473870E+01
   H  0.258256794E+02 -0.175032127E+01  0.100975401E+01
     4
 # iter = 53500  time[fs]=53.50000
   C -0.519085627E+01  0.853688740E-02  0.877465698E-01
   C  0.514709921E+01  0.224916241E-01 -0.128296875E+00
   H -0.272053620E+02  0.709404794E+00 -0.166911619E+01
   H  0.262114863E+02 -0.177662214E+01  0.102577585E+01
     4
 # iter = 54000  time[fs]=54.00000
   C -0.527522780E+01  0.871200728E-02  0.900875243E-01
   C  0.523034386E+01  0.232934361E-01 -0.129967541E+00
   H -0.276106671E+02  0.720290850E+00 -0.169351073E+01
   H  0.265975371E+02 -0.180294099E+01  0.104180894E+01
     4
 # iter = 54500  time[fs]=54.50000
   C -0.535971237E+01  0.888690941E-02  0.924318758E-01
   C  0.531370155E+01  0.240963346E-01 -0.131641135E+00
   H -0.280162089E+02  0.731183961E+00 -0.171792183E+01
   H  0.269838247E+02 -0.182927733E+01  0.105785295E+01
     4
 # iter = 55000  time[fs]=55.00000
   C -0.544430645E+01  0.906159552E-02  0.947795273E-01
   C  0.539716871E+01  0.249002940E-01 -0.133317573E+00
   H -0.284219806E+02  0.742083928E+00 -0.174234902E+01
   H  0.273703424E+02 -0.185563066E+01  0.107390758E+01
     4
 # iter = 55500  time[fs]=55.50000
   C -0.552900663E+01  0.923606746E-02  0.971303859E-01
   C  0.548074195E+01  0.257052896E-01 -0.134996775E+00
   H -0.288279757E+02  0.752990564E+00 -0.176679187E+01
   H  0.277570839E+02 -0.188200052E+01  0.108997255E+01
     4
 # iter = 56000  time[fs]=56.00000
   C -0.561380966E+01  0.941032720E-02  0.994843624E-01
   C  0.556441802E+01  0.265112973E-01 -0.136678663E+00
   H -0.292341882E+02  0.763903687E+00 -0.179124995E+01
   H  0.281440431E+02 -0.190838646E+01  0.110604758E+01
     4
 # iter = 56500  time[fs]=56.50000
   C -0.569871246E+01  0.958437681E-02  0.101841371E+00
   C  0.564819382E+01  0.273182939E-01 -0.138363165E+00
   H -0.296406120E+02  0.774823122E+00 -0.181572285E+01
   H  0.285312139E+02 -0.193478807E+01  0.112213240E+01
     4
 # iter = 57000  time[fs]=57.00000
   C -0.578371204E+01  0.975821845E-02  0.104201330E+00
   C  0.573206638E+01  0.281262571E-01 -0.140050209E+00
   H -0.300472415E+02  0.785748703E+00 -0.184021018E+01
   H  0.289185908E+02 -0.196120492E+01  0.113822676E+01
     4
 # iter = 57500  time[fs]=57.50000
   C -0.586880558E+01  0.993185435E-02  0.106564160E+00
   C  0.581603285E+01  0.289351649E-01 -0.141739728E+00
   H -0.304540712E+02  0.796680268E+00 -0.186471156E+01
   H  0.293061683E+02 -0.198763663E+01  0.115433041E+01
     4
 # iter = 58000  time[fs]=58.00000
   C -0.595399036E+01  0.101052868E-01  0.108929785E+00
   C  0.590009053E+01  0.297449964E-01 -0.143431656E+00
   H -0.308610958E+02  0.807617663E+00 -0.188922662E+01
   H  0.296939413E+02 -0.201408280E+01  0.117044311E+01
     4
 # iter = 58500  time[fs]=58.50000
   C -0.603926376E+01  0.102785181E-01  0.111298132E+00
   C  0.598423679E+01  0.305557310E-01 -0.145125930E+00
   H -0.312683103E+02  0.818560740E+00 -0.191375503E+01
   H  0.300819045E+02 -0.204054308E+01  0.118656464E+01
     4
 # iter = 59000  time[fs]=59.00000
   C -0.612462329E+01  0.104515506E-01  0.113669131E+00
   C  0.606846915E+01  0.313673491E-01 -0.146822490E+00
   H -0.316757099E+02  0.829509354E+00 -0.193829644E+01
   H  0.304700533E+02 -0.206701712E+01  0.120269479E+01
     4
 # iter = 59500  time[fs]=59.50000
   C -0.621006655E+01  0.106243867E-01  0.116042714E+00
   C  0.615278519E+01  0.321798313E-01 -0.148521277E+00
   H -0.320832897E+02  0.840463369E+00 -0.196285053E+01
   H  0.308583829E+02 -0.209350457E+01  0.121883333E+01
     4
 # iter = 60000  time[fs]=60.00000
   C -0.629559125E+01  0.107970289E-01  0.118418817E+00
   C  0.623718262E+01  0.329931591E-01 -0.150222235E+00
   H -0.324910454E+02  0.851422652E+00 -0.198741699E+01
   H  0.312468889E+02 -0.212000511E+01  0.123498006E+01
     4
 # iter = 60500  time[fs]=60.50000
   C -0.638119517E+01  0.109694795E-01  0.120797376E+00
   C  0.632165922E+01  0.338073145E-01 -0.151925311E+00
   H -0.328989726E+02  0.862387074E+00 -0.201199552E+01
   H  0.316355670E+02 -0.214651841E+01  0.125113479E+01
     4
 # iter = 61000  time[fs]=61.00000
   C -0.646687618E+01  0.111417409E-01  0.123178332E+00
   C  0.640621289E+01  0.346222799E-01 -0.153630452E+00
   H -0.333070672E+02  0.873356512E+00 -0.203658583E+01
   H  0.320244129E+02 -0.217304419E+01  0.126729733E+01
     4
 # iter = 61500  time[fs]=61.50000
   C -0.655263226E+01  0.113138157E-01  0.125561625E+00
   C  0.649084156E+01  0.354380384E-01 -0.155337608E+00
   H -0.337153250E+02  0.884330847E+00 -0.206118764E+01
   H  0.324134226E+02 -0.219958214E+01  0.128346750E+01
     4
 # iter = 62000  time[fs]=62.00000
   C -0.663846143E+01  0.114857063E-01  0.127947199E+00
   C  0.657554328E+01  0.362545735E-01 -0.157046730E+00
   H -0.341237421E+02  0.895309965E+00 -0.208580068E+01
   H  0.328025923E+02 -0.222613198E+01  0.129964511E+01
     4
 # iter = 62500  time[fs]=62.50000
   C -0.672436181E+01  0.116574150E-01  0.130335001E+00
   C  0.666031616E+01  0.370718693E-01 -0.158757772E+00
   H -0.345323149E+02  0.906293754E+00 -0.211042469E+01
   H  0.331919182E+02 -0.225269344E+01  0.131583001E+01
     4
 # iter = 63000  time[fs]=63.00000
   C -0.681033158E+01  0.118289443E-01  0.132724978E+00
   C  0.674515838E+01  0.378899101E-01 -0.160470688E+00
   H -0.349410398E+02  0.917282106E+00 -0.213505942E+01
   H  0.335813968E+02 -0.227926625E+01  0.133202201E+01
     4
 # iter = 63500  time[fs]=63.50000
   C -0.689636899E+01  0.120002966E-01  0.135117079E+00
   C  0.683006818E+01  0.387086810E-01 -0.162185435E+00
   H -0.353499131E+02  0.928274920E+00 -0.215970463E+01
   H  0.339710244E+02 -0.230585015E+01  0.134822098E+01
     4
 # iter = 64000  time[fs]=64.00000
   C -0.698247235E+01  0.121714742E-01  0.137511256E+00
   C  0.691504390E+01  0.395281673E-01 -0.163901971E+00
   H -0.357589316E+02  0.939272094E+00 -0.218436007E+01
   H  0.343607978E+02 -0.233244491E+01  0.136442674E+01
     4
 # iter = 64500  time[fs]=64.50000
   C -0.706864005E+01  0.123424796E-01  0.139907461E+00
   C  0.700008389E+01  0.403483547E-01 -0.165620255E+00
   H -0.361680919E+02  0.950273532E+00 -0.220902554E+01
   H  0.347507136E+02 -0.235905027E+01  0.138063915E+01
     4
 # iter = 65000  time[fs]=65.00000
   C -0.715487050E+01  0.125133150E-01  0.142305648E+00
   C  0.708518658E+01  0.411692296E-01 -0.167340248E+00
   H -0.365773909E+02  0.961279141E+00 -0.223370079E+01
   H  0.351407687E+02 -0.238566602E+01  0.139685808E+01
     4
 # iter = 65500  time[fs]=65.50000
   C -0.724116220E+01  0.126839828E-01  0.144705774E+00
   C  0.717035048E+01  0.419907783E-01 -0.169061911E+00
   H -0.369868255E+02  0.972288829E+00 -0.225838564E+01
   H  0.355309602E+02 -0.241229192E+01  0.141308337E+01
     4
 # iter = 66000  time[fs]=66.00000
   C -0.732751369E+01  0.128544853E-01  0.147107796E+00
   C  0.725557411E+01  0.428129880E-01 -0.170785208E+00
   H -0.373963928E+02  0.983302510E+00 -0.228307985E+01
   H  0.359212849E+02 -0.243892776E+01  0.142931490E+01
     4
 # iter = 66500  time[fs]=66.50000
   C -0.741392355E+01  0.130248248E-01  0.149511672E+00
   C  0.734085607E+01  0.436358459E-01 -0.172510103E+00
   H -0.378060900E+02  0.994320097E+00 -0.230778325E+01
   H  0.363117400E+02 -0.246557334E+01  0.144555252E+01
     4
 # iter = 67000  time[fs]=67.00000
   C -0.750039044E+01  0.131950035E-01  0.151917363E+00
   C  0.742619500E+01  0.444593397E-01 -0.174236562E+00
   H -0.382159142E+02  0.100534151E+01 -0.233249563E+01
   H  0.367023228E+02 -0.249222843E+01  0.146179613E+01
     4
 # iter = 67500  time[fs]=67.50000
   C -0.758691304E+01  0.133650236E-01  0.154324829E+00
   C  0.751158958E+01  0.452834573E-01 -0.175964551E+00
   H -0.386258628E+02  0.101636667E+01 -0.235721681E+01
   H  0.370930307E+02 -0.251889286E+01  0.147804558E+01
     4
 # iter = 68000  time[fs]=68.00000
   C -0.767349007E+01  0.135348872E-01  0.156734033E+00
   C  0.759703855E+01  0.461081872E-01 -0.177694038E+00
   H -0.390359331E+02  0.102739549E+01 -0.238194661E+01
   H  0.374838609E+02 -0.254556642E+01  0.149430077E+01
     4
 # iter = 68500  time[fs]=68.50000
   C -0.776012031E+01  0.137045967E-01  0.159144939E+00
   C  0.768254067E+01  0.469335179E-01 -0.179424991E+00
   H -0.394461226E+02  0.103842791E+01 -0.240668485E+01
   H  0.378748109E+02 -0.257224894E+01  0.151056158E+01
     4
 # iter = 69000  time[fs]=69.00000
   C -0.784680256E+01  0.138741540E-01  0.161557512E+00
   C  0.776809476E+01  0.477594384E-01 -0.181157380E+00
   H -0.398564290E+02  0.104946385E+01 -0.243143136E+01
   H  0.382658784E+02 -0.259894023E+01  0.152682789E+01
     4
 # iter = 69500  time[fs]=69.50000
   C -0.793353569E+01  0.140435613E-01  0.163971717E+00
   C  0.785369966E+01  0.485859379E-01 -0.182891175E+00
   H -0.402668498E+02  0.106050325E+01 -0.245618598E+01
   H  0.386570610E+02 -0.262564011E+01  0.154309960E+01
     4
 # iter = 70000  time[fs]=70.00000
   C -0.802031858E+01  0.142128206E-01  0.166387520E+00
   C  0.793935427E+01  0.494130060E-01 -0.184626348E+00
   H -0.406773827E+02  0.107154602E+01 -0.248094854E+01
   H  0.390483562E+02 -0.265234843E+01  0.155937660E+01
     4
 # iter = 70500  time[fs]=70.50000
   C -0.810715014E+01  0.143819341E-01  0.168804891E+00
   C  0.802505751E+01  0.502406324E-01 -0.186362872E+00
   H -0.410880255E+02  0.108259211E+01 -0.250571889E+01
   H  0.394397621E+02 -0.267906501E+01  0.157565879E+01
     4
 # iter = 71000  time[fs]=71.00000
   C -0.819402934E+01  0.145509036E-01  0.171223797E+00
   C  0.811080834E+01  0.510688072E-01 -0.188100718E+00
   H -0.414987761E+02  0.109364145E+01 -0.253049688E+01
   H  0.398312762E+02 -0.270578970E+01  0.159194607E+01
     4
 # iter = 71500  time[fs]=71.50000
   C -0.828095517E+01  0.147197312E-01  0.173644209E+00
   C  0.819660574E+01  0.518975208E-01 -0.189839861E+00
   H -0.419096323E+02  0.110469397E+01 -0.255528236E+01
   H  0.402228966E+02 -0.273252233E+01  0.160823833E+01
     4
 # iter = 72000  time[fs]=72.00000
   C -0.836792665E+01  0.148884187E-01  0.176066096E+00
   C  0.828244874E+01  0.527267636E-01 -0.191580276E+00
   H -0.423205920E+02  0.111574963E+01 -0.258007520E+01
   H  0.406146212E+02 -0.275926277E+01  0.162453550E+01
     4
 # iter = 72500  time[fs]=72.50000
   C -0.845494283E+01  0.150569683E-01  0.178489431E+00
   C  0.836833639E+01  0.535565265E-01 -0.193321938E+00
   H -0.427316534E+02  0.112680836E+01 -0.260487524E+01
   H  0.410064480E+02 -0.278601086E+01  0.164083748E+01
     4
 # iter = 73000  time[fs]=73.00000
   C -0.854200279E+01  0.152253816E-01  0.180914185E+00
   C  0.845426777E+01  0.543868006E-01 -0.195064823E+00
   H -0.431428144E+02  0.113787009E+01 -0.262968236E+01
   H  0.413983751E+02 -0.281276646E+01  0.165714417E+01
     4
 # iter = 73500  time[fs]=73.50000
   C -0.862910563E+01  0.153936605E-01  0.183340331E+00
   C  0.854024198E+01  0.552175770E-01 -0.196808907E+00
   H -0.435540733E+02  0.114893478E+01 -0.265449642E+01
   H  0.417904006E+02 -0.283952943E+01  0.167345549E+01
     4
 # iter = 74000  time[fs]=74.00000
   C -0.871625049E+01  0.155618070E-01  0.185767844E+00
   C  0.862625816E+01  0.560488472E-01 -0.198554169E+00
   H -0.439654281E+02  0.116000238E+01 -0.267931730E+01
   H  0.421825227E+02 -0.286629964E+01  0.168977135E+01
     4
 # iter = 74500  time[fs]=74.50000
   C -0.880343653E+01  0.157298227E-01  0.188196698E+00
   C  0.871231547E+01  0.568806031E-01 -0.200300585E+00
   H -0.443768771E+02  0.117107282E+01 -0.270414488E+01
   H  0.425747396E+02 -0.289307695E+01  0.170609169E+01
     4
 # iter = 75000  time[fs]=75.00000
   C -0.889066293E+01  0.158977095E-01  0.190626867E+00
   C  0.879841310E+01  0.577128363E-01 -0.202048135E+00
   H -0.447884186E+02  0.118214605E+01 -0.272897902E+01
   H  0.429670495E+02 -0.291986124E+01  0.172241640E+01
     4
 # iter = 75500  time[fs]=75.50000
   C -0.897792891E+01  0.160654690E-01  0.193058328E+00
   C  0.888455024E+01  0.585455391E-01 -0.203796798E+00
   H -0.452000510E+02  0.119322204E+01 -0.275381962E+01
   H  0.433594509E+02 -0.294665239E+01  0.173874543E+01
     4
 # iter = 76000  time[fs]=76.00000
   C -0.906523368E+01  0.162331030E-01  0.195491057E+00
   C  0.897072614E+01  0.593787036E-01 -0.205546553E+00
   H -0.456117725E+02  0.120430072E+01 -0.277866657E+01
   H  0.437519420E+02 -0.297345027E+01  0.175507868E+01
     4
 # iter = 76500  time[fs]=76.50000
   C -0.915257651E+01  0.164006132E-01  0.197925032E+00
   C  0.905694004E+01  0.602123225E-01 -0.207297380E+00
   H -0.460235815E+02  0.121538205E+01 -0.280351974E+01
   H  0.441445213E+02 -0.300025476E+01  0.177141610E+01
     4
 # iter = 77000  time[fs]=77.00000
   C -0.923995666E+01  0.165680011E-01  0.200360229E+00
   C  0.914319122E+01  0.610463882E-01 -0.209049262E+00
   H -0.464354766E+02  0.122646599E+01 -0.282837903E+01
   H  0.445371872E+02 -0.302706576E+01  0.178775760E+01
     4
 # iter = 77500  time[fs]=77.50000
   C -0.932737344E+01  0.167352685E-01  0.202796629E+00
   C  0.922947898E+01  0.618808936E-01 -0.210802178E+00
   H -0.468474563E+02  0.123755249E+01 -0.285324434E+01
   H  0.449299382E+02 -0.305388315E+01  0.180410311E+01
     4
 # iter = 78000  time[fs]=78.00000
   C -0.941482614E+01  0.169024169E-01  0.205234208E+00
   C  0.931580262E+01  0.627158318E-01 -0.212556110E+00
   H -0.472595190E+02  0.124864150E+01 -0.287811556E+01
   H  0.453227728E+02 -0.308070681E+01  0.182045258E+01
     4
 # iter = 78500  time[fs]=78.50000
   C -0.950231411E+01  0.170694478E-01  0.207672947E+00
   C  0.940216147E+01  0.635511957E-01 -0.214311042E+00
   H -0.476716634E+02  0.125973299E+01 -0.290299260E+01
   H  0.457156896E+02 -0.310753665E+01  0.183680592E+01
     4
 # iter = 79000  time[fs]=79.00000
   C -0.958983670E+01  0.172363629E-01  0.210112826E+00
   C  0.948855490E+01  0.643869789E-01 -0.216066955E+00
   H -0.480838880E+02  0.127082691E+01 -0.292787534E+01
   H  0.461086873E+02 -0.313437256E+01  0.185316308E+01
     4
 # iter = 79500  time[fs]=79.50000
   C -0.967739327E+01  0.174031636E-01  0.212553825E+00
   C  0.957498226E+01  0.652231746E-01 -0.217823833E+00
   H -0.484961914E+02  0.128192321E+01 -0.295276371E+01
   H  0.465017643E+02 -0.316121444E+01  0.186952400E+01
     4
 # iter = 80000  time[fs]=80.00000
   C -0.976498320E+01  0.175698515E-01  0.214995925E+00
   C  0.966144294E+01  0.660597765E-01 -0.219581659E+00
   H -0.489085725E+02  0.129302187E+01 -0.297765760E+01
   H  0.468949195E+02 -0.318806219E+01  0.188588861E+01
