     4
 # iter = 25000  time[fs]=25.00000
   C -0.992321993E+00  0.437066125E-02 -0.107689227E-01
   C  0.103473481E+01  0.983565439E-02  0.193851720E-01
   H -0.527427852E+01 -0.590576515E+00 -0.565834553E+00
   H  0.533594409E+01  0.654503464E+00  0.562733213E+00
     4
 # iter = 25500  time[fs]=25.50000
   C -0.103915057E+01  0.659410650E-02 -0.909976620E-02
   C  0.108025879E+01  0.782709674E-02  0.179847644E-01
   H -0.560530630E+01 -0.627524891E+00 -0.602233319E+00
   H  0.565680567E+01  0.695336589E+00  0.596549378E+00
     4
 # iter = 26000  time[fs]=26.00000
   C -0.108926861E+01  0.882726395E-02 -0.746226349E-02
   C  0.112907335E+01  0.580699555E-02  0.166167453E-01
   H -0.593893552E+01 -0.664795706E+00 -0.638935695E+00
   H  0.598025546E+01  0.736514129E+00  0.630660337E+00
     4
 # iter = 26500  time[fs]=26.50000
   C -0.114239231E+01  0.110748669E-01 -0.584806939E-02
   C  0.118089394E+01  0.377068297E-02  0.152726449E-01
   H -0.627487817E+01 -0.702353023E+00 -0.675908339E+00
   H  0.630601412E+01  0.777999361E+00  0.665034242E+00
     4
 # iter = 27000  time[fs]=27.00000
   C -0.119825822E+01  0.133403929E-01 -0.425038065E-02
   C  0.123545660E+01  0.171475676E-02  0.139455615E-01
   H -0.661289088E+01 -0.740166615E+00 -0.713123122E+00
   H  0.663384449E+01  0.819761156E+00  0.699644146E+00
     4
 # iter = 27500  time[fs]=27.50000
   C -0.125662433E+01  0.156262825E-01 -0.266371764E-02
   C  0.129251896E+01 -0.363144571E-03  0.126299366E-01
   H -0.695276623E+01 -0.778210816E+00 -0.750556096E+00
   H  0.696354360E+01  0.861772899E+00  0.734467049E+00
     4
 # iter = 28000  time[fs]=28.00000
   C -0.131727005E+01  0.179341432E-01 -0.108371221E-02
   C  0.135186014E+01 -0.246454874E-02  0.113213379E-01
   H -0.729432607E+01 -0.816463649E+00 -0.788186705E+00
   H  0.729493650E+01  0.904011653E+00  0.769483164E+00
     4
 # iter = 28500  time[fs]=28.50000
   C -0.137999535E+01  0.202649275E-01  0.493085530E-03
   C  0.141327995E+01 -0.459033011E-02  0.100162632E-01
   H -0.763741631E+01 -0.854906145E+00 -0.825997176E+00
   H  0.762787137E+01  0.946457515E+00  0.804675345E+00
     4
 # iter = 29000  time[fs]=29.00000
   C -0.144461960E+01  0.226190830E-01  0.206937589E-02
   C  0.147659760E+01 -0.674086101E-02  0.871196891E-02
   H -0.798190281E+01 -0.893521823E+00 -0.863972034E+00
   H  0.796221565E+01  0.989093097E+00  0.840028635E+00
     4
 # iter = 29500  time[fs]=29.50000
   C -0.151098002E+01  0.249966757E-01  0.364725286E-02
   C  0.154165025E+01 -0.891613551E-02  0.740632510E-02
   H -0.832766812E+01 -0.932296267E+00 -0.902097723E+00
   H  0.829785294E+01  0.103190312E+01  0.875529911E+00
     4
 # iter = 30000  time[fs]=30.00000
   C -0.157893018E+01  0.273974883E-01  0.522832342E-02
   C  0.160829140E+01 -0.111158683E-01  0.609769454E-02
   H -0.867460885E+01 -0.971216797E+00 -0.940362302E+00
   H  0.863468052E+01  0.107487410E+01  0.911167597E+00
     4
 # iter = 30500  time[fs]=30.50000
   C -0.164833841E+01  0.298210982E-01  0.681380542E-02
   C  0.167638935E+01 -0.133395730E-01  0.478483383E-02
   H -0.902263351E+01 -0.101027220E+01 -0.978755199E+00
   H  0.897260729E+01  0.111799404E+01  0.946931424E+00
     4
 # iter = 31000  time[fs]=31.00000
   C -0.171908633E+01  0.322669385E-01  0.840460720E-02
   C  0.174582569E+01 -0.155866221E-01  0.346681293E-02
   H -0.937166078E+01 -0.104945251E+01 -0.101726701E+01
   H  0.931155212E+01  0.116125226E+01  0.982812247E+00
     4
 # iter = 31500  time[fs]=31.50000
   C -0.179106742E+01  0.347343442E-01  0.100013918E-01
   C  0.181649392E+01 -0.178562946E-01  0.214295024E-02
   H -0.972161807E+01 -0.108874884E+01 -0.105588932E+01
   H  0.965144243E+01  0.120463919E+01  0.101880188E+01
     4
 # iter = 32000  time[fs]=32.00000
   C -0.186418578E+01  0.372225883E-01  0.116046286E-01
   C  0.188829815E+01 -0.201478104E-01  0.812760508E-03
   H -0.100724403E+02 -0.112815321E+01 -0.109461459E+01
   H  0.999221304E+01  0.124814621E+01  0.105489298E+01
     4
 # iter = 32500  time[fs]=32.50000
   C -0.193835497E+01  0.397309082E-01  0.132146342E-01
   C  0.196115193E+01 -0.224603576E-01 -0.524086851E-03
   H -0.104240690E+02 -0.116765844E+01 -0.113343603E+01
   H  0.103338052E+02  0.129176557E+01  0.109107890E+01
     4
 # iter = 33000  time[fs]=33.00000
   C -0.201349694E+01  0.422585261E-01  0.148316060E-01
   C  0.203497726E+01 -0.247931121E-01 -0.186780097E-02
   H -0.107764512E+02 -0.120725806E+01 -0.117234750E+01
   H  0.106761659E+02  0.133549023E+01  0.112735366E+01
     4
 # iter = 33500  time[fs]=33.50000
   C -0.208954113E+01  0.448046634E-01  0.164556476E-01
   C  0.210970359E+01 -0.271452523E-01 -0.321849605E-02
   H -0.111295392E+02 -0.124694618E+01 -0.121134342E+01
   H  0.110192469E+02  0.137931379E+01  0.116371181E+01
     4
 # iter = 34000  time[fs]=34.00000
   C -0.216642366E+01  0.473685517E-01  0.180867903E-01
   C  0.218526706E+01 -0.295159691E-01 -0.457621242E-02
   H -0.114832893E+02 -0.128671747E+01 -0.125041873E+01
   H  0.113630044E+02  0.142323042E+01  0.120014839E+01
     4
 # iter = 34500  time[fs]=34.50000
   C -0.224408654E+01  0.499494401E-01  0.197250093E-01
   C  0.226160973E+01 -0.319044737E-01 -0.594093326E-02
   H -0.118376621E+02 -0.132656707E+01 -0.128956881E+01
   H  0.117073985E+02  0.146723481E+01  0.123665888E+01
     4
 # iter = 35000  time[fs]=35.00000
   C -0.232247711E+01  0.525466004E-01  0.213702369E-01
   C  0.233867896E+01 -0.343100026E-01 -0.731259796E-02
   H -0.121926214E+02 -0.136649051E+01 -0.132878942E+01
   H  0.120523925E+02  0.151132208E+01  0.127323912E+01
     4
 # iter = 35500  time[fs]=35.50000
   C -0.240154740E+01  0.551593308E-01  0.230223729E-01
   C  0.241642681E+01 -0.367318205E-01 -0.869111266E-02
   H -0.125481339E+02 -0.140648372E+01 -0.136807669E+01
   H  0.123979530E+02  0.155548774E+01  0.130988532E+01
     4
 # iter = 36000  time[fs]=36.00000
   C -0.248125367E+01  0.577869575E-01  0.246812932E-01
   C  0.249480957E+01 -0.391692224E-01 -0.100763586E-01
   H -0.129041692E+02 -0.144654294E+01 -0.140742704E+01
   H  0.127440491E+02  0.159972766E+01  0.134659396E+01
     4
 # iter = 36500  time[fs]=36.50000
   C -0.256155595E+01  0.604288362E-01  0.263468558E-01
   C  0.257378731E+01 -0.416215346E-01 -0.114681989E-01
   H -0.132606993E+02 -0.148666472E+01 -0.144683719E+01
   H  0.130906524E+02  0.164403804E+01  0.138336183E+01
     4
 # iter = 37000  time[fs]=37.00000
   C -0.264241766E+01  0.630843522E-01  0.280189063E-01
   C  0.265332346E+01 -0.440881150E-01 -0.128664835E-01
   H -0.136176984E+02 -0.152684587E+01 -0.148630411E+01
   H  0.134377368E+02  0.168841537E+01  0.142018594E+01
     4
 # iter = 37500  time[fs]=37.50000
   C -0.272380523E+01  0.657529202E-01  0.296972822E-01
   C  0.273338451E+01 -0.465683522E-01 -0.142710537E-01
   H -0.139751425E+02 -0.156708343E+01 -0.152582497E+01
   H  0.137852779E+02  0.173285636E+01  0.145706353E+01
     4
 # iter = 38000  time[fs]=38.00000
   C -0.280568785E+01  0.684339840E-01  0.313818155E-01
   C  0.281393966E+01 -0.490616655E-01 -0.156817451E-01
   H -0.143330097E+02 -0.160737468E+01 -0.156539718E+01
   H  0.141332533E+02  0.177735800E+01  0.149399202E+01
     4
 # iter = 38500  time[fs]=38.50000
   C -0.288803716E+01  0.711270153E-01  0.330723358E-01
   C  0.289496059E+01 -0.515675035E-01 -0.170983905E-01
   H -0.146912792E+02 -0.164771706E+01 -0.160501831E+01
   H  0.144816422E+02  0.182191746E+01  0.153096903E+01
     4
 # iter = 39000  time[fs]=39.00000
   C -0.297082702E+01  0.738315128E-01  0.347686718E-01
   C  0.297642118E+01 -0.540853434E-01 -0.185208214E-01
   H -0.150499322E+02 -0.168810822E+01 -0.164468611E+01
   H  0.148304251E+02  0.186653213E+01  0.156799236E+01
     4
 # iter = 39500  time[fs]=39.50000
   C -0.305403330E+01  0.765470012E-01  0.364706532E-01
   C  0.305829733E+01 -0.566146892E-01 -0.199488702E-01
   H -0.154089507E+02 -0.172854594E+01 -0.168439847E+01
   H  0.151795840E+02  0.191119954E+01  0.160505991E+01
     4
 # iter = 40000  time[fs]=40.00000
   C -0.313763368E+01  0.792730300E-01  0.381781117E-01
   C  0.314056674E+01 -0.591550710E-01 -0.213823707E-01
   H -0.157683183E+02 -0.176902818E+01 -0.172415344E+01
   H  0.155291019E+02  0.195591741E+01  0.164216977E+01
     4
 # iter = 40500  time[fs]=40.50000
   C -0.322160750E+01  0.820091719E-01  0.398908818E-01
   C  0.322320878E+01 -0.617060432E-01 -0.228211596E-01
   H -0.161280195E+02 -0.180955300E+01 -0.176394917E+01
   H  0.158789631E+02  0.200068360E+01  0.167932011E+01
     4
 # iter = 41000  time[fs]=41.00000
   C -0.330593558E+01  0.847550223E-01  0.416088014E-01
   C  0.330620430E+01 -0.642671838E-01 -0.242650768E-01
   H -0.164880398E+02 -0.185011861E+01 -0.180378395E+01
   H  0.162291528E+02  0.204549609E+01  0.171650925E+01
     4
 # iter = 41500  time[fs]=41.50000
   C -0.339060012E+01  0.875101975E-01  0.433317127E-01
   C  0.338953551E+01 -0.668380924E-01 -0.257139660E-01
   H -0.168483656E+02 -0.189072331E+01 -0.184365616E+01
   H  0.165796573E+02  0.209035300E+01  0.175373559E+01
     4
 # iter = 42000  time[fs]=42.00000
   C -0.347558456E+01  0.902743335E-01  0.450594620E-01
   C  0.347318589E+01 -0.694183898E-01 -0.271676753E-01
   H -0.172089843E+02 -0.193136553E+01 -0.188356430E+01
   H  0.169304634E+02  0.213525255E+01  0.179099763E+01
     4
 # iter = 42500  time[fs]=42.50000
   C -0.356087346E+01  0.930470855E-01  0.467919002E-01
   C  0.355714001E+01 -0.720077161E-01 -0.286260570E-01
   H -0.175698839E+02 -0.197204376E+01 -0.192350693E+01
   H  0.172815590E+02  0.218019308E+01  0.182829397E+01
     4
 # iter = 43000  time[fs]=43.00000
   C -0.364645243E+01  0.958281261E-01  0.485288829E-01
   C  0.364138351E+01 -0.746057299E-01 -0.300889680E-01
   H -0.179310532E+02 -0.201275661E+01 -0.196348272E+01
   H  0.176329327E+02  0.222517300E+01  0.186562328E+01
     4
 # iter = 43500  time[fs]=43.50000
   C -0.373230805E+01  0.986171449E-01  0.502702705E-01
   C  0.372590298E+01 -0.772121072E-01 -0.315562698E-01
   H -0.182924816E+02 -0.205350275E+01 -0.200349039E+01
   H  0.179845735E+02  0.227019084E+01  0.190298431E+01
     4
 # iter = 44000  time[fs]=44.00000
   C -0.381842772E+01  0.101413847E+00  0.520159281E-01
   C  0.381068585E+01 -0.798265406E-01 -0.330278287E-01
   H -0.186541591E+02 -0.209428093E+01 -0.204352876E+01
   H  0.183364714E+02  0.231524520E+01  0.194037588E+01
     4
 # iter = 44500  time[fs]=44.50000
   C -0.390479969E+01  0.104217952E+00  0.537657255E-01
   C  0.389572039E+01 -0.824487377E-01 -0.345035156E-01
   H -0.190160764E+02 -0.213508998E+01 -0.208359670E+01
   H  0.186886166E+02  0.236033475E+01  0.197779688E+01
     4
 # iter = 45000  time[fs]=45.00000
   C -0.399141293E+01  0.107029194E+00  0.555195372E-01
   C  0.398099556E+01 -0.850784210E-01 -0.359832057E-01
   H -0.193782245E+02 -0.217592877E+01 -0.212369315E+01
   H  0.190410000E+02  0.240545823E+01  0.201524625E+01
     4
 # iter = 45500  time[fs]=45.50000
   C -0.407825707E+01  0.109847321E+00  0.572772424E-01
   C  0.406650105E+01 -0.877153265E-01 -0.374667791E-01
   H -0.197405950E+02 -0.221679625E+01 -0.216381708E+01
   H  0.193936131E+02  0.245061446E+01  0.205272299E+01
     4
 # iter = 46000  time[fs]=46.00000
   C -0.416532240E+01  0.112672091E+00  0.590387243E-01
   C  0.415222714E+01 -0.903592029E-01 -0.389541200E-01
   H -0.201031800E+02 -0.225769141E+01 -0.220396755E+01
   H  0.197464477E+02  0.249580231E+01  0.209022616E+01
     4
 # iter = 46500  time[fs]=46.50000
   C -0.425259975E+01  0.115503275E+00  0.608038710E-01
   C  0.423816469E+01 -0.930098112E-01 -0.404451170E-01
   H -0.204659720E+02 -0.229861332E+01 -0.224414365E+01
   H  0.200994961E+02  0.254102070E+01  0.212775484E+01
     4
 # iter = 47000  time[fs]=47.00000
   C -0.434008053E+01  0.118340656E+00  0.625725743E-01
   C  0.432430511E+01 -0.956669238E-01 -0.419396626E-01
   H -0.208289638E+02 -0.233956107E+01 -0.228434451E+01
   H  0.204527508E+02  0.258626863E+01  0.216530820E+01
     4
 # iter = 47500  time[fs]=47.50000
   C -0.442775660E+01  0.121184025E+00  0.643447304E-01
   C  0.441064028E+01 -0.983303237E-01 -0.434376537E-01
   H -0.211921485E+02 -0.238053380E+01 -0.232456932E+01
   H  0.208062050E+02  0.263154513E+01  0.220288542E+01
     4
 # iter = 48000  time[fs]=48.00000
   C -0.451562031E+01  0.124033185E+00  0.661202392E-01
   C  0.449716257E+01 -0.100999804E+00 -0.449389907E-01
   H -0.215555199E+02 -0.242153070E+01 -0.236481730E+01
   H  0.211598521E+02  0.267684927E+01  0.224048572E+01
     4
 # iter = 48500  time[fs]=48.50000
   C -0.460366441E+01  0.126887947E+00  0.678990046E-01
   C  0.458386475E+01 -0.103675168E+00 -0.464435779E-01
   H -0.219190716E+02 -0.246255099E+01 -0.240508770E+01
   H  0.215136856E+02  0.272218019E+01  0.227810837E+01
     4
 # iter = 49000  time[fs]=49.00000
   C -0.469188208E+01  0.129748130E+00  0.696809337E-01
   C  0.467074000E+01 -0.106356226E+00 -0.479513232E-01
   H -0.222827979E+02 -0.250359393E+01 -0.244537982E+01
   H  0.218676997E+02  0.276753704E+01  0.231575266E+01
     4
 # iter = 49500  time[fs]=49.50000
   C -0.478026684E+01  0.132613562E+00  0.714659376E-01
   C  0.475778186E+01 -0.109042800E+00 -0.494621379E-01
   H -0.226466933E+02 -0.254465883E+01 -0.248569298E+01
   H  0.222218885E+02  0.281291903E+01  0.235341794E+01
     4
 # iter = 50000  time[fs]=50.00000
   C -0.486881256E+01  0.135484079E+00  0.732539304E-01
   C  0.484498421E+01 -0.111734717E+00 -0.509759366E-01
   H -0.230107524E+02 -0.258574500E+01 -0.252602655E+01
   H  0.225762468E+02  0.285832540E+01  0.239110357E+01
     4
 # iter = 50500  time[fs]=50.50000
   C -0.495751344E+01  0.138359525E+00  0.750448295E-01
   C  0.493234126E+01 -0.114431813E+00 -0.524926370E-01
   H -0.233749701E+02 -0.262685181E+01 -0.256637990E+01
   H  0.229307692E+02  0.290375542E+01  0.242880892E+01
     4
 # iter = 51000  time[fs]=51.00000
   C -0.504636397E+01  0.141239747E+00  0.768385554E-01
   C  0.501984752E+01 -0.117133932E+00 -0.540121601E-01
   H -0.237393417E+02 -0.266797864E+01 -0.260675246E+01
   H  0.232854507E+02  0.294920841E+01  0.246653343E+01
     4
 # iter = 51500  time[fs]=51.50000
   C -0.513535891E+01  0.144124604E+00  0.786350316E-01
   C  0.510749775E+01 -0.119840922E+00 -0.555344296E-01
   H -0.241038626E+02 -0.270912491E+01 -0.264714365E+01
   H  0.236402868E+02  0.299468368E+01  0.250427653E+01
     4
 # iter = 52000  time[fs]=52.00000
   C -0.522449331E+01  0.147013957E+00  0.804341843E-01
   C  0.519528701E+01 -0.122552640E+00 -0.570593720E-01
   H -0.244685282E+02 -0.275029006E+01 -0.268755295E+01
   H  0.239952727E+02  0.304018062E+01  0.254203769E+01
     4
 # iter = 52500  time[fs]=52.50000
   C -0.531376243E+01  0.149907674E+00  0.822359424E-01
   C  0.528321059E+01 -0.125268949E+00 -0.585869166E-01
   H -0.248333345E+02 -0.279147355E+01 -0.272797984E+01
   H  0.243504042E+02  0.308569860E+01  0.257981640E+01
     4
 # iter = 53000  time[fs]=53.00000
   C -0.540316177E+01  0.152805630E+00  0.840402375E-01
   C  0.537126399E+01 -0.127989715E+00 -0.601169953E-01
   H -0.251982774E+02 -0.283267487E+01 -0.276842382E+01
   H  0.247056771E+02  0.313123705E+01  0.261761217E+01
     4
 # iter = 53500  time[fs]=53.50000
   C -0.549268707E+01  0.155707702E+00  0.858470036E-01
   C  0.545944295E+01 -0.130714813E+00 -0.616495422E-01
   H -0.255633529E+02 -0.287389353E+01 -0.280888443E+01
   H  0.250610875E+02  0.317679541E+01  0.265542454E+01
     4
 # iter = 54000  time[fs]=54.00000
   C -0.558233424E+01  0.158613775E+00  0.876561772E-01
   C  0.554774339E+01 -0.133444120E+00 -0.631844941E-01
   H -0.259285575E+02 -0.291512904E+01 -0.284936121E+01
   H  0.254166314E+02  0.322237313E+01  0.269325305E+01
     4
 # iter = 54500  time[fs]=54.50000
   C -0.567209939E+01  0.161523738E+00  0.894676969E-01
   C  0.563616144E+01 -0.136177521E+00 -0.647217898E-01
   H -0.262938875E+02 -0.295638096E+01 -0.288985374E+01
   H  0.257723053E+02  0.326796971E+01  0.273109727E+01
     4
 # iter = 55000  time[fs]=55.00000
   C -0.576197881E+01  0.164437483E+00  0.912815035E-01
   C  0.572469339E+01 -0.138914903E+00 -0.662613704E-01
   H -0.266593396E+02 -0.299764886E+01 -0.293036158E+01
   H  0.261281057E+02  0.331358465E+01  0.276895679E+01
     4
 # iter = 55500  time[fs]=55.50000
   C -0.585196895E+01  0.167354908E+00  0.930975400E-01
   C  0.581333571E+01 -0.141656158E+00 -0.678031790E-01
   H -0.270249104E+02 -0.303893231E+01 -0.297088434E+01
   H  0.264840291E+02  0.335921747E+01  0.280683120E+01
     4
 # iter = 56000  time[fs]=56.00000
   C -0.594206644E+01  0.170275914E+00  0.949157514E-01
   C  0.590208502E+01 -0.144401184E+00 -0.693471607E-01
   H -0.273905969E+02 -0.308023092E+01 -0.301142164E+01
   H  0.268400724E+02  0.340486771E+01  0.284472013E+01
     4
 # iter = 56500  time[fs]=56.50000
   C -0.603226802E+01  0.173200406E+00  0.967360844E-01
   C  0.599093809E+01 -0.147149880E+00 -0.708932625E-01
   H -0.277563960E+02 -0.312154429E+01 -0.305197311E+01
   H  0.271962324E+02  0.345053494E+01  0.288262321E+01
     4
 # iter = 57000  time[fs]=57.00000
   C -0.612257062E+01  0.176128292E+00  0.985584877E-01
   C  0.607989184E+01 -0.149902152E+00 -0.724414332E-01
   H -0.281223048E+02 -0.316287205E+01 -0.309253838E+01
   H  0.275525061E+02  0.349621873E+01  0.292054008E+01
     4
 # iter = 57500  time[fs]=57.50000
   C -0.621297125E+01  0.179059484E+00  0.100382912E+00
   C  0.616894330E+01 -0.152657906E+00 -0.739916234E-01
   H -0.284883205E+02 -0.320421385E+01 -0.313311712E+01
   H  0.279088906E+02  0.354191867E+01  0.295847039E+01
     4
 # iter = 58000  time[fs]=58.00000
   C -0.630346710E+01  0.181993899E+00  0.102209309E+00
   C  0.625808965E+01 -0.155417055E+00 -0.755437852E-01
   H -0.288544405E+02 -0.324556935E+01 -0.317370900E+01
   H  0.282653832E+02  0.358763437E+01  0.299641383E+01
     4
 # iter = 58500  time[fs]=58.50000
   C -0.639405542E+01  0.184931454E+00  0.104037632E+00
   C  0.634732817E+01 -0.158179512E+00 -0.770978726E-01
   H -0.292206621E+02 -0.328693820E+01 -0.321431369E+01
   H  0.286219812E+02  0.363336544E+01  0.303437008E+01
     4
 # iter = 59000  time[fs]=59.00000
   C -0.648473363E+01  0.187872072E+00  0.105867837E+00
   C  0.643665626E+01 -0.160945197E+00 -0.786538408E-01
   H -0.295869828E+02 -0.332832009E+01 -0.325493089E+01
   H  0.289786820E+02  0.367911154E+01  0.307233882E+01
     4
 # iter = 59500  time[fs]=59.50000
   C -0.657549920E+01  0.190815675E+00  0.107699880E+00
   C  0.652607142E+01 -0.163714028E+00 -0.802116467E-01
   H -0.299534003E+02 -0.336971470E+01 -0.329556030E+01
   H  0.293354831E+02  0.372487229E+01  0.311031977E+01
     4
 # iter = 60000  time[fs]=60.00000
   C -0.666634976E+01  0.193762192E+00  0.109533721E+00
   C  0.661557127E+01 -0.166485931E+00 -0.817712485E-01
   H -0.303199123E+02 -0.341112175E+01 -0.333620164E+01
   H  0.296923822E+02  0.377064737E+01  0.314831263E+01
     4
 # iter = 60500  time[fs]=60.50000
   C -0.675728298E+01  0.196711552E+00  0.111369317E+00
   C  0.670515350E+01 -0.169260830E+00 -0.833326059E-01
   H -0.306865164E+02 -0.345254095E+01 -0.337685463E+01
   H  0.300493769E+02  0.381643643E+01  0.318631714E+01
     4
 # iter = 61000  time[fs]=61.00000
   C -0.684829665E+01  0.199663687E+00  0.113206630E+00
   C  0.679481590E+01 -0.172038655E+00 -0.848956796E-01
   H -0.310532106E+02 -0.349397200E+01 -0.341751900E+01
   H  0.304064650E+02  0.386223917E+01  0.322433303E+01
     4
 # iter = 61500  time[fs]=61.50000
   C -0.693938865E+01  0.202618531E+00  0.115045622E+00
   C  0.688455635E+01 -0.174819337E+00 -0.864604319E-01
   H -0.314199927E+02 -0.353541466E+01 -0.345819451E+01
   H  0.307636444E+02  0.390805528E+01  0.326236004E+01
     4
 # iter = 62000  time[fs]=62.00000
   C -0.703055692E+01  0.205576022E+00  0.116886256E+00
   C  0.697437281E+01 -0.177602810E+00 -0.880268260E-01
   H -0.317868607E+02 -0.357686865E+01 -0.349888089E+01
   H  0.311209129E+02  0.395388446E+01  0.330039793E+01
     4
 # iter = 62500  time[fs]=62.50000
   C -0.712179950E+01  0.208536097E+00  0.118728497E+00
   C  0.706426331E+01 -0.180389009E+00 -0.895948264E-01
   H -0.321538128E+02 -0.361833373E+01 -0.353957791E+01
   H  0.314782686E+02  0.399972643E+01  0.333844645E+01
     4
 # iter = 63000  time[fs]=63.00000
   C -0.721311448E+01  0.211498698E+00  0.120572310E+00
   C  0.715422596E+01 -0.183177873E+00 -0.911643987E-01
   H -0.325208470E+02 -0.365980965E+01 -0.358028533E+01
   H  0.318357096E+02  0.404558090E+01  0.337650538E+01
     4
 # iter = 63500  time[fs]=63.50000
   C -0.730450005E+01  0.214463768E+00  0.122417661E+00
   C  0.724425893E+01 -0.185969341E+00 -0.927355095E-01
   H -0.328879615E+02 -0.370129618E+01 -0.362100294E+01
   H  0.321932338E+02  0.409144761E+01  0.341457448E+01
     4
 # iter = 64000  time[fs]=64.00000
   C -0.739595444E+01  0.217431251E+00  0.124264519E+00
   C  0.733436048E+01 -0.188763355E+00 -0.943081265E-01
   H -0.332551545E+02 -0.374279309E+01 -0.366173051E+01
   H  0.325508396E+02  0.413732629E+01  0.345265355E+01
     4
 # iter = 64500  time[fs]=64.50000
   C -0.748747596E+01  0.220401094E+00  0.126112851E+00
   C  0.742452892E+01 -0.191559859E+00 -0.958822183E-01
   H -0.336224244E+02 -0.378430017E+01 -0.370246783E+01
   H  0.329085252E+02  0.418321670E+01  0.349074236E+01
     4
 # iter = 65000  time[fs]=65.00000
   C -0.757906297E+01  0.223373245E+00  0.127962628E+00
   C  0.751476260E+01 -0.194358799E+00 -0.974577545E-01
   H -0.339897695E+02 -0.382581719E+01 -0.374321469E+01
   H  0.332662889E+02  0.422911860E+01  0.352884073E+01
     4
 # iter = 65500  time[fs]=65.50000
   C -0.767071389E+01  0.226347654E+00  0.129813820E+00
   C  0.760505997E+01 -0.197160123E+00 -0.990347055E-01
   H -0.343571882E+02 -0.386734396E+01 -0.378397091E+01
   H  0.336241289E+02  0.427503174E+01  0.356694845E+01
     4
 # iter = 66000  time[fs]=66.00000
   C -0.776242720E+01  0.229324273E+00  0.131666397E+00
   C  0.769541950E+01 -0.199963779E+00 -0.100613043E+00
   H -0.347246789E+02 -0.390888026E+01 -0.382473628E+01
   H  0.339820438E+02  0.432095590E+01  0.360506532E+01
     4
 # iter = 66500  time[fs]=66.50000
   C -0.785420143E+01  0.232303054E+00  0.133520333E+00
   C  0.778583972E+01 -0.202769718E+00 -0.102192738E+00
   H -0.350922402E+02 -0.395042592E+01 -0.386551063E+01
   H  0.343400320E+02  0.436689085E+01  0.364319117E+01
     4
 # iter = 67000  time[fs]=67.00000
   C -0.794603517E+01  0.235283952E+00  0.135375600E+00
   C  0.787631922E+01 -0.205577892E+00 -0.103773765E+00
   H -0.354598707E+02 -0.399198074E+01 -0.390629376E+01
   H  0.346980919E+02  0.441283638E+01  0.368132581E+01
     4
 # iter = 67500  time[fs]=67.50000
   C -0.803792703E+01  0.238266922E+00  0.137232171E+00
   C  0.796685664E+01 -0.208388255E+00 -0.105356097E+00
   H -0.358275688E+02 -0.403354453E+01 -0.394708552E+01
   H  0.350562221E+02  0.445879227E+01  0.371946908E+01
     4
 # iter = 68000  time[fs]=68.00000
   C -0.812987571E+01  0.241251923E+00  0.139090022E+00
   C  0.805745065E+01 -0.211200761E+00 -0.106939709E+00
   H -0.361953333E+02 -0.407511712E+01 -0.398788572E+01
   H  0.354144213E+02  0.450475834E+01  0.375762079E+01
     4
 # iter = 68500  time[fs]=68.50000
   C -0.822187990E+01  0.244238912E+00  0.140949128E+00
   C  0.814809997E+01 -0.214015368E+00 -0.108524576E+00
   H -0.365631629E+02 -0.411669835E+01 -0.402869419E+01
   H  0.357726880E+02  0.455073437E+01  0.379578079E+01
     4
 # iter = 69000  time[fs]=69.00000
   C -0.831393838E+01  0.247227850E+00  0.142809464E+00
   C  0.823880337E+01 -0.216832033E+00 -0.110110673E+00
   H -0.369310561E+02 -0.415828803E+01 -0.406951080E+01
   H  0.361310209E+02  0.459672018E+01  0.383394891E+01
     4
 # iter = 69500  time[fs]=69.50000
   C -0.840604995E+01  0.250218696E+00  0.144671007E+00
   C  0.832955966E+01 -0.219650714E+00 -0.111697978E+00
   H -0.372990119E+02 -0.419988601E+01 -0.411033536E+01
   H  0.364894187E+02  0.464271559E+01  0.387212501E+01
     4
 # iter = 70000  time[fs]=70.00000
   C -0.849821344E+01  0.253211414E+00  0.146533734E+00
   C  0.842036768E+01 -0.222471372E+00 -0.113286467E+00
   H -0.376670290E+02 -0.424149214E+01 -0.415116774E+01
   H  0.368478802E+02  0.468872040E+01  0.391030892E+01
     4
 # iter = 70500  time[fs]=70.50000
   C -0.859042774E+01  0.256205966E+00  0.148397623E+00
   C  0.851122630E+01 -0.225293969E+00 -0.114876120E+00
   H -0.380351061E+02 -0.428310625E+01 -0.419200779E+01
   H  0.372064041E+02  0.473473445E+01  0.394850051E+01
     4
 # iter = 71000  time[fs]=71.00000
   C -0.868269175E+01  0.259202317E+00  0.150262653E+00
   C  0.860213444E+01 -0.228118466E+00 -0.116466913E+00
   H -0.384032423E+02 -0.432472821E+01 -0.423285536E+01
   H  0.375649893E+02  0.478075756E+01  0.398669963E+01
     4
 # iter = 71500  time[fs]=71.50000
   C -0.877500441E+01  0.262200431E+00  0.152128802E+00
   C  0.869309106E+01 -0.230944827E+00 -0.118058826E+00
   H -0.387714363E+02 -0.436635786E+01 -0.427371032E+01
   H  0.379236346E+02  0.482678957E+01  0.402490614E+01
     4
 # iter = 72000  time[fs]=72.00000
   C -0.886736472E+01  0.265200276E+00  0.153996051E+00
   C  0.878409513E+01 -0.233773017E+00 -0.119651838E+00
   H -0.391396870E+02 -0.440799506E+01 -0.431457253E+01
   H  0.382823389E+02  0.487283031E+01  0.406311990E+01
     4
 # iter = 72500  time[fs]=72.50000
   C -0.895977168E+01  0.268201818E+00  0.155864379E+00
   C  0.887514567E+01 -0.236603001E+00 -0.121245931E+00
   H -0.395079935E+02 -0.444963968E+01 -0.435544187E+01
   H  0.386411011E+02  0.491887964E+01  0.410134080E+01
     4
 # iter = 73000  time[fs]=73.00000
   C -0.905222432E+01  0.271205025E+00  0.157733766E+00
   C  0.896624171E+01 -0.239434745E+00 -0.122841084E+00
   H -0.398763547E+02 -0.449129159E+01 -0.439631819E+01
   H  0.389999202E+02  0.496493739E+01  0.413956869E+01
     4
 # iter = 73500  time[fs]=73.50000
   C -0.914472172E+01  0.274209867E+00  0.159604195E+00
   C  0.905738234E+01 -0.242268218E+00 -0.124437279E+00
   H -0.402447696E+02 -0.453295065E+01 -0.443720138E+01
   H  0.393587951E+02  0.501100342E+01  0.417780346E+01
     4
 # iter = 74000  time[fs]=74.00000
   C -0.923726297E+01  0.277216313E+00  0.161475646E+00
   C  0.914856665E+01 -0.245103386E+00 -0.126034496E+00
   H -0.406132373E+02 -0.457461674E+01 -0.447809132E+01
   H  0.397177248E+02  0.505707758E+01  0.421604498E+01
     4
 # iter = 74500  time[fs]=74.50000
   C -0.932984720E+01  0.280224334E+00  0.163348103E+00
   C  0.923979376E+01 -0.247940219E+00 -0.127632720E+00
   H -0.409817568E+02 -0.461628974E+01 -0.451898788E+01
   H  0.400767084E+02  0.510315973E+01  0.425429314E+01
     4
 # iter = 75000  time[fs]=75.00000
   C -0.942247356E+01  0.283233901E+00  0.165221546E+00
   C  0.933106284E+01 -0.250778688E+00 -0.129231931E+00
   H -0.413503272E+02 -0.465796952E+01 -0.455989096E+01
   H  0.404357448E+02  0.514924973E+01  0.429254782E+01
     4
 # iter = 75500  time[fs]=75.50000
   C -0.951514121E+01  0.286244986E+00  0.167095960E+00
   C  0.942237304E+01 -0.253618763E+00 -0.130832114E+00
   H -0.417189475E+02 -0.469965597E+01 -0.460080044E+01
   H  0.407948332E+02  0.519534745E+01  0.433080891E+01
     4
 # iter = 76000  time[fs]=76.00000
   C -0.960784936E+01  0.289257563E+00  0.168971328E+00
   C  0.951372358E+01 -0.256460414E+00 -0.132433251E+00
   H -0.420876171E+02 -0.474134898E+01 -0.464171622E+01
   H  0.411539728E+02  0.524145276E+01  0.436907630E+01
     4
 # iter = 76500  time[fs]=76.50000
   C -0.970059723E+01  0.292271604E+00  0.170847634E+00
   C  0.960511368E+01 -0.259303616E+00 -0.134035326E+00
   H -0.424563349E+02 -0.478304843E+01 -0.468263818E+01
   H  0.415131625E+02  0.528756553E+01  0.440734988E+01
     4
 # iter = 77000  time[fs]=77.00000
   C -0.979338405E+01  0.295287085E+00  0.172724861E+00
   C  0.969654258E+01 -0.262148340E+00 -0.135638325E+00
   H -0.428251001E+02 -0.482475422E+01 -0.472356622E+01
   H  0.418724015E+02  0.533368563E+01  0.444562956E+01
     4
 # iter = 77500  time[fs]=77.50000
   C -0.988620909E+01  0.298303981E+00  0.174602996E+00
   C  0.978800954E+01 -0.264994560E+00 -0.137242230E+00
   H -0.431939120E+02 -0.486646624E+01 -0.476450025E+01
   H  0.422316891E+02  0.537981295E+01  0.448391522E+01
     4
 # iter = 78000  time[fs]=78.00000
   C -0.997907163E+01  0.301322266E+00  0.176482022E+00
   C  0.987951386E+01 -0.267842251E+00 -0.138847028E+00
   H -0.435627698E+02 -0.490818439E+01 -0.480544015E+01
   H  0.425910243E+02  0.542594737E+01  0.452220678E+01
     4
 # iter = 78500  time[fs]=78.50000
   C -0.100719710E+02  0.304341917E+00  0.178361925E+00
   C  0.997105483E+01 -0.270691387E+00 -0.140452703E+00
   H -0.439316727E+02 -0.494990856E+01 -0.484638585E+01
   H  0.429504065E+02  0.547208877E+01  0.456050413E+01
     4
 # iter = 79000  time[fs]=79.00000
   C -0.101649065E+02  0.307362911E+00  0.180242690E+00
   C  0.100626318E+02 -0.273541945E+00 -0.142059242E+00
   H -0.443006200E+02 -0.499163867E+01 -0.488733724E+01
   H  0.433098348E+02  0.551823704E+01  0.459880718E+01
     4
 # iter = 79500  time[fs]=79.50000
   C -0.102578774E+02  0.310385226E+00  0.182124305E+00
   C  0.101542441E+02 -0.276393900E+00 -0.143666631E+00
   H -0.446696109E+02 -0.503337462E+01 -0.492829423E+01
   H  0.436693084E+02  0.556439206E+01  0.463711585E+01
     4
 # iter = 80000  time[fs]=80.00000
   C -0.103508832E+02  0.313408839E+00  0.184006755E+00
   C  0.102458910E+02 -0.279247228E+00 -0.145274855E+00
   H -0.450386448E+02 -0.507511631E+01 -0.496925674E+01
   H  0.440288267E+02  0.561055374E+01  0.467543003E+01
