     4
 # iter = 25000  time[fs]=25.00000
   C -0.106730643E+01  0.412751643E-01  0.351923204E-01
   C  0.994058101E+00  0.253498727E-02 -0.265892846E-01
   H -0.531876282E+01 -0.564010141E+00 -0.562237281E+00
   H  0.538146862E+01  0.486994470E+00 -0.129557507E+00
     4
 # iter = 25500  time[fs]=25.50000
   C -0.112057835E+01  0.433551815E-01  0.384723360E-01
   C  0.103863373E+01  0.873515655E-03 -0.265612767E-01
   H -0.565480818E+01 -0.602684691E+00 -0.597663498E+00
   H  0.570375397E+01  0.517914442E+00 -0.135682871E+00
     4
 # iter = 26000  time[fs]=26.00000
   C -0.117670483E+01  0.455247066E-01  0.418848993E-01
   C  0.108605500E+01 -0.867403460E-03 -0.266040892E-01
   H -0.599619877E+01 -0.642017189E+00 -0.633716569E+00
   H  0.603149139E+01  0.549371638E+00 -0.141922110E+00
     4
 # iter = 26500  time[fs]=26.50000
   C -0.123543583E+01  0.477771201E-01  0.454174893E-01
   C  0.113607123E+01 -0.268252709E-02 -0.267121317E-01
   H -0.634233543E+01 -0.681934552E+00 -0.670325974E+00
   H  0.636408965E+01  0.581309490E+00 -0.148262574E+00
     4
 # iter = 27000  time[fs]=27.00000
   C -0.129654159E+01  0.501063315E-01  0.490589884E-01
   C  0.118845235E+01 -0.456689570E-02 -0.268801546E-01
   H -0.669270904E+01 -0.722374782E+00 -0.707432067E+00
   H  0.670104343E+01  0.613679576E+00 -0.154693496E+00
     4
 # iter = 27500  time[fs]=27.50000
   C -0.135981260E+01  0.525067358E-01  0.527995172E-01
   C  0.124298875E+01 -0.651584170E-02 -0.271032834E-01
   H -0.704688417E+01 -0.763284909E+00 -0.744984009E+00
   H  0.704191825E+01  0.646440173E+00 -0.161205652E+00
     4
 # iter = 28000  time[fs]=28.00000
   C -0.142505891E+01  0.549731775E-01  0.566302877E-01
   C  0.129949057E+01 -0.852499388E-02 -0.273770293E-01
   H -0.740448609E+01 -0.804619360E+00 -0.782938160E+00
   H  0.738633842E+01  0.679555118E+00 -0.167791096E+00
     4
 # iter = 28500  time[fs]=28.50000
   C -0.149210899E+01  0.575009201E-01  0.605434742E-01
   C  0.135778647E+01 -0.105902764E-01 -0.276972832E-01
   H -0.776519047E+01 -0.846338687E+00 -0.821256809E+00
   H  0.773397735E+01  0.712992893E+00 -0.174442938E+00
     4
 # iter = 29000  time[fs]=29.00000
   C -0.156080830E+01  0.600856161E-01  0.645320987E-01
   C  0.141772217E+01 -0.127079027E-01 -0.280602990E-01
   H -0.812871504E+01 -0.888408539E+00 -0.859907173E+00
   H  0.808454965E+01  0.746725877E+00 -0.181155176E+00
     4
 # iter = 29500  time[fs]=29.50000
   C -0.163101782E+01  0.627232783E-01  0.685899293E-01
   C  0.147915895E+01 -0.148743650E-01 -0.284626717E-01
   H -0.849481287E+01 -0.930798844E+00 -0.898860591E+00
   H  0.843780472E+01  0.780729752E+00 -0.187922554E+00
     4
 # iter = 30000  time[fs]=30.00000
   C -0.170261257E+01  0.654102523E-01  0.727113917E-01
   C  0.154197217E+01 -0.170864213E-01 -0.289013113E-01
   H -0.886326689E+01 -0.973483138E+00 -0.938091873E+00
   H  0.879352155E+01  0.814983004E+00 -0.194740444E+00
     4
 # iter = 30500  time[fs]=30.50000
   C -0.177548019E+01  0.681431891E-01  0.768914901E-01
   C  0.160604980E+01 -0.193410795E-01 -0.293734166E-01
   H -0.923388541E+01 -0.101643803E+01 -0.977578775E+00
   H  0.915150433E+01  0.849466518E+00 -0.201604758E+00
     4
 # iter = 31000  time[fs]=31.00000
   C -0.184951959E+01  0.709190203E-01  0.811257387E-01
   C  0.167129110E+01 -0.216355813E-01 -0.298764491E-01
   H -0.960649845E+01 -0.105964274E+01 -0.101730156E+01
   H  0.951157892E+01  0.884163245E+00 -0.208511865E+00
     4
 # iter = 31500  time[fs]=31.50000
   C -0.192463976E+01  0.737349333E-01  0.854101018E-01
   C  0.173760541E+01 -0.239673856E-01 -0.304081075E-01
   H -0.998095462E+01 -0.110307874E+01 -0.105724265E+01
   H  0.987358983E+01  0.919057914E+00 -0.215458532E+00
     4
 # iter = 32000  time[fs]=32.00000
   C -0.200075866E+01  0.765883487E-01  0.897409406E-01
   C  0.180491102E+01 -0.263341514E-01 -0.309663050E-01
   H -0.103571186E+02 -0.114672946E+01 -0.109738631E+01
   H  0.102373977E+02  0.954136805E+00 -0.222441865E+00
     4
 # iter = 32500  time[fs]=32.50000
   C -0.207780224E+01  0.794768999E-01  0.941149678E-01
   C  0.187313420E+01 -0.287337223E-01 -0.315491471E-01
   H -0.107348691E+02 -0.119057999E+01 -0.113771843E+01
   H  0.106028773E+02  0.989387544E+00 -0.229459265E+00
     4
 # iter = 33000  time[fs]=33.00000
   C -0.215570352E+01  0.823984131E-01  0.985292069E-01
   C  0.194220830E+01 -0.311641111E-01 -0.321549125E-01
   H -0.111140968E+02 -0.123461691E+01 -0.117822629E+01
   H  0.109699157E+02  0.102479894E+01 -0.236508395E+00
     4
 # iter = 33500  time[fs]=33.50000
   C -0.223440187E+01  0.853508900E-01  0.102980957E+00
   C  0.201207297E+01 -0.336234854E-01 -0.327820350E-01
   H -0.114947030E+02 -0.127882807E+01 -0.121889838E+01
   H  0.113384105E+02  0.106036083E+01 -0.243587139E+00
     4
 # iter = 34000  time[fs]=34.00000
   C -0.231384227E+01  0.883324919E-01  0.107467764E+00
   C  0.208267349E+01 -0.361101545E-01 -0.334290877E-01
   H -0.118765985E+02 -0.132320244E+01 -0.125972428E+01
   H  0.117082689E+02  0.109606398E+01 -0.250693584E+00
     4
 # iter = 34500  time[fs]=34.50000
   C -0.239397473E+01  0.913415246E-01  0.111987390E+00
   C  0.215396013E+01 -0.386225569E-01 -0.340947686E-01
   H -0.122597020E+02 -0.136773002E+01 -0.130069452E+01
   H  0.120794066E+02  0.113189996E+01 -0.257825987E+00
     4
 # iter = 35000  time[fs]=35.00000
   C -0.247475372E+01  0.943764253E-01  0.116537793E+00
   C  0.222588763E+01 -0.411592494E-01 -0.347778881E-01
   H -0.126439397E+02 -0.141240164E+01 -0.134180044E+01
   H  0.124517465E+02  0.116786106E+01 -0.264982763E+00
     4
 # iter = 35500  time[fs]=35.50000
   C -0.255613771E+01  0.974357510E-01  0.121117105E+00
   C  0.229841471E+01 -0.437188965E-01 -0.354773574E-01
   H -0.130292440E+02 -0.145720896E+01 -0.138303415E+01
   H  0.128252182E+02  0.120394020E+01 -0.272162464E+00
     4
 # iter = 36000  time[fs]=36.00000
   C -0.263808875E+01  0.100518167E+00  0.125723614E+00
   C  0.237150365E+01 -0.463002610E-01 -0.361921785E-01
   H -0.134155532E+02 -0.150214430E+01 -0.142438841E+01
   H  0.131997570E+02  0.124013089E+01 -0.279363762E+00
     4
 # iter = 36500  time[fs]=36.50000
   C -0.272057211E+01  0.103622438E+00  0.130355748E+00
   C  0.244511992E+01 -0.489021958E-01 -0.369214350E-01
   H -0.138028105E+02 -0.154720062E+01 -0.146585656E+01
   H  0.135753037E+02  0.127642715E+01 -0.286585441E+00
     4
 # iter = 37000  time[fs]=37.00000
   C -0.280355592E+01  0.106747418E+00  0.135012060E+00
   C  0.251923189E+01 -0.515236358E-01 -0.376642844E-01
   H -0.141909639E+02 -0.159237142E+01 -0.150743247E+01
   H  0.139518036E+02  0.131282344E+01 -0.293826379E+00
     4
 # iter = 37500  time[fs]=37.50000
   C -0.288701092E+01  0.109892045E+00  0.139691218E+00
   C  0.259381048E+01 -0.541635911E-01 -0.384199507E-01
   H -0.145799653E+02 -0.163765073E+01 -0.154911050E+01
   H  0.143292064E+02  0.134931466E+01 -0.301085545E+00
     4
 # iter = 38000  time[fs]=38.00000
   C -0.297091017E+01  0.113055329E+00  0.144391990E+00
   C  0.266882894E+01 -0.568211403E-01 -0.391877179E-01
   H -0.149697704E+02 -0.168303301E+01 -0.159088542E+01
   H  0.147074653E+02  0.138589609E+01 -0.308361985E+00
     4
 # iter = 38500  time[fs]=38.50000
   C -0.305522884E+01  0.116236351E+00  0.149113239E+00
   C  0.274426262E+01 -0.594954253E-01 -0.399669247E-01
   H -0.153603380E+02 -0.172851312E+01 -0.163275240E+01
   H  0.150865373E+02  0.142256332E+01 -0.315654818E+00
     4
 # iter = 39000  time[fs]=39.00000
   C -0.313994400E+01  0.119434254E+00  0.153853911E+00
   C  0.282008876E+01 -0.621856455E-01 -0.407569594E-01
   H -0.157516303E+02 -0.177408630E+01 -0.167470694E+01
   H  0.154663822E+02  0.145931228E+01 -0.322963224E+00
     4
 # iter = 39500  time[fs]=39.50000
   C -0.322503446E+01  0.122648239E+00  0.158613028E+00
   C  0.289628631E+01 -0.648910533E-01 -0.415572548E-01
   H -0.161436119E+02 -0.181974814E+01 -0.171674487E+01
   H  0.158469630E+02  0.149613915E+01 -0.330286446E+00
     4
 # iter = 40000  time[fs]=40.00000
   C -0.331048057E+01  0.125877559E+00  0.163389680E+00
   C  0.297283580E+01 -0.676109499E-01 -0.423672849E-01
   H -0.165362499E+02 -0.186549450E+01 -0.175886231E+01
   H  0.162282449E+02  0.153304040E+01 -0.337623776E+00
     4
 # iter = 40500  time[fs]=40.50000
   C -0.339626411E+01  0.129121515E+00  0.168183023E+00
   C  0.304971914E+01 -0.703446811E-01 -0.431865609E-01
   H -0.169295138E+02 -0.191132154E+01 -0.180105563E+01
   H  0.166101957E+02  0.157001271E+01 -0.344974557E+00
     4
 # iter = 41000  time[fs]=41.00000
   C -0.348236817E+01  0.132379455E+00  0.172992268E+00
   C  0.312691954E+01 -0.730916341E-01 -0.440146278E-01
   H -0.173233750E+02 -0.195722567E+01 -0.184332145E+01
   H  0.169927851E+02  0.160705298E+01 -0.352338175E+00
     4
 # iter = 41500  time[fs]=41.50000
   C -0.356877700E+01  0.135650763E+00  0.177816680E+00
   C  0.320442140E+01 -0.758512339E-01 -0.448510618E-01
   H -0.177178069E+02 -0.200320354E+01 -0.188565660E+01
   H  0.173759851E+02  0.164415831E+01 -0.359714055E+00
     4
 # iter = 42000  time[fs]=42.00000
   C -0.365547593E+01  0.138934867E+00  0.182655570E+00
   C  0.328221017E+01 -0.786229407E-01 -0.456954674E-01
   H -0.181127845E+02 -0.204925199E+01 -0.192805811E+01
   H  0.177597691E+02  0.168132597E+01 -0.367101661E+00
     4
 # iter = 42500  time[fs]=42.50000
   C -0.374245128E+01  0.142231225E+00  0.187508298E+00
   C  0.336027227E+01 -0.814062471E-01 -0.465474752E-01
   H -0.185082845E+02 -0.209536807E+01 -0.197052322E+01
   H  0.181441125E+02  0.171855340E+01 -0.374500491E+00
     4
 # iter = 43000  time[fs]=43.00000
   C -0.382969028E+01  0.145539329E+00  0.192374259E+00
   C  0.343859504E+01 -0.842006756E-01 -0.474067397E-01
   H -0.189042849E+02 -0.214154901E+01 -0.201304929E+01
   H  0.185289919E+02  0.175583819E+01 -0.381910071E+00
     4
 # iter = 43500  time[fs]=43.50000
   C -0.391718095E+01  0.148858702E+00  0.197252889E+00
   C  0.351716663E+01 -0.870057766E-01 -0.482729374E-01
   H -0.193007651E+02 -0.218779220E+01 -0.205563389E+01
   H  0.189143856E+02  0.179317809E+01 -0.389329960E+00
     4
 # iter = 44000  time[fs]=44.00000
   C -0.400491213E+01  0.152188892E+00  0.202143657E+00
   C  0.359597595E+01 -0.898211260E-01 -0.491457649E-01
   H -0.196977058E+02 -0.223409518E+01 -0.209827470E+01
   H  0.193002729E+02  0.183057095E+01 -0.396759739E+00
     4
 # iter = 44500  time[fs]=44.50000
   C -0.409287330E+01  0.155529475E+00  0.207046063E+00
   C  0.367501260E+01 -0.926463237E-01 -0.500249376E-01
   H -0.200950888E+02 -0.228045564E+01 -0.214096953E+01
   H  0.196866346E+02  0.186801477E+01 -0.404199017E+00
     4
 # iter = 45000  time[fs]=45.00000
   C -0.418105462E+01  0.158880049E+00  0.211959640E+00
   C  0.375426681E+01 -0.954809918E-01 -0.509101879E-01
   H -0.204928967E+02 -0.232687140E+01 -0.218371633E+01
   H  0.200734522E+02  0.190550762E+01 -0.411647424E+00
     4
 # iter = 45500  time[fs]=45.50000
   C -0.426944685E+01  0.162240234E+00  0.216883943E+00
   C  0.383372943E+01 -0.983247729E-01 -0.518012642E-01
   H -0.208911135E+02 -0.237334039E+01 -0.222651317E+01
   H  0.204607087E+02  0.194304773E+01 -0.419104609E+00
     4
 # iter = 46000  time[fs]=46.00000
   C -0.435804126E+01  0.165609673E+00  0.221818555E+00
   C  0.391339182E+01 -0.101177329E+00 -0.526979295E-01
   H -0.212897237E+02 -0.241986066E+01 -0.226935819E+01
   H  0.208483876E+02  0.198063338E+01 -0.426570244E+00
     4
 # iter = 46500  time[fs]=46.50000
   C -0.444682967E+01  0.168988025E+00  0.226763082E+00
   C  0.399324587E+01 -0.104038340E+00 -0.535999607E-01
   H -0.216887130E+02 -0.246643037E+01 -0.231224968E+01
   H  0.212364735E+02  0.201826295E+01 -0.434044016E+00
     4
 # iter = 47000  time[fs]=47.00000
   C -0.453580435E+01  0.172374969E+00  0.231717153E+00
   C  0.407328393E+01 -0.106907501E+00 -0.545071469E-01
   H -0.220880675E+02 -0.251304776E+01 -0.235518597E+01
   H  0.216249519E+02  0.205593493E+01 -0.441525630E+00
     4
 # iter = 47500  time[fs]=47.50000
   C -0.462495800E+01  0.175770199E+00  0.236680413E+00
   C  0.415349877E+01 -0.109784526E+00 -0.554192891E-01
   H -0.224877743E+02 -0.255971117E+01 -0.239816551E+01
   H  0.220138088E+02  0.209364785E+01 -0.449014807E+00
     4
 # iter = 48000  time[fs]=48.00000
   C -0.471428374E+01  0.179173427E+00  0.241652530E+00
   C  0.423388358E+01 -0.112669141E+00 -0.563361994E-01
   H -0.228878211E+02 -0.260641904E+01 -0.244118682E+01
   H  0.224030312E+02  0.213140033E+01 -0.456511281E+00
     4
 # iter = 48500  time[fs]=48.50000
   C -0.480377506E+01  0.182584376E+00  0.246633188E+00
   C  0.431443191E+01 -0.115561085E+00 -0.572576997E-01
   H -0.232881962E+02 -0.265316986E+01 -0.248424849E+01
   H  0.227926066E+02  0.216919106E+01 -0.464014800E+00
     4
 # iter = 49000  time[fs]=49.00000
   C -0.489342580E+01  0.186002785E+00  0.251622086E+00
   C  0.439513766E+01 -0.118460112E+00 -0.581836215E-01
   H -0.236888884E+02 -0.269996221E+01 -0.252734917E+01
   H  0.231825230E+02  0.220701880E+01 -0.471525126E+00
     4
 # iter = 49500  time[fs]=49.50000
   C -0.498323013E+01  0.189428406E+00  0.256618939E+00
   C  0.447599506E+01 -0.121365987E+00 -0.591138051E-01
   H -0.240898872E+02 -0.274679474E+01 -0.257048760E+01
   H  0.235727693E+02  0.224488234E+01 -0.479042031E+00
     4
 # iter = 50000  time[fs]=50.00000
   C -0.507318251E+01  0.192861001E+00  0.261623478E+00
   C  0.455699864E+01 -0.124278486E+00 -0.600480990E-01
   H -0.244911825E+02 -0.279366615E+01 -0.261366257E+01
   H  0.239633347E+02  0.228278057E+01 -0.486565299E+00
     4
 # iter = 50500  time[fs]=50.50000
   C -0.516327771E+01  0.196300345E+00  0.266635444E+00
   C  0.463814321E+01 -0.127197396E+00 -0.609863594E-01
   H -0.248927648E+02 -0.284057522E+01 -0.265687292E+01
   H  0.243542090E+02  0.232071240E+01 -0.494094723E+00
     4
 # iter = 51000  time[fs]=51.00000
   C -0.525351074E+01  0.199746222E+00  0.271654593E+00
   C  0.471942384E+01 -0.130122512E+00 -0.619284497E-01
   H -0.252946250E+02 -0.288752078E+01 -0.270011754E+01
   H  0.247453824E+02  0.235867680E+01 -0.501630108E+00
     4
 # iter = 51500  time[fs]=51.50000
   C -0.534387686E+01  0.203198428E+00  0.276680692E+00
   C  0.480083584E+01 -0.133053642E+00 -0.628742400E-01
   H -0.256967544E+02 -0.293450171E+01 -0.274339538E+01
   H  0.251368456E+02  0.239667277E+01 -0.509171267E+00
     4
 # iter = 52000  time[fs]=52.00000
   C -0.543437159E+01  0.206656767E+00  0.281713519E+00
   C  0.488237477E+01 -0.135990599E+00 -0.638236067E-01
   H -0.260991446E+02 -0.298151694E+01 -0.278670545E+01
   H  0.255285898E+02  0.243469939E+01 -0.516718020E+00
     4
 # iter = 52500  time[fs]=52.50000
   C -0.552499063E+01  0.210121051E+00  0.286752861E+00
   C  0.496403639E+01 -0.138933206E+00 -0.647764320E-01
   H -0.265017877E+02 -0.302856545E+01 -0.283004678E+01
   H  0.259206064E+02  0.247275575E+01 -0.524270198E+00
     4
 # iter = 53000  time[fs]=53.00000
   C -0.561572991E+01  0.213591102E+00  0.291798517E+00
   C  0.504581666E+01 -0.141881295E+00 -0.657326038E-01
   H -0.269046762E+02 -0.307564626E+01 -0.287341844E+01
   H  0.263128874E+02  0.251084099E+01 -0.531827637E+00
     4
 # iter = 53500  time[fs]=53.50000
   C -0.570658555E+01  0.217066748E+00  0.296850293E+00
   C  0.512771175E+01 -0.144834703E+00 -0.666920152E-01
   H -0.273078029E+02 -0.312275844E+01 -0.291681958E+01
   H  0.267054250E+02  0.254895428E+01 -0.539390181E+00
     4
 # iter = 54000  time[fs]=54.00000
   C -0.579755384E+01  0.220547825E+00  0.301908005E+00
   C  0.520971798E+01 -0.147793274E+00 -0.676545642E-01
   H -0.277111607E+02 -0.316990109E+01 -0.296024933E+01
   H  0.270982118E+02  0.258709483E+01 -0.546957682E+00
     4
 # iter = 54500  time[fs]=54.50000
   C -0.588863123E+01  0.224034177E+00  0.306971476E+00
   C  0.529183187E+01 -0.150756862E+00 -0.686201534E-01
   H -0.281147430E+02 -0.321707335E+01 -0.300370690E+01
   H  0.274912407E+02  0.262526188E+01 -0.554529996E+00
     4
 # iter = 55000  time[fs]=55.00000
   C -0.597981436E+01  0.227525654E+00  0.312040538E+00
   C  0.537405007E+01 -0.153725322E+00 -0.695886896E-01
   H -0.285185436E+02 -0.326427441E+01 -0.304719151E+01
   H  0.278845048E+02  0.266345472E+01 -0.562106988E+00
     4
 # iter = 55500  time[fs]=55.50000
   C -0.607110000E+01  0.231022111E+00  0.317115028E+00
   C  0.545636939E+01 -0.156698519E+00 -0.705600839E-01
   H -0.289225563E+02 -0.331150348E+01 -0.309070242E+01
   H  0.282779977E+02  0.270167263E+01 -0.569688526E+00
     4
 # iter = 56000  time[fs]=56.00000
   C -0.616248506E+01  0.234523410E+00  0.322194792E+00
   C  0.553878679E+01 -0.159676322E+00 -0.715342513E-01
   H -0.293267752E+02 -0.335875979E+01 -0.313423893E+01
   H  0.286717130E+02  0.273991496E+01 -0.577274483E+00
     4
 # iter = 56500  time[fs]=56.50000
   C -0.625396660E+01  0.238029419E+00  0.327279682E+00
   C  0.562129934E+01 -0.162658605E+00 -0.725111102E-01
   H -0.297311948E+02 -0.340604263E+01 -0.317780034E+01
   H  0.290656448E+02  0.277818105E+01 -0.584864741E+00
     4
 # iter = 57000  time[fs]=57.00000
   C -0.634554178E+01  0.241540010E+00  0.332369555E+00
   C  0.570390425E+01 -0.165645247E+00 -0.734905826E-01
   H -0.301358096E+02 -0.345335129E+01 -0.322138601E+01
   H  0.294597872E+02  0.281647028E+01 -0.592459182E+00
     4
 # iter = 57500  time[fs]=57.50000
   C -0.643720790E+01  0.245055062E+00  0.337464275E+00
   C  0.578659886E+01 -0.168636132E+00 -0.744725939E-01
   H -0.305406146E+02 -0.350068510E+01 -0.326499529E+01
   H  0.298541348E+02  0.285478207E+01 -0.600057696E+00
     4
 # iter = 58000  time[fs]=58.00000
   C -0.652896237E+01  0.248574455E+00  0.342563710E+00
   C  0.586938059E+01 -0.171631150E+00 -0.754570722E-01
   H -0.309456046E+02 -0.354804341E+01 -0.330862759E+01
   H  0.302486821E+02  0.289311584E+01 -0.607660175E+00
     4
 # iter = 58500  time[fs]=58.50000
   C -0.662080271E+01  0.252098079E+00  0.347667734E+00
   C  0.595224699E+01 -0.174630191E+00 -0.764439490E-01
   H -0.313507750E+02 -0.359542562E+01 -0.335228232E+01
   H  0.306434241E+02  0.293147104E+01 -0.615266517E+00
     4
 # iter = 59000  time[fs]=59.00000
   C -0.671272652E+01  0.255625822E+00  0.352776227E+00
   C  0.603519570E+01 -0.177633155E+00 -0.774331582E-01
   H -0.317561211E+02 -0.364283111E+01 -0.339595892E+01
   H  0.310383558E+02  0.296984713E+01 -0.622876624E+00
     4
 # iter = 59500  time[fs]=59.50000
   C -0.680473151E+01  0.259157582E+00  0.357889072E+00
   C  0.611822446E+01 -0.180639940E+00 -0.784246364E-01
   H -0.321616386E+02 -0.369025931E+01 -0.343965684E+01
   H  0.314334725E+02  0.300824361E+01 -0.630490399E+00
     4
 # iter = 60000  time[fs]=60.00000
   C -0.689681550E+01  0.262693257E+00  0.363006157E+00
   C  0.620133110E+01 -0.183650452E+00 -0.794183229E-01
   H -0.325673231E+02 -0.373770966E+01 -0.348337557E+01
   H  0.318287695E+02  0.304665999E+01 -0.638107751E+00
     4
 # iter = 60500  time[fs]=60.50000
   C -0.698897636E+01  0.266232749E+00  0.368127374E+00
   C  0.628451354E+01 -0.186664598E+00 -0.804141590E-01
   H -0.329731705E+02 -0.378518164E+01 -0.352711460E+01
   H  0.322242425E+02  0.308509578E+01 -0.645728592E+00
     4
 # iter = 61000  time[fs]=61.00000
   C -0.708121207E+01  0.269775966E+00  0.373252620E+00
   C  0.636776975E+01 -0.189682290E+00 -0.814120886E-01
   H -0.333791769E+02 -0.383267472E+01 -0.357087345E+01
   H  0.326198872E+02  0.312355052E+01 -0.653352836E+00
     4
 # iter = 61500  time[fs]=61.50000
   C -0.717352067E+01  0.273322817E+00  0.378381794E+00
   C  0.645109782E+01 -0.192703441E+00 -0.824120575E-01
   H -0.337853384E+02 -0.388018841E+01 -0.361465165E+01
   H  0.330156995E+02  0.316202378E+01 -0.660980403E+00
     4
 # iter = 62000  time[fs]=62.00000
   C -0.726590028E+01  0.276873216E+00  0.383514800E+00
   C  0.653449590E+01 -0.195727970E+00 -0.834140136E-01
   H -0.341916515E+02 -0.392772223E+01 -0.365844875E+01
   H  0.334116754E+02  0.320051513E+01 -0.668611211E+00
     4
 # iter = 62500  time[fs]=62.50000
   C -0.735834910E+01  0.280427077E+00  0.388651546E+00
   C  0.661796218E+01 -0.198755796E+00 -0.844179067E-01
   H -0.345981124E+02 -0.397527571E+01 -0.370226430E+01
   H  0.338078111E+02  0.323902416E+01 -0.676245186E+00
     4
 # iter = 63000  time[fs]=63.00000
   C -0.745086537E+01  0.283984320E+00  0.393791942E+00
   C  0.670149496E+01 -0.201786842E+00 -0.854236886E-01
   H -0.350047178E+02 -0.402284840E+01 -0.374609790E+01
   H  0.342041030E+02  0.327755046E+01 -0.683882253E+00
     4
 # iter = 63500  time[fs]=63.50000
   C -0.754344744E+01  0.287544866E+00  0.398935901E+00
   C  0.678509257E+01 -0.204821034E+00 -0.864313126E-01
   H -0.354114644E+02 -0.407043987E+01 -0.378994913E+01
   H  0.346005473E+02  0.331609364E+01 -0.691522341E+00
     4
 # iter = 64000  time[fs]=64.00000
   C -0.763609366E+01  0.291108641E+00  0.404083340E+00
   C  0.686875342E+01 -0.207858300E+00 -0.874407338E-01
   H -0.358183490E+02 -0.411804970E+01 -0.383381761E+01
   H  0.349971408E+02  0.335465334E+01 -0.699165381E+00
     4
 # iter = 64500  time[fs]=64.50000
   C -0.772880249E+01  0.294675570E+00  0.409234178E+00
   C  0.695247596E+01 -0.210898571E+00 -0.884519090E-01
   H -0.362253684E+02 -0.416567749E+01 -0.387770294E+01
   H  0.353938801E+02  0.339322920E+01 -0.706811307E+00
     4
 # iter = 65000  time[fs]=65.00000
   C -0.782157242E+01  0.298245583E+00  0.414388338E+00
   C  0.703625871E+01 -0.213941779E+00 -0.894647962E-01
   H -0.366325197E+02 -0.421332285E+01 -0.392160476E+01
   H  0.357907619E+02  0.343182086E+01 -0.714460054E+00
     4
 # iter = 65500  time[fs]=65.50000
   C -0.791440199E+01  0.301818612E+00  0.419545744E+00
   C  0.712010024E+01 -0.216987859E+00 -0.904793552E-01
   H -0.370398000E+02 -0.426098539E+01 -0.396552272E+01
   H  0.361877831E+02  0.347042799E+01 -0.722111560E+00
     4
 # iter = 66000  time[fs]=66.00000
   C -0.800728981E+01  0.305394590E+00  0.424706324E+00
   C  0.720399916E+01 -0.220036749E+00 -0.914955469E-01
   H -0.374472064E+02 -0.430866475E+01 -0.400945646E+01
   H  0.365849407E+02  0.350905026E+01 -0.729765765E+00
     4
 # iter = 66500  time[fs]=66.50000
   C -0.810023452E+01  0.308973453E+00  0.429870006E+00
   C  0.728795413E+01 -0.223088387E+00 -0.925133337E-01
   H -0.378547363E+02 -0.435636057E+01 -0.405340567E+01
   H  0.369822319E+02  0.354768735E+01 -0.737422611E+00
     4
 # iter = 67000  time[fs]=67.00000
   C -0.819323481E+01  0.312555140E+00  0.435036724E+00
   C  0.737196387E+01 -0.226142716E+00 -0.935326793E-01
   H -0.382623870E+02 -0.440407250E+01 -0.409737000E+01
   H  0.373796536E+02  0.358633895E+01 -0.745082041E+00
     4
 # iter = 67500  time[fs]=67.50000
   C -0.828628942E+01  0.316139590E+00  0.440206411E+00
   C  0.745602712E+01 -0.229199677E+00 -0.945535484E-01
   H -0.386701561E+02 -0.445180023E+01 -0.414134916E+01
   H  0.377772033E+02  0.362500477E+01 -0.752744001E+00
     4
 # iter = 68000  time[fs]=68.00000
   C -0.837939712E+01  0.319726746E+00  0.445379003E+00
   C  0.754014268E+01 -0.232259215E+00 -0.955759070E-01
   H -0.390780409E+02 -0.449954341E+01 -0.418534282E+01
   H  0.381748783E+02  0.366368452E+01 -0.760408437E+00
     4
 # iter = 68500  time[fs]=68.50000
   C -0.847255673E+01  0.323316550E+00  0.450554439E+00
   C  0.762430937E+01 -0.235321277E+00 -0.965997223E-01
   H -0.394860391E+02 -0.454730173E+01 -0.422935071E+01
   H  0.385726759E+02  0.370237791E+01 -0.768075298E+00
     4
 # iter = 69000  time[fs]=69.00000
   C -0.856576711E+01  0.326908948E+00  0.455732659E+00
   C  0.770852608E+01 -0.238385811E+00 -0.976249622E-01
   H -0.398941485E+02 -0.459507490E+01 -0.427337253E+01
   H  0.389705937E+02  0.374108468E+01 -0.775744535E+00
     4
 # iter = 69500  time[fs]=69.50000
   C -0.865902714E+01  0.330503887E+00  0.460913605E+00
   C  0.779279170E+01 -0.241452766E+00 -0.986515961E-01
   H -0.403023667E+02 -0.464286262E+01 -0.431740801E+01
   H  0.393686293E+02  0.377980455E+01 -0.783416100E+00
     4
 # iter = 70000  time[fs]=70.00000
   C -0.875233576E+01  0.334101316E+00  0.466097220E+00
   C  0.787710518E+01 -0.244522093E+00 -0.996795941E-01
   H -0.407106916E+02 -0.469066459E+01 -0.436145687E+01
   H  0.397667802E+02  0.381853728E+01 -0.791089944E+00
     4
 # iter = 70500  time[fs]=70.50000
   C -0.884569193E+01  0.337701184E+00  0.471283451E+00
   C  0.796146550E+01 -0.247593746E+00 -0.100708927E+00
   H -0.411191211E+02 -0.473848055E+01 -0.440551886E+01
   H  0.401650443E+02  0.385728261E+01 -0.798766024E+00
     4
 # iter = 71000  time[fs]=71.00000
   C -0.893909464E+01  0.341303444E+00  0.476472243E+00
   C  0.804587165E+01 -0.250667678E+00 -0.101739567E+00
   H -0.415276531E+02 -0.478631022E+01 -0.444959372E+01
   H  0.405634194E+02  0.389604031E+01 -0.806444295E+00
     4
 # iter = 71500  time[fs]=71.50000
   C -0.903254292E+01  0.344908048E+00  0.481663547E+00
   C  0.813032269E+01 -0.253743844E+00 -0.102771487E+00
   H -0.419362855E+02 -0.483415333E+01 -0.449368121E+01
   H  0.409619031E+02  0.393481013E+01 -0.814124714E+00
     4
 # iter = 72000  time[fs]=72.00000
   C -0.912603581E+01  0.348514951E+00  0.486857312E+00
   C  0.821481767E+01 -0.256822200E+00 -0.103804661E+00
   H -0.423450166E+02 -0.488200964E+01 -0.453778107E+01
   H  0.413604936E+02  0.397359186E+01 -0.821807240E+00
     4
 # iter = 72500  time[fs]=72.50000
   C -0.921957241E+01  0.352124108E+00  0.492053489E+00
   C  0.829935569E+01 -0.259902706E+00 -0.104839062E+00
   H -0.427538443E+02 -0.492987889E+01 -0.458189310E+01
   H  0.417591887E+02  0.401238526E+01 -0.829491831E+00
     4
 # iter = 73000  time[fs]=73.00000
   C -0.931315183E+01  0.355735477E+00  0.497252033E+00
   C  0.838393587E+01 -0.262985319E+00 -0.105874667E+00
   H -0.431627669E+02 -0.497776084E+01 -0.462601704E+01
   H  0.421579864E+02  0.405119012E+01 -0.837178450E+00
     4
 # iter = 73500  time[fs]=73.50000
   C -0.940677319E+01  0.359349015E+00  0.502452897E+00
   C  0.846855737E+01 -0.266070000E+00 -0.106911451E+00
   H -0.435717826E+02 -0.502565527E+01 -0.467015269E+01
   H  0.425568849E+02  0.409000623E+01 -0.844867057E+00
     4
 # iter = 74000  time[fs]=74.00000
   C -0.950043567E+01  0.362964681E+00  0.507656036E+00
   C  0.855321936E+01 -0.269156710E+00 -0.107949390E+00
   H -0.439808897E+02 -0.507356193E+01 -0.471429984E+01
   H  0.429558823E+02  0.412883339E+01 -0.852557616E+00
     4
 # iter = 74500  time[fs]=74.50000
   C -0.959413845E+01  0.366582436E+00  0.512861409E+00
   C  0.863792102E+01 -0.272245412E+00 -0.108988463E+00
   H -0.443900864E+02 -0.512148062E+01 -0.475845826E+01
   H  0.433549768E+02  0.416767140E+01 -0.860250091E+00
     4
 # iter = 75000  time[fs]=75.00000
   C -0.968788074E+01  0.370202242E+00  0.518068973E+00
   C  0.872266160E+01 -0.275336068E+00 -0.110028647E+00
   H -0.447993712E+02 -0.516941110E+01 -0.480262776E+01
   H  0.437541665E+02  0.420652006E+01 -0.867944446E+00
     4
 # iter = 75500  time[fs]=75.50000
   C -0.978166178E+01  0.373824061E+00  0.523278686E+00
   C  0.880744032E+01 -0.278428644E+00 -0.111069920E+00
   H -0.452087423E+02 -0.521735318E+01 -0.484680815E+01
   H  0.441534498E+02  0.424537919E+01 -0.875640647E+00
     4
 # iter = 76000  time[fs]=76.00000
   C -0.987548081E+01  0.377447857E+00  0.528490511E+00
   C  0.889225646E+01 -0.281523104E+00 -0.112112262E+00
   H -0.456181984E+02 -0.526530665E+01 -0.489099923E+01
   H  0.445528251E+02  0.428424859E+01 -0.883338662E+00
     4
 # iter = 76500  time[fs]=76.50000
   C -0.996933712E+01  0.381073594E+00  0.533704408E+00
   C  0.897710930E+01 -0.284619415E+00 -0.113155653E+00
   H -0.460277379E+02 -0.531327130E+01 -0.493520080E+01
   H  0.449522906E+02  0.432312811E+01 -0.891038457E+00
     4
 # iter = 77000  time[fs]=77.00000
   C -0.100632300E+02  0.384701237E+00  0.538920340E+00
   C  0.906199815E+01 -0.287717543E+00 -0.114200072E+00
   H -0.464373593E+02 -0.536124695E+01 -0.497941270E+01
   H  0.453518448E+02  0.436201755E+01 -0.898740002E+00
     4
 # iter = 77500  time[fs]=77.50000
   C -0.101571588E+02  0.388330753E+00  0.544138269E+00
   C  0.914692233E+01 -0.290817458E+00 -0.115245502E+00
   H -0.468470612E+02 -0.540923341E+01 -0.502363474E+01
   H  0.457514862E+02  0.440091675E+01 -0.906443265E+00
     4
 # iter = 78000  time[fs]=78.00000
   C -0.102511228E+02  0.391962110E+00  0.549358162E+00
   C  0.923188118E+01 -0.293919127E+00 -0.116291922E+00
   H -0.472568421E+02 -0.545723048E+01 -0.506786675E+01
   H  0.461512132E+02  0.443982555E+01 -0.914148217E+00
     4
 # iter = 78500  time[fs]=78.50000
   C -0.103451213E+02  0.395595275E+00  0.554579983E+00
   C  0.931687407E+01 -0.297022520E+00 -0.117339316E+00
   H -0.476667008E+02 -0.550523800E+01 -0.511210857E+01
   H  0.465510244E+02  0.447874377E+01 -0.921854828E+00
     4
 # iter = 79000  time[fs]=79.00000
   C -0.104391538E+02  0.399230217E+00  0.559803698E+00
   C  0.940190037E+01 -0.300127609E+00 -0.118387665E+00
   H -0.480766359E+02 -0.555325578E+01 -0.515636001E+01
   H  0.469509184E+02  0.451767128E+01 -0.929563071E+00
     4
 # iter = 79500  time[fs]=79.50000
   C -0.105332197E+02  0.402866906E+00  0.565029274E+00
   C  0.948695948E+01 -0.303234362E+00 -0.119436953E+00
   H -0.484866461E+02 -0.560128365E+01 -0.520062094E+01
   H  0.473508937E+02  0.455660790E+01 -0.937272917E+00
     4
 # iter = 80000  time[fs]=80.00000
   C -0.106273182E+02  0.406505312E+00  0.570256681E+00
   C  0.957205082E+01 -0.306342754E+00 -0.120487162E+00
   H -0.488967302E+02 -0.564932146E+01 -0.524489118E+01
   H  0.477509489E+02  0.459555350E+01 -0.944984340E+00
