     4
 # iter = 25000  time[fs]=25.00000
   C -0.978938708E+00  0.275882753E-01 -0.118154334E-01
   C  0.105155210E+01 -0.287626735E-02  0.133219190E-01
   H -0.528404192E+01 -0.443067424E+00 -0.259432198E+00
   H  0.540247252E+01  0.565042810E-01  0.497053080E+00
     4
 # iter = 25500  time[fs]=25.50000
   C -0.102463132E+01  0.306657556E-01 -0.112453351E-01
   C  0.109791839E+01 -0.302405169E-02  0.119699243E-01
   H -0.561859985E+01 -0.469228546E+00 -0.277232845E+00
   H  0.572810655E+01  0.614571975E-01  0.526674295E+00
     4
 # iter = 26000  time[fs]=26.00000
   C -0.107318025E+01  0.338254708E-01 -0.107018489E-01
   C  0.114717514E+01 -0.321477081E-02  0.106274520E-01
   H -0.595877922E+01 -0.495925672E+00 -0.295340090E+00
   H  0.605895227E+01  0.664745166E-01  0.556807185E+00
     4
 # iter = 26500  time[fs]=26.50000
   C -0.112434656E+01  0.370614410E-01 -0.101792254E-01
   C  0.119907762E+01 -0.344712689E-02  0.929061554E-02
   H -0.630394420E+01 -0.523096303E+00 -0.313720373E+00
   H  0.639444345E+01  0.715499242E-01  0.587395834E+00
     4
 # iter = 27000  time[fs]=27.00000
   C -0.117790821E+01  0.403681636E-01 -0.967270032E-02
   C  0.125339915E+01 -0.371953598E-02  0.795623510E-02
   H -0.665355552E+01 -0.550687942E+00 -0.332345112E+00
   H  0.673409636E+01  0.766779465E-01  0.618392650E+00
     4
 # iter = 27500  time[fs]=27.50000
   C -0.123366084E+01  0.437405663E-01 -0.917835922E-02
   C  0.130993167E+01 -0.403023380E-02  0.662175381E-02
   H -0.700715277E+01 -0.578656123E+00 -0.351189811E+00
   H  0.707749523E+01  0.818538157E-01  0.649756842E+00
     4
 # iter = 28000  time[fs]=28.00000
   C -0.129141772E+01  0.471739723E-01 -0.869300810E-02
   C  0.136848541E+01 -0.437735888E-02  0.528514878E-02
   H -0.736434033E+01 -0.606962892E+00 -0.370233340E+00
   H  0.742428065E+01  0.870733593E-01  0.681453230E+00
     4
 # iter = 28500  time[fs]=28.50000
   C -0.135100904E+01  0.506640726E-01 -0.821405551E-02
   C  0.142888811E+01 -0.475901554E-02  0.394484500E-02
   H -0.772477626E+01 -0.635575620E+00 -0.389457372E+00
   H  0.777414024E+01  0.923329091E-01  0.713451287E+00
     4
 # iter = 29000  time[fs]=29.00000
   C -0.141228098E+01  0.542069006E-01 -0.773940903E-02
   C  0.149098391E+01 -0.517332010E-02  0.259963739E-02
   H -0.808816330E+01 -0.664466072E+00 -0.408845919E+00
   H  0.812680110E+01  0.976292262E-01  0.745724379E+00
     4
 # iter = 29500  time[fs]=29.50000
   C -0.147509442E+01  0.577988080E-01 -0.726738672E-02
   C  0.155463203E+01 -0.561843353E-02  0.124862264E-02
   H -0.845424170E+01 -0.693609666E+00 -0.428384966E+00
   H  0.848202364E+01  0.102959438E+00  0.778249147E+00
     4
 # iter = 30000  time[fs]=30.00000
   C -0.153932381E+01  0.614364421E-01 -0.679664238E-02
   C  0.161970549E+01 -0.609258352E-02 -0.108858760E-03
   H -0.882278335E+01 -0.722984880E+00 -0.448062165E+00
   H  0.883959660E+01  0.108320989E+00  0.811005002E+00
     4
 # iter = 30500  time[fs]=30.50000
   C -0.160485581E+01  0.651167231E-01 -0.632610352E-02
   C  0.168608980E+01 -0.659407841E-02 -0.147327099E-02
   H -0.919358696E+01 -0.752572773E+00 -0.467866587E+00
   H  0.919933284E+01  0.113711593E+00  0.843973716E+00
     4
 # iter = 31000  time[fs]=31.00000
   C -0.167158818E+01  0.688368229E-01 -0.585492010E-02
   C  0.175368169E+01 -0.712131515E-02 -0.284492287E-02
   H -0.956647419E+01 -0.782356591E+00 -0.487788520E+00
   H  0.956106594E+01  0.119129201E+00  0.877139082E+00
     4
 # iter = 31500  time[fs]=31.50000
   C -0.173942859E+01  0.725941441E-01 -0.538242262E-02
   C  0.182238801E+01 -0.767278289E-02 -0.422400048E-02
   H -0.994128631E+01 -0.812321454E+00 -0.507819295E+00
   H  0.992464733E+01  0.124571969E+00  0.910486630E+00
     4
 # iter = 32000  time[fs]=32.00000
   C -0.180829361E+01  0.763863007E-01 -0.490808780E-02
   C  0.189212461E+01 -0.824706339E-02 -0.561059365E-02
   H -0.103178815E+02 -0.842454083E+00 -0.527951148E+00
   H  0.102899439E+02  0.130038231E+00  0.944003394E+00
     4
 # iter = 32500  time[fs]=32.50000
   C -0.187810781E+01  0.802111002E-01 -0.443151075E-02
   C  0.196281541E+01 -0.884282931E-02 -0.700471732E-02
   H -0.106961328E+02 -0.872742588E+00 -0.548177099E+00
   H  0.106568360E+02  0.135526479E+00  0.977677716E+00
     4
 # iter = 33000  time[fs]=33.00000
   C -0.194880283E+01  0.840665262E-01 -0.395238230E-02
   C  0.203439155E+01 -0.945884102E-02 -0.840632860E-02
   H -0.110759256E+02 -0.903176278E+00 -0.568490851E+00
   H  0.110252157E+02  0.141035342E+00  0.101149907E+01
     4
 # iter = 33500  time[fs]=33.50000
   C -0.202031669E+01  0.879507233E-01 -0.347047062E-02
   C  0.210679057E+01 -0.100939426E-01 -0.981534056E-02
   H -0.114571569E+02 -0.933745510E+00 -0.588886709E+00
   H  0.113949853E+02  0.146563574E+00  0.104545795E+01
     4
 # iter = 34000  time[fs]=34.00000
   C -0.209259308E+01  0.918619821E-01 -0.298560629E-02
   C  0.217995576E+01 -0.107470571E-01 -0.112316331E-01
   H -0.118397332E+02 -0.964441556E+00 -0.609359502E+00
   H  0.117660562E+02  0.152110034E+00  0.107954569E+01
     4
 # iter = 34500  time[fs]=34.50000
   C -0.216558078E+01  0.957987268E-01 -0.249767024E-02
   C  0.225383554E+01 -0.114171820E-01 -0.126550616E-01
   H -0.122235696E+02 -0.995256493E+00 -0.629904524E+00
   H  0.121383479E+02  0.157673680E+00  0.111375443E+01
     4
 # iter = 35000  time[fs]=35.00000
   C -0.223923309E+01  0.997595029E-01 -0.200658384E-02
   C  0.232838291E+01 -0.121033839E-01 -0.140854640E-01
   H -0.126085888E+02 -0.102618311E+01 -0.650517480E+00
   H  0.125117866E+02  0.163253552E+00  0.114807699E+01
     4
 # iter = 35500  time[fs]=35.50000
   C -0.231350739E+01  0.103742966E+00 -0.151230103E-02
   C  0.240355496E+01 -0.128047941E-01 -0.155226660E-01
   H -0.129947203E+02 -0.105721482E+01 -0.671194443E+00
   H  0.128863053E+02  0.168848771E+00  0.118250680E+01
     4
 # iter = 36000  time[fs]=36.00000
   C -0.238836470E+01  0.107747874E+00 -0.101480175E-02
   C  0.247931249E+01 -0.135206037E-01 -0.169664853E-01
   H -0.133818997E+02 -0.108834560E+01 -0.691931809E+00
   H  0.132618422E+02  0.174458524E+00  0.121703781E+01
     4
 # iter = 36500  time[fs]=36.50000
   C -0.246376931E+01  0.111773073E+00 -0.514086709E-03
   C  0.255561957E+01 -0.142500595E-01 -0.184167354E-01
   H -0.137700676E+02 -0.111956992E+01 -0.712726266E+00
   H  0.136383407E+02  0.180082063E+00  0.125166450E+01
     4
 # iter = 37000  time[fs]=37.00000
   C -0.253968846E+01  0.115817497E+00 -0.101730981E-04
   C  0.263244325E+01 -0.149924593E-01 -0.198732276E-01
   H -0.141591697E+02 -0.115088269E+01 -0.733574762E+00
   H  0.140157487E+02  0.185718691E+00  0.128638175E+01
     4
 # iter = 37500  time[fs]=37.50000
   C -0.261609204E+01  0.119880154E+00  0.496908910E-03
   C  0.270975325E+01 -0.157471484E-01 -0.213357734E-01
   H -0.145491558E+02 -0.118227924E+01 -0.754474482E+00
   H  0.143940180E+02  0.191367767E+00  0.132118485E+01
     4
 # iter = 38000  time[fs]=38.00000
   C -0.269295234E+01  0.123960123E+00  0.100711900E-02
   C  0.278752170E+01 -0.165135161E-01 -0.228041862E-01
   H -0.149399797E+02 -0.121375523E+01 -0.775422821E+00
   H  0.147731042E+02  0.197028692E+00  0.135606943E+01
     4
 # iter = 38500  time[fs]=38.50000
   C -0.277024378E+01  0.128056545E+00  0.152040901E-02
   C  0.286572291E+01 -0.172909920E-01 -0.242782821E-01
   H -0.153315984E+02 -0.124530665E+01 -0.796417364E+00
   H  0.151529661E+02  0.202700911E+00  0.139103146E+01
     4
 # iter = 39000  time[fs]=39.00000
   C -0.284794277E+01  0.132168621E+00  0.203672484E-02
   C  0.294433313E+01 -0.180790427E-01 -0.257578808E-01
   H -0.157239724E+02 -0.127692980E+01 -0.817455870E+00
   H  0.155335654E+02  0.208383904E+00  0.142606717E+01
     4
 # iter = 39500  time[fs]=39.50000
   C -0.292602747E+01  0.136295605E+00  0.255600798E-02
   C  0.302333043E+01 -0.188771698E-01 -0.272428065E-01
   H -0.161170647E+02 -0.130862123E+01 -0.838536256E+00
   H  0.159148667E+02  0.214077188E+00  0.146117308E+01
     4
 # iter = 40000  time[fs]=40.00000
   C -0.300447764E+01  0.140436802E+00  0.307819670E-02
   C  0.310269448E+01 -0.196849064E-01 -0.287328885E-01
   H -0.165108412E+02 -0.134037773E+01 -0.859656580E+00
   H  0.162968369E+02  0.219780311E+00  0.149634593E+01
     4
 # iter = 40500  time[fs]=40.50000
   C -0.308327453E+01  0.144591560E+00  0.360322716E-02
   C  0.318240643E+01 -0.205018149E-01 -0.302279607E-01
   H -0.169052699E+02 -0.137219631E+01 -0.880815032E+00
   H  0.166794452E+02  0.225492849E+00  0.153158270E+01
     4
 # iter = 41000  time[fs]=41.00000
   C -0.316240070E+01  0.148759268E+00  0.413103411E-02
   C  0.326244875E+01 -0.213274852E-01 -0.317278627E-01
   H -0.173003211E+02 -0.140407418E+01 -0.902009918E+00
   H  0.170626627E+02  0.231214406E+00  0.156688054E+01
     4
 # iter = 41500  time[fs]=41.50000
   C -0.324183992E+01  0.152939357E+00  0.466155166E-02
   C  0.334280514E+01 -0.221615321E-01 -0.332324395E-01
   H -0.176959669E+02 -0.143600874E+01 -0.923239657E+00
   H  0.174464627E+02  0.236944609E+00  0.160223680E+01
     4
 # iter = 42000  time[fs]=42.00000
   C -0.332157709E+01  0.157131289E+00  0.519471373E-02
   C  0.342346044E+01 -0.230035937E-01 -0.347415414E-01
   H -0.180921815E+02 -0.146799754E+01 -0.944502764E+00
   H  0.178308199E+02  0.242683108E+00  0.163764899E+01
     4
 # iter = 42500  time[fs]=42.50000
   C -0.340159811E+01  0.161334561E+00  0.573045450E-02
   C  0.350440048E+01 -0.238533297E-01 -0.362550241E-01
   H -0.184889403E+02 -0.150003829E+01 -0.965797848E+00
   H  0.182157107E+02  0.248429573E+00  0.167311479E+01
     4
 # iter = 43000  time[fs]=43.00000
   C -0.348188980E+01  0.165548700E+00  0.626870877E-02
   C  0.358561203E+01 -0.247104199E-01 -0.377727489E-01
   H -0.188862205E+02 -0.153212885E+01 -0.987123602E+00
   H  0.186011129E+02  0.254183694E+00  0.170863200E+01
     4
 # iter = 43500  time[fs]=43.50000
   C -0.356243986E+01  0.169773259E+00  0.680941218E-02
   C  0.366708272E+01 -0.255745624E-01 -0.392945821E-01
   H -0.192840007E+02 -0.156426719E+01 -0.100847879E+01
   H  0.189870057E+02  0.259945179E+00  0.174419856E+01
     4
 # iter = 44000  time[fs]=44.00000
   C -0.364323675E+01  0.174007820E+00  0.735250147E-02
   C  0.374880099E+01 -0.264454728E-01 -0.408203950E-01
   H -0.196822607E+02 -0.159645143E+01 -0.102986227E+01
   H  0.193733694E+02  0.265713750E+00  0.177981253E+01
     4
 # iter = 44500  time[fs]=44.50000
   C -0.372426966E+01  0.178251987E+00  0.789791458E-02
   C  0.383075597E+01 -0.273228825E-01 -0.423500642E-01
   H -0.200809815E+02 -0.162867976E+01 -0.105127293E+01
   H  0.197601856E+02  0.271489147E+00  0.181547208E+01
     4
 # iter = 45000  time[fs]=45.00000
   C -0.380552845E+01  0.182505385E+00  0.844559083E-02
   C  0.391293747E+01 -0.282065379E-01 -0.438834709E-01
   H -0.204801451E+02 -0.166095050E+01 -0.107270976E+01
   H  0.201474368E+02  0.277271122E+00  0.185117548E+01
     4
 # iter = 45500  time[fs]=45.50000
   C -0.388700358E+01  0.186767662E+00  0.899547095E-02
   C  0.399533593E+01 -0.290961991E-01 -0.454205008E-01
   H -0.208797347E+02 -0.169326206E+01 -0.109417176E+01
   H  0.205351067E+02  0.283059441E+00  0.188692110E+01
     4
 # iter = 46000  time[fs]=46.00000
   C -0.396868609E+01  0.191038484E+00  0.954749719E-02
   C  0.407794235E+01 -0.299916394E-01 -0.469610444E-01
   H -0.212797342E+02 -0.172561293E+01 -0.111565804E+01
   H  0.209231795E+02  0.288853883E+00  0.192270739E+01
     4
 # iter = 46500  time[fs]=46.50000
   C -0.405056754E+01  0.195317534E+00  0.101016133E-01
   C  0.416074824E+01 -0.308926440E-01 -0.485049963E-01
   H -0.216801286E+02 -0.175800169E+01 -0.113716771E+01
   H  0.213116407E+02  0.294654237E+00  0.195853290E+01
     4
 # iter = 47000  time[fs]=47.00000
   C -0.413263996E+01  0.199604514E+00  0.106577647E-01
   C  0.424374563E+01 -0.317990092E-01 -0.500522552E-01
   H -0.220809035E+02 -0.179042699E+01 -0.115869994E+01
   H  0.217004762E+02  0.300460302E+00  0.199439624E+01
     4
 # iter = 47500  time[fs]=47.50000
   C -0.421489585E+01  0.203899139E+00  0.112158981E-01
   C  0.432692698E+01 -0.327105422E-01 -0.516027238E-01
   H -0.224820455E+02 -0.182288754E+01 -0.118025396E+01
   H  0.220896730E+02  0.306271889E+00  0.203029609E+01
     4
 # iter = 48000  time[fs]=48.00000
   C -0.429732813E+01  0.208201141E+00  0.117759622E-01
   C  0.441028518E+01 -0.336270595E-01 -0.531563087E-01
   H -0.228835417E+02 -0.185538214E+01 -0.120182902E+01
   H  0.224792183E+02  0.312088817E+00  0.206623121E+01
     4
 # iter = 48500  time[fs]=48.50000
   C -0.437993008E+01  0.212510264E+00  0.123379068E-01
   C  0.449381349E+01 -0.345483872E-01 -0.547129200E-01
   H -0.232853799E+02 -0.188790962E+01 -0.122342441E+01
   H  0.228691004E+02  0.317910914E+00  0.210220041E+01
     4
 # iter = 49000  time[fs]=49.00000
   C -0.446269538E+01  0.216826264E+00  0.129016836E-01
   C  0.457750557E+01 -0.354743600E-01 -0.562724714E-01
   H -0.236875485E+02 -0.192046891E+01 -0.124503947E+01
   H  0.232593079E+02  0.323738016E+00  0.213820258E+01
     4
 # iter = 49500  time[fs]=49.50000
   C -0.454561801E+01  0.221148910E+00  0.134672455E-01
   C  0.466135537E+01 -0.364048204E-01 -0.578348798E-01
   H -0.240900366E+02 -0.195305894E+01 -0.126667354E+01
   H  0.236498301E+02  0.329569966E+00  0.217423662E+01
     4
 # iter = 50000  time[fs]=50.00000
   C -0.462869229E+01  0.225477983E+00  0.140345471E-01
   C  0.474535720E+01 -0.373396188E-01 -0.594000653E-01
   H -0.244928336E+02 -0.198567874E+01 -0.128832603E+01
   H  0.240406568E+02  0.335406615E+00  0.221030153E+01
     4
 # iter = 50500  time[fs]=50.50000
   C -0.471191281E+01  0.229813273E+00  0.146035443E-01
   C  0.482950563E+01 -0.382786124E-01 -0.609679513E-01
   H -0.248959296E+02 -0.201832736E+01 -0.130999636E+01
   H  0.244317781E+02  0.341247821E+00  0.224639633E+01
     4
 # iter = 51000  time[fs]=51.00000
   C -0.479527447E+01  0.234154580E+00  0.151741944E-01
   C  0.491379554E+01 -0.392216653E-01 -0.625384637E-01
   H -0.252993151E+02 -0.205100389E+01 -0.133168396E+01
   H  0.248231848E+02  0.347093448E+00  0.228252009E+01
     4
 # iter = 51500  time[fs]=51.50000
   C -0.487877238E+01  0.238501714E+00  0.157464561E-01
   C  0.499822203E+01 -0.401686479E-01 -0.641115315E-01
   H -0.257029810E+02 -0.208370747E+01 -0.135338831E+01
   H  0.252148680E+02  0.352943365E+00  0.231867193E+01
     4
 # iter = 52000  time[fs]=52.00000
   C -0.496240193E+01  0.242854492E+00  0.163202895E-01
   C  0.508278046E+01 -0.411194364E-01 -0.656870862E-01
   H -0.261069187E+02 -0.211643729E+01 -0.137510891E+01
   H  0.256068193E+02  0.358797448E+00  0.235485100E+01
     4
 # iter = 52500  time[fs]=52.50000
   C -0.504615870E+01  0.247212742E+00  0.168956559E-01
   C  0.516746641E+01 -0.420739126E-01 -0.672650618E-01
   H -0.265111199E+02 -0.214919256E+01 -0.139684527E+01
   H  0.259990305E+02  0.364655578E+00  0.239105648E+01
     4
 # iter = 53000  time[fs]=53.00000
   C -0.513003852E+01  0.251576298E+00  0.174725177E-01
   C  0.525227569E+01 -0.430319636E-01 -0.688453950E-01
   H -0.269155767E+02 -0.218197253E+01 -0.141859694E+01
   H  0.263914940E+02  0.370517641E+00  0.242728761E+01
     4
 # iter = 53500  time[fs]=53.50000
   C -0.521403737E+01  0.255945000E+00  0.180508388E-01
   C  0.533720428E+01 -0.439934814E-01 -0.704280245E-01
   H -0.273202816E+02 -0.221477648E+01 -0.144036346E+01
   H  0.267842023E+02  0.376383526E+00  0.246354365E+01
     4
 # iter = 54000  time[fs]=54.00000
   C -0.529815146E+01  0.260318697E+00  0.186305841E-01
   C  0.542224836E+01 -0.449583628E-01 -0.720128914E-01
   H -0.277252274E+02 -0.224760372E+01 -0.146214442E+01
   H  0.271771483E+02  0.382253130E+00  0.249982388E+01
     4
 # iter = 54500  time[fs]=54.50000
   C -0.538237714E+01  0.264697243E+00  0.192117196E-01
   C  0.550740429E+01 -0.459265088E-01 -0.735999389E-01
   H -0.281304071E+02 -0.228045360E+01 -0.148393942E+01
   H  0.275703254E+02  0.388126351E+00  0.253612763E+01
     4
 # iter = 55000  time[fs]=55.00000
   C -0.546671095E+01  0.269080500E+00  0.197942124E-01
   C  0.559266858E+01 -0.468978248E-01 -0.751891121E-01
   H -0.285358142E+02 -0.231332549E+01 -0.150574805E+01
   H  0.279637269E+02  0.394003093E+00  0.257245424E+01
     4
 # iter = 55500  time[fs]=55.50000
   C -0.555114958E+01  0.273468334E+00  0.203780306E-01
   C  0.567803792E+01 -0.478722199E-01 -0.767803581E-01
   H -0.289414422E+02 -0.234621878E+01 -0.152756996E+01
   H  0.283573466E+02  0.399883262E+00  0.260880310E+01
     4
 # iter = 56000  time[fs]=56.00000
   C -0.563568985E+01  0.277860617E+00  0.209631435E-01
   C  0.576350912E+01 -0.488496073E-01 -0.783736260E-01
   H -0.293472851E+02 -0.237913289E+01 -0.154940478E+01
   H  0.287511786E+02  0.405766770E+00  0.264517359E+01
     4
 # iter = 56500  time[fs]=56.50000
   C -0.572032873E+01  0.282257226E+00  0.215495212E-01
   C  0.584907914E+01 -0.498299033E-01 -0.799688666E-01
   H -0.297533371E+02 -0.241206726E+01 -0.157125217E+01
   H  0.291452171E+02  0.411653530E+00  0.268156514E+01
     4
 # iter = 57000  time[fs]=57.00000
   C -0.580506333E+01  0.286658044E+00  0.221371347E-01
   C  0.593474508E+01 -0.508130280E-01 -0.815660321E-01
   H -0.301595925E+02 -0.244502136E+01 -0.159311180E+01
   H  0.295394567E+02  0.417543460E+00  0.271797720E+01
     4
 # iter = 57500  time[fs]=57.50000
   C -0.588989086E+01  0.291062957E+00  0.227259561E-01
   C  0.602050414E+01 -0.517989044E-01 -0.831650769E-01
   H -0.305660460E+02 -0.247799467E+01 -0.161498334E+01
   H  0.299338920E+02  0.423436481E+00  0.275440924E+01
     4
 # iter = 58000  time[fs]=58.00000
   C -0.597480867E+01  0.295471856E+00  0.233159582E-01
   C  0.610635367E+01 -0.527874585E-01 -0.847659564E-01
   H -0.309726924E+02 -0.251098670E+01 -0.163686651E+01
   H  0.303285179E+02  0.429332515E+00  0.279086075E+01
     4
 # iter = 58500  time[fs]=58.50000
   C -0.605981419E+01  0.299884637E+00  0.239071148E-01
   C  0.619229109E+01 -0.537786193E-01 -0.863686278E-01
   H -0.313795266E+02 -0.254399697E+01 -0.165876099E+01
   H  0.307233296E+02  0.435231489E+00  0.282733122E+01
     4
 # iter = 59000  time[fs]=59.00000
   C -0.614490498E+01  0.304301200E+00  0.244994003E-01
   C  0.627831396E+01 -0.547723186E-01 -0.879730497E-01
   H -0.317865439E+02 -0.257702503E+01 -0.168066652E+01
   H  0.311183222E+02  0.441133332E+00  0.286382019E+01
     4
 # iter = 59500  time[fs]=59.50000
   C -0.623007870E+01  0.308721447E+00  0.250927900E-01
   C  0.636441991E+01 -0.557684905E-01 -0.895791819E-01
   H -0.321937398E+02 -0.261007043E+01 -0.170258281E+01
   H  0.315134914E+02  0.447037975E+00  0.290032721E+01
     4
 # iter = 60000  time[fs]=60.00000
   C -0.631533308E+01  0.313145285E+00  0.256872599E-01
   C  0.645060669E+01 -0.567670718E-01 -0.911869858E-01
   H -0.326011096E+02 -0.264313274E+01 -0.172450960E+01
   H  0.319088327E+02  0.452945352E+00  0.293685182E+01
     4
 # iter = 60500  time[fs]=60.50000
   C -0.640066596E+01  0.317572625E+00  0.262827869E-01
   C  0.653687213E+01 -0.577680016E-01 -0.927964237E-01
   H -0.330086493E+02 -0.267621157E+01 -0.174644664E+01
   H  0.323043419E+02  0.458855399E+00  0.297339360E+01
     4
 # iter = 61000  time[fs]=61.00000
   C -0.648607525E+01  0.322003380E+00  0.268793484E-01
   C  0.662321412E+01 -0.587712211E-01 -0.944074594E-01
   H -0.334163545E+02 -0.270930650E+01 -0.176839369E+01
   H  0.327000150E+02  0.464768054E+00  0.300995216E+01
     4
 # iter = 61500  time[fs]=61.50000
   C -0.657155896E+01  0.326437467E+00  0.274769225E-01
   C  0.670963068E+01 -0.597766739E-01 -0.960200578E-01
   H -0.338242215E+02 -0.274241717E+01 -0.179035052E+01
   H  0.330958479E+02  0.470683259E+00  0.304652708E+01
     4
 # iter = 62000  time[fs]=62.00000
   C -0.665711515E+01  0.330874805E+00  0.280754880E-01
   C  0.679611985E+01 -0.607843054E-01 -0.976341847E-01
   H -0.342322462E+02 -0.277554320E+01 -0.181231688E+01
   H  0.334918371E+02  0.476600955E+00  0.308311799E+01
     4
 # iter = 62500  time[fs]=62.50000
   C -0.674274197E+01  0.335315317E+00  0.286750244E-01
   C  0.688267979E+01 -0.617940629E-01 -0.992498072E-01
   H -0.346404251E+02 -0.280868424E+01 -0.183429257E+01
   H  0.338879787E+02  0.482521086E+00  0.311972453E+01
     4
 # iter = 63000  time[fs]=63.00000
   C -0.682843763E+01  0.339758927E+00  0.292755116E-01
   C  0.696930871E+01 -0.628058958E-01 -0.100866893E+00
   H -0.350487545E+02 -0.284183994E+01 -0.185627737E+01
   H  0.342842693E+02  0.488443600E+00  0.315634632E+01
     4
 # iter = 63500  time[fs]=63.50000
   C -0.691420042E+01  0.344205565E+00  0.298769302E-01
   C  0.705600487E+01 -0.638197549E-01 -0.102485412E+00
   H -0.354572310E+02 -0.287500997E+01 -0.187827107E+01
   H  0.346807055E+02  0.494368443E+00  0.319298304E+01
     4
 # iter = 64000  time[fs]=64.00000
   C -0.700002867E+01  0.348655158E+00  0.304792615E-01
   C  0.714276661E+01 -0.648355931E-01 -0.104105334E+00
   H -0.358658512E+02 -0.290819402E+01 -0.190027348E+01
   H  0.350772840E+02  0.500295565E+00  0.322963435E+01
     4
 # iter = 64500  time[fs]=64.50000
   C -0.708592078E+01  0.353107642E+00  0.310824870E-01
   C  0.722959234E+01 -0.658533645E-01 -0.105726629E+00
   H -0.362746120E+02 -0.294139177E+01 -0.192228441E+01
   H  0.354740016E+02  0.506224918E+00  0.326629992E+01
     4
 # iter = 65000  time[fs]=65.00000
   C -0.717187521E+01  0.357562949E+00  0.316865890E-01
   C  0.731648050E+01 -0.668730250E-01 -0.107349269E+00
   H -0.366835102E+02 -0.297460292E+01 -0.194430367E+01
   H  0.358708553E+02  0.512156455E+00  0.330297946E+01
     4
 # iter = 65500  time[fs]=65.50000
   C -0.725789048E+01  0.362021017E+00  0.322915503E-01
   C  0.740342961E+01 -0.678945319E-01 -0.108973227E+00
   H -0.370925427E+02 -0.300782718E+01 -0.196633108E+01
   H  0.362678420E+02  0.518090129E+00  0.333967264E+01
     4
 # iter = 66000  time[fs]=66.00000
   C -0.734396515E+01  0.366481785E+00  0.328973539E-01
   C  0.749043822E+01 -0.689178439E-01 -0.110598477E+00
   H -0.375017067E+02 -0.304106428E+01 -0.198836647E+01
   H  0.366649589E+02  0.524025897E+00  0.337637919E+01
     4
 # iter = 66500  time[fs]=66.50000
   C -0.743009782E+01  0.370945194E+00  0.335039837E-01
   C  0.757750494E+01 -0.699429209E-01 -0.112224992E+00
   H -0.379109994E+02 -0.307431393E+01 -0.201040967E+01
   H  0.370622032E+02  0.529963715E+00  0.341309882E+01
     4
 # iter = 67000  time[fs]=67.00000
   C -0.751628716E+01  0.375411187E+00  0.341114236E-01
   C  0.766462843E+01 -0.709697245E-01 -0.113852747E+00
   H -0.383204179E+02 -0.310757588E+01 -0.203246051E+01
   H  0.374595722E+02  0.535903542E+00  0.344983125E+01
     4
 # iter = 67500  time[fs]=67.50000
   C -0.760253188E+01  0.379879708E+00  0.347196584E-01
   C  0.775180739E+01 -0.719982171E-01 -0.115481718E+00
   H -0.387299597E+02 -0.314084987E+01 -0.205451884E+01
   H  0.378570633E+02  0.541845337E+00  0.348657623E+01
     4
 # iter = 68000  time[fs]=68.00000
   C -0.768883072E+01  0.384350704E+00  0.353286729E-01
   C  0.783904056E+01 -0.730283624E-01 -0.117111882E+00
   H -0.391396222E+02 -0.317413566E+01 -0.207658450E+01
   H  0.382546739E+02  0.547789061E+00  0.352333350E+01
     4
 # iter = 68500  time[fs]=68.50000
   C -0.777518247E+01  0.388824122E+00  0.359384525E-01
   C  0.792632674E+01 -0.740601254E-01 -0.118743215E+00
   H -0.395494029E+02 -0.320743299E+01 -0.209865735E+01
   H  0.386524016E+02  0.553734676E+00  0.356010280E+01
     4
 # iter = 69000  time[fs]=69.00000
   C -0.786158595E+01  0.393299913E+00  0.365489830E-01
   C  0.801366475E+01 -0.750934720E-01 -0.120375695E+00
   H -0.399592993E+02 -0.324074165E+01 -0.212073724E+01
   H  0.390502441E+02  0.559682145E+00  0.359688389E+01
     4
 # iter = 69500  time[fs]=69.50000
   C -0.794804004E+01  0.397778028E+00  0.371602506E-01
   C  0.810105344E+01 -0.761283692E-01 -0.122009300E+00
   H -0.403693092E+02 -0.327406140E+01 -0.214282403E+01
   H  0.394481989E+02  0.565631432E+00  0.363367654E+01
     4
 # iter = 70000  time[fs]=70.00000
   C -0.803454364E+01  0.402258419E+00  0.377722418E-01
   C  0.818849173E+01 -0.771647851E-01 -0.123644009E+00
   H -0.407794302E+02 -0.330739203E+01 -0.216491758E+01
   H  0.398462639E+02  0.571582503E+00  0.367048053E+01
     4
 # iter = 70500  time[fs]=70.50000
   C -0.812109568E+01  0.406741041E+00  0.383849435E-01
   C  0.827597854E+01 -0.782026886E-01 -0.125279802E+00
   H -0.411896602E+02 -0.334073332E+01 -0.218701777E+01
   H  0.402444368E+02  0.577535323E+00  0.370729562E+01
     4
 # iter = 71000  time[fs]=71.00000
   C -0.820769513E+01  0.411225848E+00  0.389983428E-01
   C  0.836351285E+01 -0.792420497E-01 -0.126916659E+00
   H -0.415999970E+02 -0.337408507E+01 -0.220912447E+01
   H  0.406427156E+02  0.583489859E+00  0.374412162E+01
     4
 # iter = 71500  time[fs]=71.50000
   C -0.829434101E+01  0.415712798E+00  0.396124274E-01
   C  0.845109364E+01 -0.802828391E-01 -0.128554559E+00
   H -0.420104386E+02 -0.340744707E+01 -0.223123754E+01
   H  0.410410983E+02  0.589446080E+00  0.378095830E+01
     4
 # iter = 72000  time[fs]=72.00000
   C -0.838103232E+01  0.420201849E+00  0.402271851E-01
   C  0.853871996E+01 -0.813250285E-01 -0.130193485E+00
   H -0.424209828E+02 -0.344081913E+01 -0.225335688E+01
   H  0.414395827E+02  0.595403955E+00  0.381780546E+01
     4
 # iter = 72500  time[fs]=72.50000
   C -0.846776816E+01  0.424692959E+00  0.408426041E-01
   C  0.862639087E+01 -0.823685905E-01 -0.131833418E+00
   H -0.428316278E+02 -0.347420106E+01 -0.227548235E+01
   H  0.418381671E+02  0.601363452E+00  0.385466291E+01
     4
 # iter = 73000  time[fs]=73.00000
   C -0.855454759E+01  0.429186089E+00  0.414586729E-01
   C  0.871410545E+01 -0.834134981E-01 -0.133474339E+00
   H -0.432423717E+02 -0.350759268E+01 -0.229761386E+01
   H  0.422368494E+02  0.607324543E+00  0.389153046E+01
     4
 # iter = 73500  time[fs]=73.50000
   C -0.864136974E+01  0.433681201E+00  0.420753802E-01
   C  0.880186281E+01 -0.844597255E-01 -0.135116232E+00
   H -0.436532125E+02 -0.354099380E+01 -0.231975128E+01
   H  0.426356279E+02  0.613287200E+00  0.392840792E+01
     4
 # iter = 74000  time[fs]=74.00000
   C -0.872823375E+01  0.438178257E+00  0.426927151E-01
   C  0.888966211E+01 -0.855072475E-01 -0.136759078E+00
   H -0.440641486E+02 -0.357440426E+01 -0.234189452E+01
   H  0.430345008E+02  0.619251393E+00  0.396529510E+01
     4
 # iter = 74500  time[fs]=74.50000
   C -0.881513880E+01  0.442677221E+00  0.433106669E-01
   C  0.897750250E+01 -0.865560395E-01 -0.138402863E+00
   H -0.444751781E+02 -0.360782388E+01 -0.236404345E+01
   H  0.434334663E+02  0.625217097E+00  0.400219184E+01
     4
 # iter = 75000  time[fs]=75.00000
   C -0.890208406E+01  0.447178058E+00  0.439292252E-01
   C  0.906538318E+01 -0.876060776E-01 -0.140047569E+00
   H -0.448862993E+02 -0.364125250E+01 -0.238619799E+01
   H  0.438325228E+02  0.631184284E+00  0.403909796E+01
     4
 # iter = 75500  time[fs]=75.50000
   C -0.898906877E+01  0.451680732E+00  0.445483799E-01
   C  0.915330336E+01 -0.886573387E-01 -0.141693180E+00
   H -0.452975106E+02 -0.367468996E+01 -0.240835803E+01
   H  0.442316687E+02  0.637152929E+00  0.407601329E+01
     4
 # iter = 76000  time[fs]=76.00000
   C -0.907609216E+01  0.456185211E+00  0.451681209E-01
   C  0.924126228E+01 -0.897098002E-01 -0.143339682E+00
   H -0.457088104E+02 -0.370813610E+01 -0.243052347E+01
   H  0.446309023E+02  0.643123006E+00  0.411293767E+01
     4
 # iter = 76500  time[fs]=76.50000
   C -0.916315348E+01  0.460691462E+00  0.457884388E-01
   C  0.932925919E+01 -0.907634402E-01 -0.144987059E+00
   H -0.461201970E+02 -0.374159077E+01 -0.245269423E+01
   H  0.450302220E+02  0.649094492E+00  0.414987095E+01
     4
 # iter = 77000  time[fs]=77.00000
   C -0.925025202E+01  0.465199452E+00  0.464093239E-01
   C  0.941729339E+01 -0.918182372E-01 -0.146635297E+00
   H -0.465316691E+02 -0.377505382E+01 -0.247487020E+01
   H  0.454296265E+02  0.655067362E+00  0.418681297E+01
     4
 # iter = 77500  time[fs]=77.50000
   C -0.933738708E+01  0.469709153E+00  0.470307672E-01
   C  0.950536415E+01 -0.928741705E-01 -0.148284381E+00
   H -0.469432250E+02 -0.380852511E+01 -0.249705130E+01
   H  0.458291141E+02  0.661041594E+00  0.422376357E+01
     4
 # iter = 78000  time[fs]=78.00000
   C -0.942455798E+01  0.474220532E+00  0.476527595E-01
   C  0.959347081E+01 -0.939312199E-01 -0.149934297E+00
   H -0.473548633E+02 -0.384200449E+01 -0.251923744E+01
   H  0.462286835E+02  0.667017164E+00  0.426072261E+01
     4
 # iter = 78500  time[fs]=78.50000
   C -0.951176406E+01  0.478733561E+00  0.482752921E-01
   C  0.968161271E+01 -0.949893657E-01 -0.151585033E+00
   H -0.477665826E+02 -0.387549183E+01 -0.254142854E+01
   H  0.466283333E+02  0.672994050E+00  0.429768996E+01
     4
 # iter = 79000  time[fs]=79.00000
   C -0.959900467E+01  0.483248211E+00  0.488983564E-01
   C  0.976978918E+01 -0.960485885E-01 -0.153236574E+00
   H -0.481783815E+02 -0.390898699E+01 -0.256362451E+01
   H  0.470280620E+02  0.678972231E+00  0.433466546E+01
     4
 # iter = 79500  time[fs]=79.50000
   C -0.968627919E+01  0.487764455E+00  0.495219441E-01
   C  0.985799962E+01 -0.971088698E-01 -0.154888907E+00
   H -0.485902588E+02 -0.394248985E+01 -0.258582528E+01
   H  0.474278684E+02  0.684951686E+00  0.437164899E+01
     4
 # iter = 80000  time[fs]=80.00000
   C -0.977358700E+01  0.492282265E+00  0.501460469E-01
   C  0.994624340E+01 -0.981701912E-01 -0.156542021E+00
   H -0.490022129E+02 -0.397600028E+01 -0.260803075E+01
   H  0.478277512E+02  0.690932394E+00  0.440864041E+01
