     4
 # iter = 25000  time[fs]=25.00000
   C -0.104268094E+01 -0.929386976E-02  0.740727363E-02
   C  0.101573903E+01 -0.755002820E-02  0.520122968E-02
   H -0.526603164E+01  0.689511483E-01 -0.369396259E+00
   H  0.540107081E+01 -0.341755968E+00  0.336928162E+00
     4
 # iter = 25500  time[fs]=25.50000
   C -0.109225574E+01 -0.948341800E-02  0.891671736E-02
   C  0.106085458E+01 -0.665344588E-02  0.487789926E-02
   H -0.560719248E+01  0.744967368E-01 -0.394678069E+00
   H  0.572432787E+01 -0.363454736E+00  0.359135550E+00
     4
 # iter = 26000  time[fs]=26.00000
   C -0.114464144E+01 -0.967549940E-02  0.104529754E-01
   C  0.110881941E+01 -0.573348924E-02  0.453620838E-02
   H -0.595408249E+01  0.801437234E-01 -0.420417559E+00
   H  0.605285358E+01 -0.385504996E+00  0.381699173E+00
     4
 # iter = 26500  time[fs]=26.50000
   C -0.119960132E+01 -0.987099520E-02  0.120150001E-01
   C  0.115938908E+01 -0.479138879E-02  0.417597245E-02
   H -0.630603934E+01  0.858806158E-01 -0.446562545E+00
   H  0.638607820E+01 -0.407869915E+00  0.404581631E+00
     4
 # iter = 27000  time[fs]=27.00000
   C -0.125691599E+01 -0.100705516E-01  0.136017460E-01
   C  0.121233815E+01 -0.382831925E-02  0.379723539E-02
   H -0.666250345E+01  0.916976926E-01 -0.473068955E+00
   H  0.672351462E+01 -0.430517920E+00  0.427750873E+00
     4
 # iter = 27500  time[fs]=27.50000
   C -0.131638392E+01 -0.102746212E-01  0.152121609E-01
   C  0.126746035E+01 -0.284540718E-02  0.340022760E-02
   H -0.702299868E+01  0.975866706E-01 -0.499899285E+00
   H  0.706474389E+01 -0.453421779E+00  0.451179255E+00
     4
 # iter = 28000  time[fs]=28.00000
   C -0.137782130E+01 -0.104835005E-01  0.168451892E-01
   C  0.132456807E+01 -0.184373261E-02  0.298532437E-02
   H -0.738711725E+01  0.103540444E+00 -0.527021397E+00
   H  0.740940361E+01 -0.476557866E+00  0.474842804E+00
     4
 # iter = 28500  time[fs]=28.50000
   C -0.144106118E+01 -0.106973631E-01  0.184997802E-01
   C  0.138349134E+01 -0.824328211E-03  0.255300841E-02
   H -0.775450768E+01  0.109552877E+00 -0.554407564E+00
   H  0.775717862E+01 -0.499905572E+00  0.498720609E+00
     4
 # iter = 29000  time[fs]=29.00000
   C -0.150595247E+01 -0.109162870E-01  0.201748981E-01
   C  0.144407663E+01  0.211822264E-03  0.210383776E-02
   H -0.812486528E+01  0.115618642E+00 -0.582033724E+00
   H  0.810779343E+01 -0.523446826E+00  0.522794340E+00
     4
 # iter = 29500  time[fs]=29.50000
   C -0.157235868E+01 -0.111402776E-01  0.218695309E-01
   C  0.150618548E+01  0.126378522E-02  0.163841954E-02
   H -0.849792446E+01  0.121733085E+00 -0.609878873E+00
   H  0.846100608E+01 -0.547165708E+00  0.547047851E+00
     4
 # iter = 30000  time[fs]=30.00000
   C -0.164015665E+01 -0.113692857E-01  0.235826980E-01
   C  0.156969314E+01  0.233067781E-02  0.115738904E-02
   H -0.887345250E+01  0.127892119E+00 -0.637924580E+00
   H  0.881660310E+01 -0.571048127E+00  0.571466856E+00
     4
 # iter = 30500  time[fs]=30.50000
   C -0.170923528E+01 -0.116032223E-01  0.253134557E-01
   C  0.163448719E+01  0.341166778E-02  0.661393480E-03
   H -0.925124450E+01  0.134092141E+00 -0.666154591E+00
   H  0.917439530E+01 -0.595081559E+00  0.596038659E+00
     4
 # iter = 31000  time[fs]=31.00000
   C -0.177949436E+01 -0.118419701E-01  0.270609011E-01
   C  0.170046634E+01  0.450597256E-02  0.151079782E-03
   H -0.963111926E+01  0.140329955E+00 -0.694554508E+00
   H  0.953421439E+01 -0.619254828E+00  0.620751934E+00
     4
 # iter = 31500  time[fs]=31.50000
   C -0.185084342E+01 -0.120853921E-01  0.288241742E-01
   C  0.176753924E+01  0.561285790E-02 -0.372914519E-03
   H -0.100129158E+02  0.146602719E+00 -0.723111519E+00
   H  0.989591007E+01 -0.643557924E+00  0.645596538E+00
     4
 # iter = 32000  time[fs]=32.00000
   C -0.192320071E+01 -0.123333384E-01  0.306024594E-01
   C  0.183562340E+01  0.673163591E-02 -0.909967746E-03
   H -0.103964906E+02  0.152907892E+00 -0.751814180E+00
   H  0.102593476E+02 -0.667981847E+00  0.670563353E+00
     4
 # iter = 32500  time[fs]=32.50000
   C -0.199649231E+01 -0.125856521E-01  0.323949852E-01
   C  0.190464430E+01  0.786166298E-02 -0.145947856E-02
   H -0.107817152E+02  0.159243196E+00 -0.780652228E+00
   H  0.106244059E+02 -0.692518483E+00  0.695644159E+00
     4
 # iter = 33000  time[fs]=33.00000
   C -0.207065123E+01 -0.128421722E-01  0.342010235E-01
   C  0.197453443E+01  0.900233739E-02 -0.202086888E-02
   H -0.111684742E+02  0.165606578E+00 -0.809616428E+00
   H  0.109909755E+02 -0.717160488E+00  0.720831520E+00
     4
 # iter = 33500  time[fs]=33.50000
   C -0.214561674E+01 -0.131027374E-01  0.360198887E-01
   C  0.204523264E+01  0.101530969E-01 -0.259358565E-02
   H -0.115566634E+02  0.171996188E+00 -0.838698440E+00
   H  0.113589577E+02 -0.741901200E+00  0.746118690E+00
     4
 # iter = 34000  time[fs]=34.00000
   C -0.222133363E+01 -0.133671879E-01  0.378509356E-01
   C  0.211668336E+01  0.113134162E-01 -0.317710165E-02
   H -0.119461890E+02  0.178410347E+00 -0.867890712E+00
   H  0.117282625E+02 -0.766734555E+00  0.771499529E+00
     4
 # iter = 34500  time[fs]=34.50000
   C -0.229775167E+01 -0.136353670E-01  0.396935581E-01
   C  0.218883606E+01  0.124828046E-01 -0.377091576E-02
   H -0.123369655E+02  0.184847529E+00 -0.897186382E+00
   H  0.120988083E+02 -0.791655021E+00  0.796968437E+00
     4
 # iter = 35000  time[fs]=35.00000
   C -0.237482507E+01 -0.139071222E-01  0.415471867E-01
   C  0.226164471E+01  0.136608038E-01 -0.437455266E-02
   H -0.127289155E+02  0.191306347E+00 -0.926579200E+00
   H  0.124705204E+02 -0.816657536E+00  0.822520291E+00
     4
 # iter = 35500  time[fs]=35.50000
   C -0.245251202E+01 -0.141823061E-01  0.434112870E-01
   C  0.233506728E+01  0.148469853E-01 -0.498756223E-02
   H -0.131219680E+02  0.197785530E+00 -0.956063456E+00
   H  0.128433308E+02 -0.841737462E+00  0.848150397E+00
     4
 # iter = 36000  time[fs]=36.00000
   C -0.253077427E+01 -0.144607765E-01  0.452853570E-01
   C  0.240906535E+01  0.160409486E-01 -0.560951870E-02
   H -0.135160586E+02  0.204283917E+00 -0.985633922E+00
   H  0.132171768E+02 -0.866890534E+00  0.873854438E+00
     4
 # iter = 36500  time[fs]=36.50000
   C -0.260957678E+01 -0.147423973E-01  0.471689256E-01
   C  0.248360372E+01  0.172423189E-01 -0.624001971E-02
   H -0.139111279E+02  0.210800441E+00 -0.101528580E+01
   H  0.135920009E+02 -0.892112823E+00  0.899628440E+00
     4
 # iter = 37000  time[fs]=37.00000
   C -0.268888737E+01 -0.150270379E-01  0.490615506E-01
   C  0.255865009E+01  0.184507456E-01 -0.687868517E-02
   H -0.143071215E+02  0.217334119E+00 -0.104501467E+01
   H  0.139677504E+02 -0.917400705E+00  0.925468737E+00
     4
 # iter = 37500  time[fs]=37.50000
   C -0.276867647E+01 -0.153145737E-01  0.509628163E-01
   C  0.263417479E+01  0.196659001E-01 -0.752515621E-02
   H -0.147039893E+02  0.223884047E+00 -0.107481647E+01
   H  0.143443762E+02 -0.942750827E+00  0.951371936E+00
     4
 # iter = 38000  time[fs]=38.00000
   C -0.284891685E+01 -0.156048860E-01  0.528723324E-01
   C  0.271015049E+01  0.208874745E-01 -0.817909398E-02
   H -0.151016851E+02  0.230449388E+00 -0.110468743E+01
   H  0.147218334E+02 -0.968160085E+00  0.977334897E+00
     4
 # iter = 38500  time[fs]=38.50000
   C -0.292958339E+01 -0.158978616E-01  0.547897318E-01
   C  0.278655200E+01  0.221151801E-01 -0.884017857E-02
   H -0.155001661E+02  0.237029368E+00 -0.113462408E+01
   H  0.151000799E+02 -0.993625595E+00  0.100335470E+01
     4
 # iter = 39000  time[fs]=39.00000
   C -0.301065288E+01 -0.161933928E-01  0.567146694E-01
   C  0.286335605E+01  0.233487456E-01 -0.950810788E-02
   H -0.158993928E+02  0.243623269E+00 -0.116462318E+01
   H  0.154790772E+02 -0.101914468E+01  0.102942865E+01
     4
 # iter = 39500  time[fs]=39.50000
   C -0.309210385E+01 -0.164913774E-01  0.586468202E-01
   C  0.294054112E+01  0.245879163E-01 -0.101825966E-01
   H -0.162993286E+02  0.250230423E+00 -0.119468174E+01
   H  0.158587890E+02 -0.104471484E+01  0.105555420E+01
     4
 # iter = 40000  time[fs]=40.00000
   C -0.317391640E+01 -0.167917180E-01  0.605858783E-01
   C  0.301808727E+01  0.258324528E-01 -0.108633750E-01
   H -0.166999392E+02  0.256850211E+00 -0.122479697E+01
   H  0.162391817E+02 -0.107033375E+01  0.108172901E+01
     4
 # iter = 40500  time[fs]=40.50000
   C -0.325607207E+01 -0.170943222E-01  0.625315554E-01
   C  0.309597598E+01  0.270821296E-01 -0.115501885E-01
   H -0.171011931E+02  0.263482052E+00 -0.125496627E+01
   H  0.166202242E+02 -0.109599923E+01  0.110795088E+01
     4
 # iter = 41000  time[fs]=41.00000
   C -0.333855368E+01 -0.173991023E-01  0.644835795E-01
   C  0.317419008E+01  0.283367344E-01 -0.122427959E-01
   H -0.175030606E+02  0.270125408E+00 -0.128518721E+01
   H  0.170018871E+02 -0.112170925E+01  0.113421776E+01
     4
 # iter = 41500  time[fs]=41.50000
   C -0.342134528E+01 -0.177059747E-01  0.664416942E-01
   C  0.325271357E+01  0.295960671E-01 -0.129409693E-01
   H -0.179055140E+02  0.276779772E+00 -0.131545751E+01
   H  0.173841431E+02 -0.114746191E+01  0.116052771E+01
     4
 # iter = 42000  time[fs]=42.00000
   C -0.350443197E+01 -0.180148602E-01  0.684056569E-01
   C  0.333153154E+01  0.308599389E-01 -0.136444929E-01
   H -0.183085276E+02  0.283444672E+00 -0.134577507E+01
   H  0.177669665E+02 -0.117325542E+01  0.118687893E+01
     4
 # iter = 42500  time[fs]=42.50000
   C -0.358779987E+01 -0.183256834E-01  0.703752389E-01
   C  0.341063009E+01  0.321281715E-01 -0.143531624E-01
   H -0.187120771E+02  0.290119664E+00 -0.137613787E+01
   H  0.181503334E+02 -0.119908809E+01  0.121326972E+01
     4
 # iter = 43000  time[fs]=43.00000
   C -0.367143600E+01 -0.186383729E-01  0.723502235E-01
   C  0.348999624E+01  0.334005965E-01 -0.150667839E-01
   H -0.191161399E+02  0.296804331E+00 -0.140654405E+01
   H  0.185342213E+02 -0.122495836E+01  0.123969849E+01
     4
 # iter = 43500  time[fs]=43.50000
   C -0.375532822E+01 -0.189528605E-01  0.743304057E-01
   C  0.356961783E+01  0.346770545E-01 -0.157851739E-01
   H -0.195206947E+02  0.303498283E+00 -0.143699186E+01
   H  0.189186088E+02 -0.125086472E+01  0.126616373E+01
     4
 # iter = 44000  time[fs]=44.00000
   C -0.383946516E+01 -0.192690814E-01  0.763155915E-01
   C  0.364948349E+01  0.359573948E-01 -0.165081581E-01
   H -0.199257215E+02  0.310201152E+00 -0.146747964E+01
   H  0.193034762E+02 -0.127680580E+01  0.129266402E+01
     4
 # iter = 44500  time[fs]=44.50000
   C -0.392383616E+01 -0.195869740E-01  0.783055969E-01
   C  0.372958256E+01  0.372414744E-01 -0.172355711E-01
   H -0.203312015E+02  0.316912589E+00 -0.149800584E+01
   H  0.196888045E+02 -0.130278025E+01  0.131919805E+01
     4
 # iter = 45000  time[fs]=45.00000
   C -0.400843120E+01 -0.199064798E-01  0.803002474E-01
   C  0.380990502E+01  0.385291580E-01 -0.179672557E-01
   H -0.207371168E+02  0.323632268E+00 -0.152856897E+01
   H  0.200745760E+02 -0.132878683E+01  0.134576453E+01
     4
 # iter = 45500  time[fs]=45.50000
   C -0.409324089E+01 -0.202275429E-01  0.822993774E-01
   C  0.389044147E+01  0.398203172E-01 -0.187030625E-01
   H -0.211434509E+02  0.330359879E+00 -0.155916766E+01
   H  0.204607741E+02 -0.135482437E+01  0.137236227E+01
     4
 # iter = 46000  time[fs]=46.00000
   C -0.417825636E+01 -0.205501100E-01  0.843028296E-01
   C  0.397118306E+01  0.411148299E-01 -0.194428494E-01
   H -0.215501878E+02  0.337095131E+00 -0.158980059E+01
   H  0.208473828E+02 -0.138089174E+01  0.139899015E+01
     4
 # iter = 46500  time[fs]=46.50000
   C -0.426346928E+01 -0.208741305E-01  0.863104545E-01
   C  0.405212146E+01  0.424125802E-01 -0.201864813E-01
   H -0.219573127E+02  0.343837746E+00 -0.162046651E+01
   H  0.212343873E+02 -0.140698788E+01  0.142564711E+01
     4
 # iter = 47000  time[fs]=47.00000
   C -0.434887180E+01 -0.211995560E-01  0.883221100E-01
   C  0.413324880E+01  0.437134581E-01 -0.209338294E-01
   H -0.223648114E+02  0.350587463E+00 -0.165116427E+01
   H  0.216217733E+02 -0.143311180E+01  0.145233211E+01
     4
 # iter = 47500  time[fs]=47.50000
   C -0.443445650E+01 -0.215263405E-01  0.903376606E-01
   C  0.421455769E+01  0.450173585E-01 -0.216847710E-01
   H -0.227726705E+02  0.357344034E+00 -0.168189273E+01
   H  0.220095273E+02 -0.145926253E+01  0.147904420E+01
     4
 # iter = 48000  time[fs]=48.00000
   C -0.452021637E+01 -0.218544398E-01  0.923569776E-01
   C  0.429604112E+01  0.463241818E-01 -0.224391892E-01
   H -0.231808774E+02  0.364107223E+00 -0.171265085E+01
   H  0.223976367E+02 -0.148543918E+01  0.150578247E+01
     4
 # iter = 48500  time[fs]=48.50000
   C -0.460614479E+01 -0.221838120E-01  0.943799380E-01
   C  0.437769247E+01  0.476338328E-01 -0.231969722E-01
   H -0.235894200E+02  0.370876806E+00 -0.174343761E+01
   H  0.227860894E+02 -0.151164087E+01  0.153254604E+01
     4
 # iter = 49000  time[fs]=49.00000
   C -0.469223549E+01 -0.225144169E-01  0.964064249E-01
   C  0.445950549E+01  0.489462208E-01 -0.239580137E-01
   H -0.239982869E+02  0.377652570E+00 -0.177425207E+01
   H  0.231748737E+02 -0.153786681E+01  0.155933409E+01
     4
 # iter = 49500  time[fs]=49.50000
   C -0.477848254E+01 -0.228462161E-01  0.984363264E-01
   C  0.454147425E+01  0.502612593E-01 -0.247222119E-01
   H -0.244074672E+02  0.384434314E+00 -0.180509331E+01
   H  0.235639788E+02 -0.156411619E+01  0.158614583E+01
     4
 # iter = 50000  time[fs]=50.00000
   C -0.486488031E+01 -0.231791729E-01  0.100469536E+00
   C  0.462359311E+01  0.515788658E-01 -0.254894696E-01
   H -0.248169506E+02  0.391221844E+00 -0.183596048E+01
   H  0.239533942E+02 -0.159038829E+01  0.161298051E+01
     4
 # iter = 50500  time[fs]=50.50000
   C -0.495142346E+01 -0.235132521E-01  0.102505951E+00
   C  0.470585677E+01  0.528989613E-01 -0.262596938E-01
   H -0.252267273E+02  0.398014977E+00 -0.186685274E+01
   H  0.243431100E+02 -0.161668239E+01  0.163983742E+01
     4
 # iter = 51000  time[fs]=51.00000
   C -0.503810691E+01 -0.238484201E-01  0.104545476E+00
   C  0.478826014E+01  0.542214704E-01 -0.270327956E-01
   H -0.256367878E+02  0.404813538E+00 -0.189776931E+01
   H  0.247331168E+02 -0.164299782E+01  0.166671586E+01
     4
 # iter = 51500  time[fs]=51.50000
   C -0.512492587E+01 -0.241846448E-01  0.106588015E+00
   C  0.487079844E+01  0.555463211E-01 -0.278086899E-01
   H -0.260471234E+02  0.411617360E+00 -0.192870945E+01
   H  0.251234054E+02 -0.166933392E+01  0.169361519E+01
     4
 # iter = 52000  time[fs]=52.00000
   C -0.521187573E+01 -0.245218952E-01  0.108633481E+00
   C  0.495346707E+01  0.568734443E-01 -0.285872952E-01
   H -0.264577253E+02  0.418426283E+00 -0.195967243E+01
   H  0.255139674E+02 -0.169569009E+01  0.172053479E+01
     4
 # iter = 52500  time[fs]=52.50000
   C -0.529895216E+01 -0.248601417E-01  0.110681788E+00
   C  0.503626170E+01  0.582027739E-01 -0.293685333E-01
   H -0.268685856E+02  0.425240155E+00 -0.199065758E+01
   H  0.259047944E+02 -0.172206573E+01  0.174747405E+01
     4
 # iter = 53000  time[fs]=53.00000
   C -0.538615098E+01 -0.251993561E-01  0.112732854E+00
   C  0.511917818E+01  0.595342467E-01 -0.301523293E-01
   H -0.272796964E+02  0.432058831E+00 -0.202166424E+01
   H  0.262958786E+02 -0.174846027E+01  0.177443241E+01
     4
 # iter = 53500  time[fs]=53.50000
   C -0.547346825E+01 -0.255395111E-01  0.114786600E+00
   C  0.520221255E+01  0.608678019E-01 -0.309386115E-01
   H -0.276910503E+02  0.438882170E+00 -0.205269178E+01
   H  0.266872124E+02 -0.177487319E+01  0.180140932E+01
     4
 # iter = 54000  time[fs]=54.00000
   C -0.556090020E+01 -0.258805804E-01  0.116842952E+00
   C  0.528536107E+01  0.622033814E-01 -0.317273108E-01
   H -0.281026401E+02  0.445710040E+00 -0.208373961E+01
   H  0.270787887E+02 -0.180130395E+01  0.182840425E+01
     4
 # iter = 54500  time[fs]=54.50000
   C -0.564844321E+01 -0.262225391E-01  0.118901837E+00
   C  0.536862013E+01  0.635409293E-01 -0.325183611E-01
   H -0.285144592E+02  0.452542312E+00 -0.211480715E+01
   H  0.274706004E+02 -0.182775206E+01  0.185541672E+01
     4
 # iter = 55000  time[fs]=55.00000
   C -0.573609386E+01 -0.265653630E-01  0.120963186E+00
   C  0.545198630E+01  0.648803920E-01 -0.333116989E-01
   H -0.289265009E+02  0.459378864E+00 -0.214589385E+01
   H  0.278626411E+02 -0.185421705E+01  0.188244622E+01
     4
 # iter = 55500  time[fs]=55.50000
   C -0.582384886E+01 -0.269090290E-01  0.123026932E+00
   C  0.553545631E+01  0.662217180E-01 -0.341072629E-01
   H -0.293387591E+02  0.466219579E+00 -0.217699919E+01
   H  0.282549044E+02 -0.188069846E+01  0.190949231E+01
     4
 # iter = 56000  time[fs]=56.00000
   C -0.591170507E+01 -0.272535146E-01  0.125093012E+00
   C  0.561902703E+01  0.675648578E-01 -0.349049945E-01
   H -0.297512277E+02  0.473064343E+00 -0.220812266E+01
   H  0.286473841E+02 -0.190719584E+01  0.193655454E+01
     4
 # iter = 56500  time[fs]=56.50000
   C -0.599965947E+01 -0.275987985E-01  0.127161365E+00
   C  0.570269545E+01  0.689097639E-01 -0.357048371E-01
   H -0.301639010E+02  0.479913049E+00 -0.223926378E+01
   H  0.290400744E+02 -0.193370878E+01  0.196363247E+01
     4
 # iter = 57000  time[fs]=57.00000
   C -0.608770920E+01 -0.279448601E-01  0.129231929E+00
   C  0.578645871E+01  0.702563905E-01 -0.365067364E-01
   H -0.305767734E+02  0.486765591E+00 -0.227042207E+01
   H  0.294329697E+02 -0.196023688E+01  0.199072571E+01
     4
 # iter = 57500  time[fs]=57.50000
   C -0.617585151E+01 -0.282916794E-01  0.131304650E+00
   C  0.587031406E+01  0.716046934E-01 -0.373106399E-01
   H -0.309898398E+02  0.493621871E+00 -0.230159709E+01
   H  0.298260647E+02 -0.198677973E+01  0.201783386E+01
     4
 # iter = 58000  time[fs]=58.00000
   C -0.626408373E+01 -0.286392372E-01  0.133379472E+00
   C  0.595425887E+01  0.729546305E-01 -0.381164973E-01
   H -0.314030949E+02  0.500481792E+00 -0.233278840E+01
   H  0.302193541E+02 -0.201333697E+01  0.204495654E+01
     4
 # iter = 58500  time[fs]=58.50000
   C -0.635240336E+01 -0.289875152E-01  0.135456343E+00
   C  0.603829061E+01  0.743061607E-01 -0.389242600E-01
   H -0.318165339E+02  0.507345261E+00 -0.236399560E+01
   H  0.306128329E+02 -0.203990824E+01  0.207209339E+01
     4
 # iter = 59000  time[fs]=59.00000
   C -0.644080795E+01 -0.293364956E-01  0.137535211E+00
   C  0.612240686E+01  0.756592447E-01 -0.397338811E-01
   H -0.322301521E+02  0.514212190E+00 -0.239521829E+01
   H  0.310064964E+02 -0.206649318E+01  0.209924404E+01
     4
 # iter = 59500  time[fs]=59.50000
   C -0.652929518E+01 -0.296861611E-01  0.139616028E+00
   C  0.620660530E+01  0.770138446E-01 -0.405453154E-01
   H -0.326439449E+02  0.521082492E+00 -0.242645607E+01
   H  0.314003398E+02 -0.209309147E+01  0.212640818E+01
     4
 # iter = 60000  time[fs]=60.00000
   C -0.661786280E+01 -0.300364953E-01  0.141698746E+00
   C  0.629088370E+01  0.783699238E-01 -0.413585194E-01
   H -0.330579080E+02  0.527956085E+00 -0.245770859E+01
   H  0.317943589E+02 -0.211970277E+01  0.215358546E+01
     4
 # iter = 60500  time[fs]=60.50000
   C -0.670650867E+01 -0.303874821E-01  0.143783320E+00
   C  0.637523990E+01  0.797274470E-01 -0.421734510E-01
   H -0.334720371E+02  0.534832890E+00 -0.248897547E+01
   H  0.321885492E+02 -0.214632679E+01  0.218077557E+01
     4
 # iter = 61000  time[fs]=61.00000
   C -0.679523071E+01 -0.307391061E-01  0.145869705E+00
   C  0.645967186E+01  0.810863800E-01 -0.429900695E-01
   H -0.338863283E+02  0.541712829E+00 -0.252025638E+01
   H  0.325829066E+02 -0.217296320E+01  0.220797822E+01
     4
 # iter = 61500  time[fs]=61.50000
   C -0.688402694E+01 -0.310913524E-01  0.147957860E+00
   C  0.654417759E+01  0.824466901E-01 -0.438083358E-01
   H -0.343007777E+02  0.548595828E+00 -0.255155099E+01
   H  0.329774272E+02 -0.219961174E+01  0.223519310E+01
     4
 # iter = 62000  time[fs]=62.00000
   C -0.697289544E+01 -0.314442067E-01  0.150047743E+00
   C  0.662875518E+01  0.838083454E-01 -0.446282119E-01
   H -0.347153813E+02  0.555481816E+00 -0.258285897E+01
   H  0.333721070E+02 -0.222627211E+01  0.226241993E+01
     4
 # iter = 62500  time[fs]=62.50000
   C -0.706183437E+01 -0.317976550E-01  0.152139315E+00
   C  0.671340279E+01  0.851713152E-01 -0.454496613E-01
   H -0.351301357E+02  0.562370724E+00 -0.261418001E+01
   H  0.337669425E+02 -0.225294405E+01  0.228965845E+01
     4
 # iter = 63000  time[fs]=63.00000
   C -0.715084196E+01 -0.321516838E-01  0.154232536E+00
   C  0.679811866E+01  0.865355698E-01 -0.462726485E-01
   H -0.355450373E+02  0.569262484E+00 -0.264551382E+01
   H  0.341619299E+02 -0.227962729E+01  0.231690838E+01
     4
 # iter = 63500  time[fs]=63.50000
   C -0.723991649E+01 -0.325062802E-01  0.156327371E+00
   C  0.688290108E+01  0.879010805E-01 -0.470971393E-01
   H -0.359600827E+02  0.576157034E+00 -0.267686011E+01
   H  0.345570658E+02 -0.230632158E+01  0.234416948E+01
     4
 # iter = 64000  time[fs]=64.00000
   C -0.732905632E+01 -0.328614315E-01  0.158423784E+00
   C  0.696774842E+01  0.892678196E-01 -0.479231004E-01
   H -0.363752686E+02  0.583054309E+00 -0.270821859E+01
   H  0.349523469E+02 -0.233302668E+01  0.237144149E+01
     4
 # iter = 64500  time[fs]=64.50000
   C -0.741825986E+01 -0.332171256E-01  0.160521739E+00
   C  0.705265908E+01  0.906357601E-01 -0.487504999E-01
   H -0.367905920E+02  0.589954250E+00 -0.273958901E+01
   H  0.353477699E+02 -0.235974235E+01  0.239872417E+01
     4
 # iter = 65000  time[fs]=65.00000
   C -0.750752557E+01 -0.335733507E-01  0.162621203E+00
   C  0.713763155E+01  0.920048761E-01 -0.495793067E-01
   H -0.372060496E+02  0.596856799E+00 -0.277097109E+01
   H  0.357433317E+02 -0.238646836E+01  0.242601730E+01
     4
 # iter = 65500  time[fs]=65.50000
   C -0.759685198E+01 -0.339300954E-01  0.164722144E+00
   C  0.722266435E+01  0.933751424E-01 -0.504094906E-01
   H -0.376216386E+02  0.603761900E+00 -0.280236458E+01
   H  0.361390292E+02 -0.241320449E+01  0.245332065E+01
     4
 # iter = 66000  time[fs]=66.00000
   C -0.768623766E+01 -0.342873485E-01  0.166824530E+00
   C  0.730775605E+01  0.947465345E-01 -0.512410226E-01
   H -0.380373561E+02  0.610669496E+00 -0.283376924E+01
   H  0.365348596E+02 -0.243995052E+01  0.248063400E+01
     4
 # iter = 66500  time[fs]=66.50000
   C -0.777568122E+01 -0.346450994E-01  0.168928330E+00
   C  0.739290529E+01  0.961190289E-01 -0.520738744E-01
   H -0.384531993E+02  0.617579537E+00 -0.286518484E+01
   H  0.369308199E+02 -0.246670626E+01  0.250795715E+01
     4
 # iter = 67000  time[fs]=67.00000
   C -0.786518134E+01 -0.350033376E-01  0.171033516E+00
   C  0.747811074E+01  0.974926026E-01 -0.529080187E-01
   H -0.388691655E+02  0.624491970E+00 -0.289661113E+01
   H  0.373269075E+02 -0.249347149E+01  0.253528989E+01
     4
 # iter = 67500  time[fs]=67.50000
   C -0.795473673E+01 -0.353620531E-01  0.173140058E+00
   C  0.756337110E+01  0.988672334E-01 -0.537434288E-01
   H -0.392852522E+02  0.631406746E+00 -0.292804791E+01
   H  0.377231196E+02 -0.252024602E+01  0.256263202E+01
     4
 # iter = 68000  time[fs]=68.00000
   C -0.804434614E+01 -0.357212362E-01  0.175247929E+00
   C  0.764868516E+01  0.100242900E+00 -0.545800790E-01
   H -0.397014567E+02  0.638323816E+00 -0.295949495E+01
   H  0.381194537E+02 -0.254702966E+01  0.258998335E+01
     4
 # iter = 68500  time[fs]=68.50000
   C -0.813400836E+01 -0.360808772E-01  0.177357101E+00
   C  0.773405169E+01  0.101619581E+00 -0.554179444E-01
   H -0.401177768E+02  0.645243134E+00 -0.299095204E+01
   H  0.385159072E+02 -0.257382223E+01  0.261734370E+01
     4
 # iter = 69000  time[fs]=69.00000
   C -0.822372224E+01 -0.364409671E-01  0.179467549E+00
   C  0.781946955E+01  0.102997256E+00 -0.562570007E-01
   H -0.405342100E+02  0.652164656E+00 -0.302241899E+01
   H  0.389124778E+02 -0.260062354E+01  0.264471288E+01
     4
 # iter = 69500  time[fs]=69.50000
   C -0.831348664E+01 -0.368014969E-01  0.181579247E+00
   C  0.790493761E+01  0.104375906E+00 -0.570972244E-01
   H -0.409507539E+02  0.659088336E+00 -0.305389559E+01
   H  0.393091631E+02 -0.262743344E+01  0.267209073E+01
     4
 # iter = 70000  time[fs]=70.00000
   C -0.840330047E+01 -0.371624579E-01  0.183692171E+00
   C  0.799045479E+01  0.105755512E+00 -0.579385925E-01
   H -0.413674065E+02  0.666014132E+00 -0.308538166E+01
   H  0.397059607E+02 -0.265425174E+01  0.269947707E+01
     4
 # iter = 70500  time[fs]=70.50000
   C -0.849316268E+01 -0.375238417E-01  0.185806297E+00
   C  0.807602003E+01  0.107136055E+00 -0.587810830E-01
   H -0.417841655E+02  0.672942003E+00 -0.311687701E+01
   H  0.401028686E+02 -0.268107829E+01  0.272687173E+01
     4
 # iter = 71000  time[fs]=71.00000
   C -0.858307223E+01 -0.378856401E-01  0.187921600E+00
   C  0.816163230E+01  0.108517516E+00 -0.596246742E-01
   H -0.422010288E+02  0.679871908E+00 -0.314838146E+01
   H  0.404998844E+02 -0.270791293E+01  0.275427457E+01
     4
 # iter = 71500  time[fs]=71.50000
   C -0.867302814E+01 -0.382478451E-01  0.190038060E+00
   C  0.824729063E+01  0.109899880E+00 -0.604693451E-01
   H -0.426179945E+02  0.686803809E+00 -0.317989483E+01
   H  0.408970062E+02 -0.273475550E+01  0.278168541E+01
     4
 # iter = 72000  time[fs]=72.00000
   C -0.876302944E+01 -0.386104491E-01  0.192155654E+00
   C  0.833299406E+01  0.111283127E+00 -0.613150754E-01
   H -0.430350604E+02  0.693737668E+00 -0.321141696E+01
   H  0.412942319E+02 -0.276160585E+01  0.280910412E+01
     4
 # iter = 72500  time[fs]=72.50000
   C -0.885307520E+01 -0.389734445E-01  0.194274360E+00
   C  0.841874165E+01  0.112667243E+00 -0.621618453E-01
   H -0.434522247E+02  0.700673448E+00 -0.324294767E+01
   H  0.416915595E+02 -0.278846384E+01  0.283653054E+01
     4
 # iter = 73000  time[fs]=73.00000
   C -0.894316451E+01 -0.393368239E-01  0.196394157E+00
   C  0.850453250E+01  0.114052210E+00 -0.630096355E-01
   H -0.438694856E+02  0.707611112E+00 -0.327448682E+01
   H  0.420889871E+02 -0.281532933E+01  0.286396453E+01
     4
 # iter = 73500  time[fs]=73.50000
   C -0.903329650E+01 -0.397005804E-01  0.198515027E+00
   C  0.859036575E+01  0.115438013E+00 -0.638584273E-01
   H -0.442868412E+02  0.714550627E+00 -0.330603424E+01
   H  0.424865128E+02 -0.284220218E+01  0.289140596E+01
     4
 # iter = 74000  time[fs]=74.00000
   C -0.912347031E+01 -0.400647069E-01  0.200636948E+00
   C  0.867624053E+01  0.116824637E+00 -0.647082023E-01
   H -0.447042897E+02  0.721491958E+00 -0.333758978E+01
   H  0.428841348E+02 -0.286908225E+01  0.291885468E+01
     4
 # iter = 74500  time[fs]=74.50000
   C -0.921368511E+01 -0.404291967E-01  0.202759902E+00
   C  0.876215604E+01  0.118212068E+00 -0.655589429E-01
   H -0.451218294E+02  0.728435072E+00 -0.336915329E+01
   H  0.432818514E+02 -0.289596942E+01  0.294631057E+01
     4
 # iter = 75000  time[fs]=75.00000
   C -0.930394011E+01 -0.407940434E-01  0.204883871E+00
   C  0.884811146E+01  0.119600289E+00 -0.664106318E-01
   H -0.455394588E+02  0.735379937E+00 -0.340072464E+01
   H  0.436796608E+02 -0.292286356E+01  0.297377350E+01
     4
 # iter = 75500  time[fs]=75.50000
   C -0.939423451E+01 -0.411592405E-01  0.207008836E+00
   C  0.893410602E+01  0.120989289E+00 -0.672632521E-01
   H -0.459571760E+02  0.742326523E+00 -0.343230367E+01
   H  0.440775614E+02 -0.294976454E+01  0.300124334E+01
     4
 # iter = 76000  time[fs]=76.00000
   C -0.948456756E+01 -0.415247817E-01  0.209134779E+00
   C  0.902013897E+01  0.122379052E+00 -0.681167874E-01
   H -0.463749797E+02  0.749274797E+00 -0.346389026E+01
   H  0.444755515E+02 -0.297667225E+01  0.302871997E+01
     4
 # iter = 76500  time[fs]=76.50000
   C -0.957493853E+01 -0.418906611E-01  0.211261683E+00
   C  0.910620957E+01  0.123769566E+00 -0.689712218E-01
   H -0.467928681E+02  0.756224732E+00 -0.349548427E+01
   H  0.448736296E+02 -0.300358657E+01  0.305620327E+01
     4
 # iter = 77000  time[fs]=77.00000
   C -0.966534669E+01 -0.422568728E-01  0.213389533E+00
   C  0.919231711E+01  0.125160817E+00 -0.698265398E-01
   H -0.472108399E+02  0.763176298E+00 -0.352708558E+01
   H  0.452717940E+02 -0.303050738E+01  0.308369314E+01
     4
 # iter = 77500  time[fs]=77.50000
   C -0.975579136E+01 -0.426234109E-01  0.215518310E+00
   C  0.927846090E+01  0.126552793E+00 -0.706827261E-01
   H -0.476288935E+02  0.770129466E+00 -0.355869405E+01
   H  0.456700434E+02 -0.305743457E+01  0.311118945E+01
     4
 # iter = 78000  time[fs]=78.00000
   C -0.984627184E+01 -0.429902700E-01  0.217648001E+00
   C  0.936464026E+01  0.127945481E+00 -0.715397660E-01
   H -0.480470276E+02  0.777084210E+00 -0.359030956E+01
   H  0.460683762E+02 -0.308436804E+01  0.313869210E+01
     4
 # iter = 78500  time[fs]=78.50000
   C -0.993678749E+01 -0.433574445E-01  0.219778588E+00
   C  0.945085454E+01  0.129338870E+00 -0.723976451E-01
   H -0.484652408E+02  0.784040503E+00 -0.362193200E+01
   H  0.464667910E+02 -0.311130768E+01  0.316620098E+01
     4
 # iter = 79000  time[fs]=79.00000
   C -0.100273377E+02 -0.437249292E-01  0.221910057E+00
   C  0.953710309E+01  0.130732948E+00 -0.732563493E-01
   H -0.488835317E+02  0.790998319E+00 -0.365356124E+01
   H  0.468652864E+02 -0.313825338E+01  0.319371598E+01
     4
 # iter = 79500  time[fs]=79.50000
   C -0.101179217E+02 -0.440927188E-01  0.224042393E+00
   C  0.962338531E+01  0.132127703E+00 -0.741158649E-01
   H -0.493018989E+02  0.797957633E+00 -0.368519719E+01
   H  0.472638611E+02 -0.316520505E+01  0.322123702E+01
     4
 # iter = 80000  time[fs]=80.00000
   C -0.102085391E+02 -0.444608083E-01  0.226175582E+00
   C  0.970970057E+01  0.133523124E+00 -0.749761786E-01
   H -0.497203413E+02  0.804918419E+00 -0.371683971E+01
   H  0.476625137E+02 -0.319216259E+01  0.324876397E+01
