     4
 # iter = 25000  time[fs]=25.00000
   C -0.100289336E+01  0.342798919E-01 -0.557234924E-02
   C  0.945759128E+00 -0.337286365E-01 -0.564438113E-02
   H -0.527971694E+01  0.511965794E+00  0.505809359E+00
   H  0.515738005E+01 -0.368661827E+00 -0.248810163E+00
     4
 # iter = 25500  time[fs]=25.50000
   C -0.104810730E+01  0.341066749E-01 -0.721465066E-02
   C  0.983848116E+00 -0.330384222E-01 -0.487894070E-02
   H -0.561009848E+01  0.543838360E+00  0.536728383E+00
   H  0.547183344E+01 -0.390457946E+00 -0.266165160E+00
     4
 # iter = 26000  time[fs]=26.00000
   C -0.109628758E+01  0.340150859E-01 -0.888664935E-02
   C  0.102486245E+01 -0.324381367E-01 -0.410351072E-02
   H -0.594568201E+01  0.576242044E+00  0.568189661E+00
   H  0.579198065E+01 -0.412685571E+00 -0.283825920E+00
     4
 # iter = 26500  time[fs]=26.50000
   C -0.114719645E+01  0.339942736E-01 -0.105880493E-01
   C  0.106856872E+01 -0.319159679E-01 -0.331594364E-02
   H -0.628588784E+01  0.609117319E+00  0.600131638E+00
   H  0.611719014E+01 -0.435296709E+00 -0.301760208E+00
     4
 # iter = 27000  time[fs]=27.00000
   C -0.120061042E+01  0.340347051E-01 -0.123183834E-01
   C  0.111474717E+01 -0.314615770E-01 -0.251467698E-02
   H -0.663022315E+01  0.642413730E+00  0.632502321E+00
   H  0.644692403E+01 -0.458250573E+00 -0.319940388E+00
     4
 # iter = 27500  time[fs]=27.50000
   C -0.125632179E+01  0.341280822E-01 -0.140770202E-01
   C  0.116319338E+01 -0.310659838E-01 -0.169864015E-02
   H -0.697826614E+01  0.676088202E+00  0.665257455E+00
   H  0.678072141E+01 -0.481512272E+00 -0.338342629E+00
     4
 # iter = 28000  time[fs]=28.00000
   C -0.131413919E+01  0.342672277E-01 -0.158631884E-01
   C  0.121371880E+01 -0.307214288E-01 -0.867164561E-03
   H -0.732965364E+01  0.710103712E+00  0.698359097E+00
   H  0.711818495E+01 -0.505051771E+00 -0.356946266E+00
     4
 # iter = 28500  time[fs]=28.50000
   C -0.137388742E+01  0.344459606E-01 -0.176760082E-01
   C  0.126615074E+01 -0.304212304E-01 -0.199024448E-04
   H -0.768407106E+01  0.744428243E+00  0.731774503E+00
   H  0.745897023E+01 -0.528843063E+00 -0.375733284E+00
     4
 # iter = 29000  time[fs]=29.00000
   C -0.143540684E+01  0.346589726E-01 -0.195145227E-01
   C  0.132033174E+01 -0.301596464E-01  0.843243503E-03
   H -0.804124445E+01  0.779033947E+00  0.765475235E+00
   H  0.780277709E+01 -0.552863504E+00 -0.394687899E+00
     4
 # iter = 29500  time[fs]=29.50000
   C -0.149855243E+01  0.349017106E-01 -0.213777261E-01
   C  0.137611869E+01 -0.299317455E-01  0.172217914E-02
   H -0.840093399E+01  0.813896465E+00  0.799436459E+00
   H  0.814934265E+01 -0.577093271E+00 -0.413796216E+00
     4
 # iter = 30000  time[fs]=30.00000
   C -0.156319275E+01  0.351702711E-01 -0.232645882E-01
   C  0.143338186E+01 -0.297332931E-01  0.261666725E-02
   H -0.876292874E+01  0.848994385E+00  0.833636371E+00
   H  0.849843559E+01 -0.601514931E+00 -0.433045946E+00
     4
 # iter = 30500  time[fs]=30.50000
   C -0.162920880E+01  0.354613063E-01 -0.251740739E-01
   C  0.149200376E+01 -0.295606493E-01  0.352636655E-02
   H -0.912704230E+01  0.884308797E+00  0.868055734E+00
   H  0.884985143E+01 -0.626113075E+00 -0.452426178E+00
     4
 # iter = 31000  time[fs]=31.00000
   C -0.169649293E+01  0.357719423E-01 -0.271051585E-01
   C  0.155187806E+01 -0.294106815E-01  0.445086251E-02
   H -0.949310926E+01  0.919822923E+00  0.902677493E+00
   H  0.920340868E+01 -0.650874031E+00 -0.471927180E+00
     4
 # iter = 31500  time[fs]=31.50000
   C -0.176494773E+01  0.360997086E-01 -0.290568391E-01
   C  0.161290856E+01 -0.292806892E-01  0.538969152E-02
   H -0.986098225E+01  0.955521818E+00  0.937486471E+00
   H  0.955894562E+01 -0.675785613E+00 -0.491540245E+00
     4
 # iter = 32000  time[fs]=32.00000
   C -0.183448503E+01  0.364424778E-01 -0.310281428E-01
   C  0.167500817E+01 -0.291683395E-01  0.634235960E-02
   H -0.102305295E+02  0.991392114E+00  0.972469097E+00
   H  0.991631757E+01 -0.700836920E+00 -0.511257549E+00
     4
 # iter = 32500  time[fs]=32.50000
   C -0.190502497E+01  0.367984142E-01 -0.330181327E-01
   C  0.173809797E+01 -0.290716125E-01  0.730835663E-02
   H -0.106016326E+02  0.102742181E+01  0.100761320E+01
   H  0.102753947E+02 -0.726018165E+00 -0.531072045E+00
     4
 # iter = 33000  time[fs]=33.00000
   C -0.197649514E+01  0.371659310E-01 -0.350259110E-01
   C  0.180210645E+01 -0.289887552E-01  0.828716707E-02
   H -0.109741852E+02  0.106360011E+01  0.104290782E+01
   H  0.106360600E+02 -0.751320532E+00 -0.550977358E+00
     4
 # iter = 33500  time[fs]=33.50000
   C -0.204882983E+01  0.375436526E-01 -0.370506216E-01
   C  0.186696866E+01 -0.289182425E-01  0.927827799E-02
   H -0.113480909E+02  0.109991723E+01  0.107834307E+01
   H  0.109982079E+02 -0.776736053E+00 -0.570967709E+00
     4
 # iter = 34000  time[fs]=34.00000
   C -0.212196929E+01  0.379303846E-01 -0.390914504E-01
   C  0.193262556E+01 -0.288587440E-01  0.102811849E-01
   H -0.117232625E+02  0.113636433E+01  0.111390996E+01
   H  0.113617426E+02 -0.802257503E+00 -0.591037842E+00
     4
 # iter = 34500  time[fs]=34.50000
   C -0.219585915E+01  0.383250870E-01 -0.411476255E-01
   C  0.199902344E+01 -0.288090965E-01  0.112953958E-01
   H -0.120996208E+02  0.117293336E+01  0.114960034E+01
   H  0.117265771E+02 -0.827878316E+00 -0.611182964E+00
     4
 # iter = 35000  time[fs]=35.00000
   C -0.227044984E+01  0.387268521E-01 -0.432184162E-01
   C  0.206611330E+01 -0.287682798E-01  0.123204342E-01
   H -0.124770936E+02  0.120961698E+01  0.118540679E+01
   H  0.120926322E+02 -0.853592505E+00 -0.631398693E+00
     4
 # iter = 35500  time[fs]=35.50000
   C -0.234569609E+01  0.391348862E-01 -0.453031322E-01
   C  0.213385042E+01 -0.287353972E-01  0.133558408E-01
   H -0.128556148E+02  0.124640850E+01  0.122132252E+01
   H  0.124598353E+02 -0.879394599E+00 -0.651681015E+00
     4
 # iter = 36000  time[fs]=36.00000
   C -0.242155652E+01  0.395484931E-01 -0.474011218E-01
   C  0.220219391E+01 -0.287096588E-01  0.144011750E-01
   H -0.132351242E+02  0.128330175E+01  0.125734131E+01
   H  0.128281203E+02 -0.905279583E+00 -0.672026240E+00
     4
 # iter = 36500  time[fs]=36.50000
   C -0.249799321E+01  0.399670613E-01 -0.495117703E-01
   C  0.227110631E+01 -0.286903663E-01  0.154560147E-01
   H -0.136155661E+02  0.132029111E+01  0.129345744E+01
   H  0.131974262E+02 -0.931242855E+00 -0.692430973E+00
     4
 # iter = 37000  time[fs]=37.00000
   C -0.257497139E+01  0.403900522E-01 -0.516344980E-01
   C  0.234055325E+01 -0.286769016E-01  0.165199575E-01
   H -0.139968896E+02  0.135737138E+01  0.132966566E+01
   H  0.135676970E+02 -0.957280178E+00 -0.712892083E+00
     4
 # iter = 37500  time[fs]=37.50000
   C -0.265245910E+01  0.408169903E-01 -0.537687585E-01
   C  0.241050314E+01 -0.286687159E-01  0.175926195E-01
   H -0.143790478E+02  0.139453778E+01  0.136596113E+01
   H  0.139388812E+02 -0.983387642E+00 -0.733406674E+00
     4
 # iter = 38000  time[fs]=38.00000
   C -0.273042691E+01  0.412474552E-01 -0.559140370E-01
   C  0.248092694E+01 -0.286653207E-01  0.186736357E-01
   H -0.147619970E+02  0.143178587E+01  0.140233936E+01
   H  0.143109311E+02 -0.100956164E+01 -0.753972065E+00
     4
 # iter = 38500  time[fs]=38.50000
   C -0.280884772E+01  0.416810742E-01 -0.580698481E-01
   C  0.255179784E+01 -0.286662808E-01  0.197626589E-01
   H -0.151456973E+02  0.146911156E+01  0.143879621E+01
   H  0.146838026E+02 -0.103579882E+01 -0.774585768E+00
     4
 # iter = 39000  time[fs]=39.00000
   C -0.288769649E+01  0.421175165E-01 -0.602357342E-01
   C  0.262309112E+01 -0.286712068E-01  0.208593597E-01
   H -0.155301112E+02  0.150651104E+01  0.147532783E+01
   H  0.150574548E+02 -0.106209609E+01 -0.795245472E+00
     4
 # iter = 39500  time[fs]=39.50000
   C -0.296695008E+01  0.425564877E-01 -0.624112638E-01
   C  0.269478391E+01 -0.286797501E-01  0.219634248E-01
   H -0.159152041E+02  0.154398080E+01  0.151193065E+01
   H  0.154318497E+02 -0.108845056E+01 -0.815949025E+00
     4
 # iter = 40000  time[fs]=40.00000
   C -0.304658704E+01  0.429977252E-01 -0.645960297E-01
   C  0.276685503E+01 -0.286915979E-01  0.230745575E-01
   H -0.163009440E+02  0.158151753E+01  0.154860134E+01
   H  0.158069521E+02 -0.111485955E+01 -0.836694419E+00
     4
 # iter = 40500  time[fs]=40.50000
   C -0.312658751E+01  0.434409949E-01 -0.667896479E-01
   C  0.283928485E+01 -0.287064688E-01  0.241924757E-01
   H -0.166873007E+02  0.161911816E+01  0.158533680E+01
   H  0.161827289E+02 -0.114132056E+01 -0.857479781E+00
     4
 # iter = 41000  time[fs]=41.00000
   C -0.320693302E+01  0.438860871E-01 -0.689917554E-01
   C  0.291205514E+01 -0.287241092E-01  0.253169122E-01
   H -0.170742462E+02  0.165677985E+01  0.162213412E+01
   H  0.165591496E+02 -0.116783125E+01 -0.878303359E+00
     4
 # iter = 41500  time[fs]=41.50000
   C -0.328760641E+01  0.443328142E-01 -0.712020096E-01
   C  0.298514894E+01 -0.287442904E-01  0.264476131E-01
   H -0.174617545E+02  0.169449991E+01  0.165899061E+01
   H  0.169361854E+02 -0.119438944E+01 -0.899163512E+00
     4
 # iter = 42000  time[fs]=42.00000
   C -0.336859170E+01  0.447810076E-01 -0.734200865E-01
   C  0.305855045E+01 -0.287668053E-01  0.275843375E-01
   H -0.178498010E+02  0.173227583E+01  0.169590372E+01
   H  0.173138095E+02 -0.122099309E+01 -0.920058699E+00
     4
 # iter = 42500  time[fs]=42.50000
   C -0.344987397E+01  0.452305160E-01 -0.756456797E-01
   C  0.313224497E+01 -0.287914665E-01  0.287268570E-01
   H -0.182383628E+02  0.177010526E+01  0.173287108E+01
   H  0.176919967E+02 -0.124764027E+01 -0.940987478E+00
     4
 # iter = 43000  time[fs]=43.00000
   C -0.353143931E+01  0.456812032E-01 -0.778784992E-01
   C  0.320621875E+01 -0.288181038E-01  0.298749544E-01
   H -0.186274183E+02  0.180798600E+01  0.176989045E+01
   H  0.180707234E+02 -0.127432920E+01 -0.961948488E+00
     4
 # iter = 43500  time[fs]=43.50000
   C -0.361327471E+01  0.461329464E-01 -0.801182702E-01
   C  0.328045893E+01 -0.288465625E-01  0.310284234E-01
   H -0.190169473E+02  0.184591598E+01  0.180695973E+01
   H  0.184499674E+02 -0.130105817E+01 -0.982940452E+00
     4
 # iter = 44000  time[fs]=44.00000
   C -0.369536800E+01  0.465856349E-01 -0.823647327E-01
   C  0.335495350E+01 -0.288767020E-01  0.321870681E-01
   H -0.194069308E+02  0.188389323E+01  0.184407695E+01
   H  0.188297079E+02 -0.132782559E+01 -0.100396216E+01
     4
 # iter = 44500  time[fs]=44.50000
   C -0.377770777E+01  0.470391687E-01 -0.846176398E-01
   C  0.342969119E+01 -0.289083937E-01  0.333507023E-01
   H -0.197973508E+02  0.192191592E+01  0.188124024E+01
   H  0.192099253E+02 -0.135462997E+01 -0.102501249E+01
     4
 # iter = 45000  time[fs]=45.00000
   C -0.386028331E+01  0.474934573E-01 -0.868767574E-01
   C  0.350466143E+01 -0.289415205E-01  0.345191487E-01
   H -0.201881905E+02  0.195998231E+01  0.191844785E+01
   H  0.195906010E+02 -0.138146988E+01 -0.104609035E+01
     4
 # iter = 45500  time[fs]=45.50000
   C -0.394308459E+01  0.479484187E-01 -0.891418632E-01
   C  0.357985430E+01 -0.289759753E-01  0.356922387E-01
   H -0.205794338E+02  0.199809076E+01  0.195569812E+01
   H  0.199717175E+02 -0.140834400E+01 -0.106719473E+01
     4
 # iter = 46000  time[fs]=46.00000
   C -0.402610214E+01  0.484039787E-01 -0.914127461E-01
   C  0.365526048E+01 -0.290116600E-01  0.368698120E-01
   H -0.209710658E+02  0.203623973E+01  0.199298947E+01
   H  0.203532583E+02 -0.143525106E+01 -0.108832468E+01
     4
 # iter = 46500  time[fs]=46.50000
   C -0.410932707E+01  0.488600700E-01 -0.936892053E-01
   C  0.373087117E+01 -0.290484844E-01  0.380517156E-01
   H -0.213630721E+02  0.207442775E+01  0.203032044E+01
   H  0.207352079E+02 -0.146218986E+01 -0.110947928E+01
     4
 # iter = 47000  time[fs]=47.00000
   C -0.419275101E+01  0.493166314E-01 -0.959710498E-01
   C  0.380667812E+01 -0.290863662E-01  0.392378039E-01
   H -0.217554393E+02  0.211265342E+01  0.206768959E+01
   H  0.211175514E+02 -0.148915927E+01 -0.113065767E+01
     4
 # iter = 47500  time[fs]=47.50000
   C -0.427636606E+01  0.497736072E-01 -0.982580980E-01
   C  0.388267351E+01 -0.291252292E-01  0.404279381E-01
   H -0.221481546E+02  0.215091543E+01  0.210509562E+01
   H  0.215002749E+02 -0.151615822E+01 -0.115185903E+01
     4
 # iter = 48000  time[fs]=48.00000
   C -0.436016475E+01  0.502309470E-01 -0.100550177E+00
   C  0.395885000E+01 -0.291650038E-01  0.416219856E-01
   H -0.225412058E+02  0.218921254E+01  0.214253724E+01
   H  0.218833650E+02 -0.154318569E+01 -0.117308259E+01
     4
 # iter = 48500  time[fs]=48.50000
   C -0.444414005E+01  0.506886046E-01 -0.102847121E+00
   C  0.403520062E+01 -0.292056255E-01  0.428198201E-01
   H -0.229345814E+02  0.222754354E+01  0.218001326E+01
   H  0.222668092E+02 -0.157024072E+01 -0.119432760E+01
     4
 # iter = 49000  time[fs]=49.00000
   C -0.452828529E+01  0.511465381E-01 -0.105148773E+00
   C  0.411171879E+01 -0.292470350E-01  0.440213209E-01
   H -0.233282706E+02  0.226590733E+01  0.221752254E+01
   H  0.226505955E+02 -0.159732237E+01 -0.121559336E+01
     4
 # iter = 49500  time[fs]=49.50000
   C -0.461259416E+01  0.516047094E-01 -0.107454983E+00
   C  0.418839830E+01 -0.292891775E-01  0.452263727E-01
   H -0.237222628E+02  0.230430281E+01  0.225506398E+01
   H  0.230347125E+02 -0.162442979E+01 -0.123687921E+01
     4
 # iter = 50000  time[fs]=50.00000
   C -0.469706069E+01  0.520630834E-01 -0.109765608E+00
   C  0.426523325E+01 -0.293320022E-01  0.464348651E-01
   H -0.241165483E+02  0.234272898E+01  0.229263656E+01
   H  0.234191493E+02 -0.165156213E+01 -0.125818450E+01
     4
 # iter = 50500  time[fs]=50.50000
   C -0.478167920E+01  0.525216285E-01 -0.112080511E+00
   C  0.434221803E+01 -0.293754625E-01  0.476466929E-01
   H -0.245111175E+02  0.238118485E+01  0.233023929E+01
   H  0.238038957E+02 -0.167871860E+01 -0.127950863E+01
     4
 # iter = 51000  time[fs]=51.00000
   C -0.486644434E+01  0.529803155E-01 -0.114399561E+00
   C  0.441934736E+01 -0.294195147E-01  0.488617552E-01
   H -0.249059615E+02  0.241966950E+01  0.236787122E+01
   H  0.241889418E+02 -0.170589845E+01 -0.130085102E+01
     4
 # iter = 51500  time[fs]=51.50000
   C -0.495135098E+01  0.534391180E-01 -0.116722633E+00
   C  0.449661618E+01 -0.294641187E-01  0.500799554E-01
   H -0.253010717E+02  0.245818204E+01  0.240553146E+01
   H  0.245742782E+02 -0.173310096E+01 -0.132221111E+01
     4
 # iter = 52000  time[fs]=52.00000
   C -0.503639429E+01  0.538980117E-01 -0.119049607E+00
   C  0.457401972E+01 -0.295092372E-01  0.513012010E-01
   H -0.256964399E+02  0.249672162E+01  0.244321915E+01
   H  0.249598960E+02 -0.176032543E+01 -0.134358837E+01
     4
 # iter = 52500  time[fs]=52.50000
   C -0.512156964E+01  0.543569744E-01 -0.121380368E+00
   C  0.465155342E+01 -0.295548355E-01  0.525254035E-01
   H -0.260920584E+02  0.253528744E+01  0.248093347E+01
   H  0.253457867E+02 -0.178757121E+01 -0.136498229E+01
     4
 # iter = 53000  time[fs]=53.00000
   C -0.520687264E+01  0.548159858E-01 -0.123714806E+00
   C  0.472921294E+01 -0.296008814E-01  0.537524780E-01
   H -0.264879196E+02  0.257387873E+01  0.251867365E+01
   H  0.257319420E+02 -0.181483767E+01 -0.138639240E+01
     4
 # iter = 53500  time[fs]=53.50000
   C -0.529229912E+01  0.552750276E-01 -0.126052817E+00
   C  0.480699417E+01 -0.296473449E-01  0.549823428E-01
   H -0.268840164E+02  0.261249474E+01  0.255643892E+01
   H  0.261183543E+02 -0.184212420E+01 -0.140781823E+01
     4
 # iter = 54000  time[fs]=54.00000
   C -0.537784507E+01  0.557340826E-01 -0.128394299E+00
   C  0.488489316E+01 -0.296941981E-01  0.562149199E-01
   H -0.272803420E+02  0.265113477E+01  0.259422858E+01
   H  0.265050159E+02 -0.186943023E+01 -0.142925933E+01
     4
 # iter = 54500  time[fs]=54.50000
   C -0.546350671E+01  0.561931355E-01 -0.130739156E+00
   C  0.496290616E+01 -0.297414149E-01  0.574501342E-01
   H -0.276768899E+02  0.268979813E+01  0.263204193E+01
   H  0.268919197E+02 -0.189675521E+01 -0.145071528E+01
     4
 # iter = 55000  time[fs]=55.00000
   C -0.554928039E+01  0.566521722E-01 -0.133087294E+00
   C  0.504102959E+01 -0.297889713E-01  0.586879136E-01
   H -0.280736536E+02  0.272848418E+01  0.266987832E+01
   H  0.272790589E+02 -0.192409861E+01 -0.147218567E+01
     4
 # iter = 55500  time[fs]=55.50000
   C -0.563516266E+01  0.571111795E-01 -0.135438625E+00
   C  0.511926003E+01 -0.298368445E-01  0.599281888E-01
   H -0.284706274E+02  0.276719229E+01  0.270773712E+01
   H  0.276664270E+02 -0.195145992E+01 -0.149367011E+01
     4
 # iter = 56000  time[fs]=56.00000
   C -0.572115020E+01  0.575701458E-01 -0.137793062E+00
   C  0.519759422E+01 -0.298850134E-01  0.611708933E-01
   H -0.288678053E+02  0.280592187E+01  0.274561771E+01
   H  0.280540175E+02 -0.197883865E+01 -0.151516822E+01
     4
 # iter = 56500  time[fs]=56.50000
   C -0.580723984E+01  0.580290603E-01 -0.140150522E+00
   C  0.527602903E+01 -0.299334583E-01  0.624159629E-01
   H -0.292651819E+02  0.284467233E+01  0.278351952E+01
   H  0.284418245E+02 -0.200623433E+01 -0.153667964E+01
     4
 # iter = 57000  time[fs]=57.00000
   C -0.589342856E+01  0.584879129E-01 -0.142510928E+00
   C  0.535456146E+01 -0.299821609E-01  0.636633360E-01
   H -0.296627518E+02  0.288344314E+01  0.282144198E+01
   H  0.288298422E+02 -0.203364652E+01 -0.155820402E+01
     4
 # iter = 57500  time[fs]=57.50000
   C -0.597971345E+01  0.589466948E-01 -0.144874202E+00
   C  0.543318867E+01 -0.300311037E-01  0.649129534E-01
   H -0.300605100E+02  0.292223375E+01  0.285938456E+01
   H  0.292180649E+02 -0.206107479E+01 -0.157974102E+01
     4
 # iter = 58000  time[fs]=58.00000
   C -0.606609172E+01  0.594053978E-01 -0.147240271E+00
   C  0.551190790E+01 -0.300802707E-01  0.661647578E-01
   H -0.304584514E+02  0.296104366E+01  0.289734674E+01
   H  0.296064873E+02 -0.208851871E+01 -0.160129034E+01
     4
 # iter = 58500  time[fs]=58.50000
   C -0.615256073E+01  0.598640142E-01 -0.149609064E+00
   C  0.559071653E+01 -0.301296468E-01  0.674186943E-01
   H -0.308565715E+02  0.299987238E+01  0.293532803E+01
   H  0.299951043E+02 -0.211597790E+01 -0.162285165E+01
     4
 # iter = 59000  time[fs]=59.00000
   C -0.623911791E+01  0.603225374E-01 -0.151980513E+00
   C  0.566961204E+01 -0.301792177E-01  0.686747098E-01
   H -0.312548656E+02  0.303871942E+01  0.297332793E+01
   H  0.303839109E+02 -0.214345195E+01 -0.164442466E+01
     4
 # iter = 59500  time[fs]=59.50000
   C -0.632576082E+01  0.607809610E-01 -0.154354553E+00
   C  0.574859201E+01 -0.302289702E-01  0.699327532E-01
   H -0.316533295E+02  0.307758435E+01  0.301134601E+01
   H  0.307729022E+02 -0.217094052E+01 -0.166600908E+01
     4
 # iter = 60000  time[fs]=60.00000
   C -0.641248710E+01  0.612392795E-01 -0.156731120E+00
   C  0.582765413E+01 -0.302788919E-01  0.711927751E-01
   H -0.320519588E+02  0.311646672E+01  0.304938180E+01
   H  0.311620738E+02 -0.219844323E+01 -0.168760464E+01
     4
 # iter = 60500  time[fs]=60.50000
   C -0.649929448E+01  0.616974876E-01 -0.159110153E+00
   C  0.590679617E+01 -0.303289710E-01  0.724547280E-01
   H -0.324507495E+02  0.315536610E+01  0.308743487E+01
   H  0.315514211E+02 -0.222595975E+01 -0.170921106E+01
     4
 # iter = 61000  time[fs]=61.00000
   C -0.658618081E+01  0.621555809E-01 -0.161491593E+00
   C  0.598601598E+01 -0.303791965E-01  0.737185658E-01
   H -0.328496977E+02  0.319428209E+01  0.312550483E+01
   H  0.319409400E+02 -0.225348974E+01 -0.173082810E+01
     4
 # iter = 61500  time[fs]=61.50000
   C -0.667314400E+01  0.626135550E-01 -0.163875383E+00
   C  0.606531150E+01 -0.304295581E-01  0.749842444E-01
   H -0.332487996E+02  0.323321430E+01  0.316359126E+01
   H  0.323306262E+02 -0.228103288E+01 -0.175245549E+01
     4
 # iter = 62000  time[fs]=62.00000
   C -0.676018203E+01  0.630714061E-01 -0.166261469E+00
   C  0.614468076E+01 -0.304800461E-01  0.762517207E-01
   H -0.336480516E+02  0.327216235E+01  0.320169379E+01
   H  0.327204759E+02 -0.230858887E+01 -0.177409301E+01
     4
 # iter = 62500  time[fs]=62.50000
   C -0.684729298E+01  0.635291310E-01 -0.168649797E+00
   C  0.622412186E+01 -0.305306514E-01  0.775209534E-01
   H -0.340474502E+02  0.331112586E+01  0.323981203E+01
   H  0.331104851E+02 -0.233615740E+01 -0.179574042E+01
     4
 # iter = 63000  time[fs]=63.00000
   C -0.693447498E+01  0.639867264E-01 -0.171040316E+00
   C  0.630363296E+01 -0.305813654E-01  0.787919024E-01
   H -0.344469920E+02  0.335010449E+01  0.327794564E+01
   H  0.335006502E+02 -0.236373819E+01 -0.181739750E+01
     4
 # iter = 63500  time[fs]=63.50000
   C -0.702172625E+01  0.644441896E-01 -0.173432976E+00
   C  0.638321229E+01 -0.306321801E-01  0.800645292E-01
   H -0.348466737E+02  0.338909790E+01  0.331609426E+01
   H  0.338909675E+02 -0.239133097E+01 -0.183906402E+01
     4
 # iter = 64000  time[fs]=64.00000
   C -0.710904507E+01  0.649015182E-01 -0.175827730E+00
   C  0.646285815E+01 -0.306830878E-01  0.813387961E-01
   H -0.352464922E+02  0.342810575E+01  0.335425757E+01
   H  0.342814337E+02 -0.241893545E+01 -0.186073979E+01
     4
 # iter = 64500  time[fs]=64.50000
   C -0.719642975E+01  0.653587101E-01 -0.178224531E+00
   C  0.654256891E+01 -0.307340813E-01  0.826146671E-01
   H -0.356464443E+02  0.346712772E+01  0.339243523E+01
   H  0.346720454E+02 -0.244655139E+01 -0.188242459E+01
     4
 # iter = 65000  time[fs]=65.00000
   C -0.728387871E+01  0.658157632E-01 -0.180623334E+00
   C  0.662234297E+01 -0.307851539E-01  0.838921070E-01
   H -0.360465271E+02  0.350616351E+01  0.343062693E+01
   H  0.350627994E+02 -0.247417853E+01 -0.190411824E+01
     4
 # iter = 65500  time[fs]=65.50000
   C -0.737139040E+01  0.662726759E-01 -0.183024096E+00
   C  0.670217883E+01 -0.308362993E-01  0.851710818E-01
   H -0.364467378E+02  0.354521282E+01  0.346883237E+01
   H  0.354536925E+02 -0.250181662E+01 -0.192582054E+01
     4
 # iter = 66000  time[fs]=66.00000
   C -0.745896332E+01  0.667294468E-01 -0.185426775E+00
   C  0.678207499E+01 -0.308875115E-01  0.864515588E-01
   H -0.368470736E+02  0.358427535E+01  0.350705125E+01
   H  0.358447216E+02 -0.252946544E+01 -0.194753130E+01
     4
 # iter = 66500  time[fs]=66.50000
   C -0.754659603E+01  0.671860745E-01 -0.187831330E+00
   C  0.686203006E+01 -0.309387848E-01  0.877335061E-01
   H -0.372475318E+02  0.362335082E+01  0.354528329E+01
   H  0.362358840E+02 -0.255712475E+01 -0.196925036E+01
     4
 # iter = 67000  time[fs]=67.00000
   C -0.763428714E+01  0.676425579E-01 -0.190237721E+00
   C  0.694204264E+01 -0.309901138E-01  0.890168927E-01
   H -0.376481097E+02  0.366243897E+01  0.358352822E+01
   H  0.366271767E+02 -0.258479434E+01 -0.199097754E+01
     4
 # iter = 67500  time[fs]=67.50000
   C -0.772203531E+01  0.680988962E-01 -0.192645911E+00
   C  0.702211141E+01 -0.310414937E-01  0.903016887E-01
   H -0.380488050E+02  0.370153953E+01  0.362178576E+01
   H  0.370185970E+02 -0.261247398E+01 -0.201271266E+01
     4
 # iter = 68000  time[fs]=68.00000
   C -0.780983923E+01  0.685550886E-01 -0.195055861E+00
   C  0.710223510E+01 -0.310929195E-01  0.915878652E-01
   H -0.384496151E+02  0.374065224E+01  0.366005566E+01
   H  0.374101423E+02 -0.264016348E+01 -0.203445558E+01
     4
 # iter = 68500  time[fs]=68.50000
   C -0.789769764E+01  0.690111345E-01 -0.197467537E+00
   C  0.718241246E+01 -0.311443868E-01  0.928753940E-01
   H -0.388505377E+02  0.377977686E+01  0.369833767E+01
   H  0.378018099E+02 -0.266786262E+01 -0.205620613E+01
     4
 # iter = 69000  time[fs]=69.00000
   C -0.798560934E+01  0.694670333E-01 -0.199880903E+00
   C  0.726264230E+01 -0.311958914E-01  0.941642476E-01
   H -0.392515705E+02  0.381891314E+01  0.373663154E+01
   H  0.381935974E+02 -0.269557122E+01 -0.207796415E+01
     4
 # iter = 69500  time[fs]=69.50000
   C -0.807357314E+01  0.699227848E-01 -0.202295926E+00
   C  0.734292345E+01 -0.312474293E-01  0.954543998E-01
   H -0.396527112E+02  0.385806086E+01  0.377493703E+01
   H  0.385855023E+02 -0.272328909E+01 -0.209972951E+01
     4
 # iter = 70000  time[fs]=70.00000
   C -0.816158790E+01  0.703783887E-01 -0.204712571E+00
   C  0.742325480E+01 -0.312989967E-01  0.967458246E-01
   H -0.400539578E+02  0.389721979E+01  0.381325393E+01
   H  0.389775223E+02 -0.275101604E+01 -0.212150206E+01
     4
 # iter = 70500  time[fs]=70.50000
   C -0.824965253E+01  0.708338448E-01 -0.207130809E+00
   C  0.750363525E+01 -0.313505901E-01  0.980384972E-01
   H -0.404553080E+02  0.393638971E+01  0.385158199E+01
   H  0.393696550E+02 -0.277875190E+01 -0.214328165E+01
     4
 # iter = 71000  time[fs]=71.00000
   C -0.833776595E+01  0.712891531E-01 -0.209550607E+00
   C  0.758406375E+01 -0.314022060E-01  0.993323932E-01
   H -0.408567599E+02  0.397557040E+01  0.388992102E+01
   H  0.397618984E+02 -0.280649648E+01 -0.216506816E+01
     4
 # iter = 71500  time[fs]=71.50000
   C -0.842592713E+01  0.717443137E-01 -0.211971935E+00
   C  0.766453929E+01 -0.314538413E-01  0.100627489E+00
   H -0.412583116E+02  0.401476166E+01  0.392827079E+01
   H  0.401542501E+02 -0.283424963E+01 -0.218686145E+01
     4
 # iter = 72000  time[fs]=72.00000
   C -0.851413507E+01  0.721993267E-01 -0.214394765E+00
   C  0.774506087E+01 -0.315054930E-01  0.101923762E+00
   H -0.416599610E+02  0.405396329E+01  0.396663111E+01
   H  0.405467082E+02 -0.286201118E+01 -0.220866139E+01
     4
 # iter = 72500  time[fs]=72.50000
   C -0.860238880E+01  0.726541924E-01 -0.216819067E+00
   C  0.782562754E+01 -0.315571583E-01  0.103221189E+00
   H -0.420617064E+02  0.409317509E+01  0.400500177E+01
   H  0.409392706E+02 -0.288978097E+01 -0.223046786E+01
     4
 # iter = 73000  time[fs]=73.00000
   C -0.869068737E+01  0.731089109E-01 -0.219244814E+00
   C  0.790623837E+01 -0.316088343E-01  0.104519750E+00
   H -0.424635458E+02  0.413239687E+01  0.404338258E+01
   H  0.413319354E+02 -0.291755884E+01 -0.225228073E+01
     4
 # iter = 73500  time[fs]=73.50000
   C -0.877902987E+01  0.735634827E-01 -0.221671980E+00
   C  0.798689246E+01 -0.316605187E-01  0.105819422E+00
   H -0.428654777E+02  0.417162845E+01  0.408177336E+01
   H  0.417247005E+02 -0.294534466E+01 -0.227409990E+01
     4
 # iter = 74000  time[fs]=74.00000
   C -0.886741541E+01  0.740179082E-01 -0.224100537E+00
   C  0.806758893E+01 -0.317122090E-01  0.107120186E+00
   H -0.432675001E+02  0.421086965E+01  0.412017392E+01
   H  0.421175642E+02 -0.297313826E+01 -0.229592525E+01
     4
 # iter = 74500  time[fs]=74.50000
   C -0.895584313E+01  0.744721878E-01 -0.226530461E+00
   C  0.814832694E+01 -0.317639028E-01  0.108422021E+00
   H -0.436696116E+02  0.425012029E+01  0.415858409E+01
   H  0.425105246E+02 -0.300093951E+01 -0.231775665E+01
     4
 # iter = 75000  time[fs]=75.00000
   C -0.904431220E+01  0.749263220E-01 -0.228961727E+00
   C  0.822910566E+01 -0.318155982E-01  0.109724908E+00
   H -0.440718103E+02  0.428938020E+01  0.419700369E+01
   H  0.429035799E+02 -0.302874827E+01 -0.233959402E+01
     4
 # iter = 75500  time[fs]=75.50000
   C -0.913282180E+01  0.753803115E-01 -0.231394310E+00
   C  0.830992430E+01 -0.318672930E-01  0.111028828E+00
   H -0.444740949E+02  0.432864921E+01  0.423543255E+01
   H  0.432967285E+02 -0.305656441E+01 -0.236143723E+01
     4
 # iter = 76000  time[fs]=76.00000
   C -0.922137115E+01  0.758341567E-01 -0.233828187E+00
   C  0.839078206E+01 -0.319189853E-01  0.112333764E+00
   H -0.448764637E+02  0.436792718E+01  0.427387051E+01
   H  0.436899687E+02 -0.308438779E+01 -0.238328619E+01
     4
 # iter = 76500  time[fs]=76.50000
   C -0.930995948E+01  0.762878585E-01 -0.236263336E+00
   C  0.847167822E+01 -0.319706733E-01  0.113639696E+00
   H -0.452789153E+02  0.440721393E+01  0.431231741E+01
   H  0.440832988E+02 -0.311221829E+01 -0.240514080E+01
     4
 # iter = 77000  time[fs]=77.00000
   C -0.939858605E+01  0.767414173E-01 -0.238699734E+00
   C  0.855261201E+01 -0.320223552E-01  0.114946607E+00
   H -0.456814482E+02  0.444650931E+01  0.435077310E+01
   H  0.444767173E+02 -0.314005578E+01 -0.242700095E+01
     4
 # iter = 77500  time[fs]=77.50000
   C -0.948725013E+01  0.771948341E-01 -0.241137359E+00
   C  0.863358275E+01 -0.320740295E-01  0.116254481E+00
   H -0.460840609E+02  0.448581319E+01  0.438923742E+01
   H  0.448702226E+02 -0.316790015E+01 -0.244886657E+01
     4
 # iter = 78000  time[fs]=78.00000
   C -0.957595102E+01  0.776481094E-01 -0.243576190E+00
   C  0.871458972E+01 -0.321256946E-01  0.117563301E+00
   H -0.464867521E+02  0.452512540E+01  0.442771023E+01
   H  0.452638131E+02 -0.319575127E+01 -0.247073754E+01
     4
 # iter = 78500  time[fs]=78.50000
   C -0.966468803E+01  0.781012440E-01 -0.246016207E+00
   C  0.879563226E+01 -0.321773491E-01  0.118873050E+00
   H -0.468895205E+02  0.456444581E+01  0.446619138E+01
   H  0.456574876E+02 -0.322360903E+01 -0.249261379E+01
     4
 # iter = 79000  time[fs]=79.00000
   C -0.975346050E+01  0.785542388E-01 -0.248457389E+00
   C  0.887670971E+01 -0.322289915E-01  0.120183713E+00
   H -0.472923648E+02  0.460377429E+01  0.450468074E+01
   H  0.460512444E+02 -0.325147332E+01 -0.251449522E+01
     4
 # iter = 79500  time[fs]=79.50000
   C -0.984226778E+01  0.790070946E-01 -0.250899718E+00
   C  0.895782144E+01 -0.322806207E-01  0.121495275E+00
   H -0.476952836E+02  0.464311069E+01  0.454317816E+01
   H  0.464450823E+02 -0.327934402E+01 -0.253638175E+01
     4
 # iter = 80000  time[fs]=80.00000
   C -0.993110924E+01  0.794598122E-01 -0.253343173E+00
   C  0.903896682E+01 -0.323322352E-01  0.122807720E+00
   H -0.480982757E+02  0.468245489E+01  0.458168351E+01
   H  0.468389998E+02 -0.330722104E+01 -0.255827329E+01
