     4
 # iter = 25000  time[fs]=25.00000
   C -0.972877031E+00 -0.470225566E-01  0.108063493E-01
   C  0.100284901E+01 -0.273397270E-01 -0.636007990E-01
   H -0.522170516E+01  0.410071365E+00  0.291234983E+00
   H  0.522914546E+01  0.327460524E+00  0.305936814E+00
     4
 # iter = 25500  time[fs]=25.50000
   C -0.101687844E+01 -0.497961114E-01  0.102832196E-01
   C  0.104508001E+01 -0.291352766E-01 -0.662019983E-01
   H -0.555388263E+01  0.436975458E+00  0.308359953E+00
   H  0.554885324E+01  0.348812052E+00  0.327773619E+00
     4
 # iter = 26000  time[fs]=26.00000
   C -0.106386322E+01 -0.526407051E-01  0.985048784E-02
   C  0.109028175E+01 -0.309352232E-01 -0.689543292E-01
   H -0.589154449E+01  0.464376854E+00  0.325810885E+00
   H  0.587419709E+01  0.370571505E+00  0.350013268E+00
     4
 # iter = 26500  time[fs]=26.50000
   C -0.111358860E+01 -0.555493297E-01  0.949988182E-02
   C  0.113821173E+01 -0.327380699E-01 -0.718426863E-01
   H -0.623406920E+01  0.492218554E+00  0.343549472E+00
   H  0.620455198E+01  0.392693828E+00  0.372612065E+00
     4
 # iter = 27000  time[fs]=27.00000
   C -0.116582699E+01 -0.585158495E-01  0.922375816E-02
   C  0.118864283E+01 -0.345427600E-01 -0.748536454E-01
   H -0.658092984E+01  0.520452525E+00  0.361543511E+00
   H  0.653938557E+01  0.415140743E+00  0.395532847E+00
     4
 # iter = 27500  time[fs]=27.50000
   C -0.122036749E+01 -0.615348712E-01  0.901513519E-02
   C  0.124136467E+01 -0.363485578E-01 -0.779752973E-01
   H -0.693167663E+01  0.549037967E+00  0.379765712E+00
   H  0.687824164E+01  0.437879502E+00  0.418743773E+00
     4
 # iter = 28000  time[fs]=28.00000
   C -0.127701625E+01 -0.646016383E-01  0.886768763E-02
   C  0.129618400E+01 -0.381549595E-01 -0.811970870E-01
   H -0.728592321E+01  0.577939954E+00  0.398192783E+00
   H  0.722072691E+01  0.460881907E+00  0.442217376E+00
     4
 # iter = 28500  time[fs]=28.50000
   C -0.133559621E+01 -0.677119433E-01  0.877571738E-02
   C  0.135292432E+01 -0.399616280E-01 -0.845096611E-01
   H -0.764333570E+01  0.607128389E+00  0.416804704E+00
   H  0.756650045E+01  0.484123522E+00  0.465929816E+00
     4
 # iter = 29000  time[fs]=29.00000
   C -0.139594632E+01 -0.708620545E-01  0.873411092E-02
   C  0.141142518E+01 -0.417683456E-01 -0.879047287E-01
   H -0.800362392E+01  0.636577169E+00  0.435584160E+00
   H  0.791526513E+01  0.507583054E+00  0.489860276E+00
     4
 # iter = 29500  time[fs]=29.50000
   C -0.145792057E+01 -0.740486530E-01  0.873829025E-02
   C  0.147154112E+01 -0.435749788E-01 -0.913749340E-01
   H -0.836653435E+01  0.666263520E+00  0.454516088E+00
   H  0.826676073E+01  0.531241850E+00  0.513990487E+00
     4
 # iter = 30000  time[fs]=30.00000
   C -0.152138682E+01 -0.772687798E-01  0.878416206E-02
   C  0.153314052E+01 -0.453814532E-01 -0.949137423E-01
   H -0.873184438E+01  0.696167467E+00  0.473587310E+00
   H  0.862075824E+01  0.555083485E+00  0.538304331E+00
     4
 # iter = 30500  time[fs]=30.50000
   C -0.158622558E+01 -0.805197904E-01  0.886806804E-02
   C  0.159610443E+01 -0.471877353E-01 -0.985153395E-01
   H -0.909935763E+01  0.726271399E+00  0.492786240E+00
   H  0.897705525E+01  0.579093433E+00  0.562787524E+00
     4
 # iter = 31000  time[fs]=31.00000
   C -0.165232891E+01 -0.837993149E-01  0.898673803E-02
   C  0.166032535E+01 -0.489938194E-01 -0.102174543E+00
   H -0.946890011E+01  0.756559716E+00  0.512102643E+00
   H  0.933547207E+01  0.603258786E+00  0.587427351E+00
     4
 # iter = 31500  time[fs]=31.50000
   C -0.171959922E+01 -0.871052251E-01  0.913724674E-02
   C  0.172570614E+01 -0.507997181E-01 -0.105886724E+00
   H -0.984031701E+01  0.787018542E+00  0.531527436E+00
   H  0.969584860E+01  0.627568033E+00  0.612212449E+00
     4
 # iter = 32000  time[fs]=32.00000
   C -0.178794828E+01 -0.904356045E-01  0.931697461E-02
   C  0.179215900E+01 -0.526054554E-01 -0.109647738E+00
   H -0.102134701E+02  0.817635480E+00  0.551052525E+00
   H  0.100580416E+02  0.652010863E+00  0.637132625E+00
     4
 # iter = 32500  time[fs]=32.50000
   C -0.185729625E+01 -0.937887238E-01  0.952357269E-02
   C  0.185960444E+01 -0.544110624E-01 -0.113453869E+00
   H -0.105882354E+02  0.848399413E+00  0.570670669E+00
   H  0.104219226E+02  0.676578012E+00  0.662178702E+00
     4
 # iter = 33000  time[fs]=33.00000
   C -0.192757077E+01 -0.971630183E-01  0.975493137E-02
   C  0.192797048E+01 -0.562165739E-01 -0.117301774E+00
   H -0.109645013E+02  0.879300337E+00  0.590375368E+00
   H  0.107873757E+02  0.701261128E+00  0.687342391E+00
     4
 # iter = 33500  time[fs]=33.50000
   C -0.199870620E+01 -0.100557070E+00  0.100091528E-01
   C  0.199719183E+01 -0.580220258E-01 -0.121188442E+00
   H -0.113421674E+02  0.910329219E+00  0.610160766E+00
   H  0.111542964E+02  0.726052652E+00  0.712616181E+00
     4
 # iter = 34000  time[fs]=34.00000
   C -0.207064294E+01 -0.103969589E+00  0.102845264E-01
   C  0.206720915E+01 -0.598274538E-01 -0.125111152E+00
   H -0.117211425E+02  0.941477877E+00  0.630021567E+00
   H  0.115225898E+02  0.750945729E+00  0.737993245E+00
     4
 # iter = 34500  time[fs]=34.50000
   C -0.214332673E+01 -0.107399402E+00  0.105795077E-01
   C  0.213796851E+01 -0.616328923E-01 -0.129067442E+00
   H -0.121013440E+02  0.972738876E+00  0.649952972E+00
   H  0.118921699E+02  0.775934119E+00  0.763467363E+00
     4
 # iter = 35000  time[fs]=35.00000
   C -0.221670815E+01 -0.110845438E+00  0.108926993E-01
   C  0.220942073E+01 -0.634383740E-01 -0.133055075E+00
   H -0.124826964E+02  0.100410544E+01  0.669950617E+00
   H  0.122629581E+02  0.801012132E+00  0.789032851E+00
     4
 # iter = 35500  time[fs]=35.50000
   C -0.229074208E+01 -0.114306717E+00  0.112228345E-01
   C  0.228152096E+01 -0.652439292E-01 -0.137072021E+00
   H -0.128651312E+02  0.103557139E+01  0.690010523E+00
   H  0.126348828E+02  0.826174560E+00  0.814684503E+00
     4
 # iter = 36000  time[fs]=36.00000
   C -0.236538730E+01 -0.117782341E+00  0.115687630E-01
   C  0.235422818E+01 -0.670495857E-01 -0.141116428E+00
   H -0.132485855E+02  0.106713105E+01  0.710129051E+00
   H  0.130078784E+02  0.851416631E+00  0.840417536E+00
     4
 # iter = 36500  time[fs]=36.50000
   C -0.244060602E+01 -0.121271485E+00  0.119294377E-01
   C  0.242750486E+01 -0.688553689E-01 -0.145186603E+00
   H -0.136330015E+02  0.109877922E+01  0.730302869E+00
   H  0.133818844E+02  0.876733958E+00  0.866227553E+00
     4
 # iter = 37000  time[fs]=37.00000
   C -0.251636362E+01 -0.124773391E+00  0.123039042E-01
   C  0.250131654E+01 -0.706613016E-01 -0.149280999E+00
   H -0.140183263E+02  0.113051111E+01  0.750528916E+00
   H  0.137568457E+02  0.902122502E+00  0.892110495E+00
     4
 # iter = 37500  time[fs]=37.50000
   C -0.259262827E+01 -0.128287361E+00  0.126912905E-01
   C  0.257563160E+01 -0.724674044E-01 -0.153398198E+00
   H -0.144045110E+02  0.116232231E+01  0.770804371E+00
   H  0.141327109E+02  0.927578532E+00  0.918062614E+00
     4
 # iter = 38000  time[fs]=38.00000
   C -0.266937070E+01 -0.131812748E+00  0.130907987E-01
   C  0.265042093E+01 -0.742736954E-01 -0.157536895E+00
   H -0.147915105E+02  0.119420875E+01  0.791126637E+00
   H  0.145094331E+02  0.953098602E+00  0.944080438E+00
     4
 # iter = 38500  time[fs]=38.50000
   C -0.274656392E+01 -0.135348956E+00  0.135016971E-01
   C  0.272565771E+01 -0.760801908E-01 -0.161695889E+00
   H -0.151792832E+02  0.122616664E+01  0.811493309E+00
   H  0.148869684E+02  0.978679517E+00  0.970160746E+00
     4
 # iter = 39000  time[fs]=39.00000
   C -0.282418301E+01 -0.138895432E+00  0.139233139E-01
   C  0.280131717E+01 -0.778869046E-01 -0.165874075E+00
   H -0.155677904E+02  0.125819248E+01  0.831902163E+00
   H  0.152652766E+02  0.100431831E+01  0.996300548E+00
     4
 # iter = 39500  time[fs]=39.50000
   C -0.290220494E+01 -0.142451662E+00  0.143550309E-01
   C  0.287737644E+01 -0.796938493E-01 -0.170070429E+00
   H -0.159569963E+02  0.129028303E+01  0.852351133E+00
   H  0.156443198E+02  0.103001223E+01  0.102249706E+01
     4
 # iter = 40000  time[fs]=40.00000
   C -0.298060839E+01 -0.146017170E+00  0.147962782E-01
   C  0.295381432E+01 -0.815010353E-01 -0.174284007E+00
   H -0.163468675E+02  0.132243525E+01  0.872838300E+00
   H  0.160240633E+02  0.105575871E+01  0.104874768E+01
     4
 # iter = 40500  time[fs]=40.50000
   C -0.305937358E+01 -0.149591512E+00  0.152465300E-01
   C  0.303061116E+01 -0.833084718E-01 -0.178513930E+00
   H -0.167373729E+02  0.135464632E+01  0.893361879E+00
   H  0.164044744E+02  0.108155535E+01  0.107504999E+01
     4
 # iter = 41000  time[fs]=41.00000
   C -0.313848216E+01 -0.153174274E+00  0.157052999E-01
   C  0.310774872E+01 -0.851161667E-01 -0.182759386E+00
   H -0.171284837E+02  0.138691361E+01  0.913920203E+00
   H  0.167855228E+02  0.110739991E+01  0.110140172E+01
     4
 # iter = 41500  time[fs]=41.50000
   C -0.321791704E+01 -0.156765070E+00  0.161721377E-01
   C  0.318521004E+01 -0.869241263E-01 -0.187019616E+00
   H -0.175201726E+02  0.141923464E+01  0.934511718E+00
   H  0.171671800E+02  0.113329031E+01  0.112780074E+01
     4
 # iter = 42000  time[fs]=42.00000
   C -0.329766233E+01 -0.160363539E+00  0.166466258E-01
   C  0.326297931E+01 -0.887323560E-01 -0.191293918E+00
   H -0.179124145E+02  0.145160712E+01  0.955134968E+00
   H  0.175494194E+02  0.115922458E+01  0.115424508E+01
     4
 # iter = 42500  time[fs]=42.50000
   C -0.337770320E+01 -0.163969343E+00  0.171283763E-01
   C  0.334104183E+01 -0.905408602E-01 -0.195581632E+00
   H -0.183051856E+02  0.148402888E+01  0.975788591E+00
   H  0.179322162E+02  0.118520089E+01  0.118073285E+01
     4
 # iter = 43000  time[fs]=43.00000
   C -0.345802581E+01 -0.167582166E+00  0.176170285E-01
   C  0.341938383E+01 -0.923496424E-01 -0.199882147E+00
   H -0.186984636E+02  0.151649789E+01  0.996471310E+00
   H  0.183155470E+02  0.121121750E+01  0.120726231E+01
     4
 # iter = 43500  time[fs]=43.50000
   C -0.353861723E+01 -0.171201709E+00  0.181122463E-01
   C  0.349799247E+01 -0.941587052E-01 -0.204194887E+00
   H -0.190922278E+02  0.154901224E+01  0.101718192E+01
   H  0.186993899E+02  0.123727280E+01  0.123383179E+01
     4
 # iter = 44000  time[fs]=44.00000
   C -0.361946534E+01 -0.174827696E+00  0.186137166E-01
   C  0.357685572E+01 -0.959680505E-01 -0.208519317E+00
   H -0.194864583E+02  0.158157013E+01  0.103791931E+01
   H  0.190837241E+02  0.126336525E+01  0.126043975E+01
     4
 # iter = 44500  time[fs]=44.50000
   C -0.370055880E+01 -0.178459861E+00  0.191211465E-01
   C  0.365596233E+01 -0.977776796E-01 -0.212854931E+00
   H -0.198811368E+02  0.161416987E+01  0.105868240E+01
   H  0.194685303E+02  0.128949342E+01  0.128708471E+01
     4
 # iter = 45000  time[fs]=45.00000
   C -0.378188696E+01 -0.182097960E+00  0.196342627E-01
   C  0.373530171E+01 -0.995875931E-01 -0.217201259E+00
   H -0.202762457E+02  0.164680986E+01  0.107947019E+01
   H  0.198537902E+02  0.131565594E+01  0.131376527E+01
     4
 # iter = 45500  time[fs]=45.50000
   C -0.386343984E+01 -0.185741758E+00  0.201528089E-01
   C  0.381486394E+01 -0.101397791E+00 -0.221557855E+00
   H -0.206717688E+02  0.167948860E+01  0.110028175E+01
   H  0.202394863E+02  0.134185153E+01  0.134048014E+01
     4
 # iter = 46000  time[fs]=46.00000
   C -0.394520804E+01 -0.189391036E+00  0.206765452E-01
   C  0.389463971E+01 -0.103208274E+00 -0.225924302E+00
   H -0.210676903E+02  0.171220465E+01  0.112111618E+01
   H  0.206256025E+02  0.136807898E+01  0.136722807E+01
     4
 # iter = 46500  time[fs]=46.50000
   C -0.402718270E+01 -0.193045587E+00  0.212052464E-01
   C  0.397462021E+01 -0.105019040E+00 -0.230300207E+00
   H -0.214639957E+02  0.174495666E+01  0.114197264E+01
   H  0.210121231E+02  0.139433713E+01  0.139400788E+01
     4
 # iter = 47000  time[fs]=47.00000
   C -0.410935550E+01 -0.196705213E+00  0.217387010E-01
   C  0.405479719E+01 -0.106830089E+00 -0.234685198E+00
   H -0.218606709E+02  0.177774337E+01  0.116285033E+01
   H  0.213990337E+02  0.142062489E+01  0.142081846E+01
     4
 # iter = 47500  time[fs]=47.50000
   C -0.419171859E+01 -0.200369730E+00  0.222767100E-01
   C  0.413516285E+01 -0.108641419E+00 -0.239078926E+00
   H -0.222577030E+02  0.181056355E+01  0.118374850E+01
   H  0.217863204E+02  0.144694124E+01  0.144765875E+01
     4
 # iter = 48000  time[fs]=48.00000
   C -0.427426453E+01 -0.204038962E+00  0.228190861E-01
   C  0.421570981E+01 -0.110453029E+00 -0.243481060E+00
   H -0.226550793E+02  0.184341606E+01  0.120466642E+01
   H  0.221739699E+02  0.147328519E+01  0.147452774E+01
     4
 # iter = 48500  time[fs]=48.50000
   C -0.435698634E+01 -0.207712741E+00  0.233656530E-01
   C  0.429643113E+01 -0.112264917E+00 -0.247891286E+00
   H -0.230527880E+02  0.187629980E+01  0.122560343E+01
   H  0.225619699E+02  0.149965582E+01  0.150142448E+01
     4
 # iter = 49000  time[fs]=49.00000
   C -0.443987737E+01 -0.211390909E+00  0.239162442E-01
   C  0.437732022E+01 -0.114077080E+00 -0.252309311E+00
   H -0.234508179E+02  0.190921375E+01  0.124655887E+01
   H  0.229503084E+02  0.152605223E+01  0.152834806E+01
     4
 # iter = 49500  time[fs]=49.50000
   C -0.452293136E+01 -0.215073317E+00  0.244707026E-01
   C  0.445837087E+01 -0.115889517E+00 -0.256734851E+00
   H -0.238491582E+02  0.194215689E+01  0.126753213E+01
   H  0.233389742E+02  0.155247358E+01  0.155529762E+01
     4
 # iter = 50000  time[fs]=50.00000
   C -0.460614236E+01 -0.218759821E+00  0.250288798E-01
   C  0.453957717E+01 -0.117702225E+00 -0.261167643E+00
   H -0.242477988E+02  0.197512831E+01  0.128852263E+01
   H  0.237279567E+02  0.157891907E+01  0.158227233E+01
     4
 # iter = 50500  time[fs]=50.50000
   C -0.468950473E+01 -0.222450285E+00  0.255906352E-01
   C  0.462093353E+01 -0.119515201E+00 -0.265607434E+00
   H -0.246467299E+02  0.200812710E+01  0.130952981E+01
   H  0.241172455E+02  0.160538794E+01  0.160927140E+01
     4
 # iter = 51000  time[fs]=51.00000
   C -0.477301314E+01 -0.226144581E+00  0.261558359E-01
   C  0.470243464E+01 -0.121328443E+00 -0.270053984E+00
   H -0.250459424E+02  0.204115241E+01  0.133055314E+01
   H  0.245068309E+02  0.163187946E+01  0.163629408E+01
     4
 # iter = 51500  time[fs]=51.50000
   C -0.485666250E+01 -0.229842585E+00  0.267243561E-01
   C  0.478407547E+01 -0.123141949E+00 -0.274507065E+00
   H -0.254454274E+02  0.207420342E+01  0.135159212E+01
   H  0.248967037E+02  0.165839292E+01  0.166333967E+01
     4
 # iter = 52000  time[fs]=52.00000
   C -0.494044798E+01 -0.233544179E+00  0.272960762E-01
   C  0.486585123E+01 -0.124955714E+00 -0.278966461E+00
   H -0.258451766E+02  0.210727935E+01  0.137264626E+01
   H  0.252868550E+02  0.168492768E+01  0.169040746E+01
     4
 # iter = 52500  time[fs]=52.50000
   C -0.502436500E+01 -0.237249252E+00  0.278708828E-01
   C  0.494775736E+01 -0.126769737E+00 -0.283431966E+00
   H -0.262451818E+02  0.214037946E+01  0.139371510E+01
   H  0.256772764E+02  0.171148308E+01  0.171749682E+01
     4
 # iter = 53000  time[fs]=53.00000
   C -0.510840919E+01 -0.240957697E+00  0.284486684E-01
   C  0.502978952E+01 -0.128584014E+00 -0.287903382E+00
   H -0.266454354E+02  0.217350304E+01  0.141479822E+01
   H  0.260679597E+02  0.173805853E+01  0.174460711E+01
     4
 # iter = 53500  time[fs]=53.50000
   C -0.519257637E+01 -0.244669411E+00  0.290293305E-01
   C  0.511194359E+01 -0.130398543E+00 -0.292380523E+00
   H -0.270459302E+02  0.220664940E+01  0.143589517E+01
   H  0.264588972E+02  0.176465344E+01  0.177173773E+01
     4
 # iter = 54000  time[fs]=54.00000
   C -0.527686260E+01 -0.248384296E+00  0.296127719E-01
   C  0.519421564E+01 -0.132213319E+00 -0.296863210E+00
   H -0.274466589E+02  0.223981790E+01  0.145700557E+01
   H  0.268500816E+02  0.179126726E+01  0.179888811E+01
     4
 # iter = 54500  time[fs]=54.50000
   C -0.536126408E+01 -0.252102261E+00  0.301988999E-01
   C  0.527660190E+01 -0.134028341E+00 -0.301351273E+00
   H -0.278476151E+02  0.227300791E+01  0.147812902E+01
   H  0.272415057E+02  0.181789945E+01  0.182605769E+01
     4
 # iter = 55000  time[fs]=55.00000
   C -0.544577720E+01 -0.255823214E+00  0.307876261E-01
   C  0.535909880E+01 -0.135843606E+00 -0.305844547E+00
   H -0.282487921E+02  0.230621883E+01  0.149926517E+01
   H  0.276331628E+02  0.184454950E+01  0.185324596E+01
     4
 # iter = 55500  time[fs]=55.50000
   C -0.553039851E+01 -0.259547070E+00  0.313788666E-01
   C  0.544170292E+01 -0.137659109E+00 -0.310342878E+00
   H -0.286501839E+02  0.233945009E+01  0.152041364E+01
   H  0.280250463E+02  0.187121693E+01  0.188045240E+01
     4
 # iter = 56000  time[fs]=56.00000
   C -0.561512472E+01 -0.263273748E+00  0.319725409E-01
   C  0.552441098E+01 -0.139474848E+00 -0.314846117E+00
   H -0.290517844E+02  0.237270114E+01  0.154157411E+01
   H  0.284171501E+02  0.189790125E+01  0.190767652E+01
     4
 # iter = 56500  time[fs]=56.50000
   C -0.569995267E+01 -0.267003168E+00  0.325685726E-01
   C  0.560721986E+01 -0.141290820E+00 -0.319354119E+00
   H -0.294535881E+02  0.240597144E+01  0.156274625E+01
   H  0.288094681E+02  0.192460202E+01  0.193491786E+01
     4
 # iter = 57000  time[fs]=57.00000
   C -0.578487935E+01 -0.270735256E+00  0.331668884E-01
   C  0.569012657E+01 -0.143107022E+00 -0.323866750E+00
   H -0.298555895E+02  0.243926050E+01  0.158392975E+01
   H  0.292019946E+02  0.195131881E+01  0.196217598E+01
     4
 # iter = 57500  time[fs]=57.50000
   C -0.586990187E+01 -0.274469938E+00  0.337674185E-01
   C  0.577312824E+01 -0.144923451E+00 -0.328383878E+00
   H -0.302577834E+02  0.247256781E+01  0.160512430E+01
   H  0.295947241E+02  0.197805119E+01  0.198945043E+01
     4
 # iter = 58000  time[fs]=58.00000
   C -0.595501747E+01 -0.278207145E+00  0.343700960E-01
   C  0.585622213E+01 -0.146740103E+00 -0.332905378E+00
   H -0.306601646E+02  0.250589292E+01  0.162632962E+01
   H  0.299876512E+02  0.200479877E+01  0.201674080E+01
     4
 # iter = 58500  time[fs]=58.50000
   C -0.604022349E+01 -0.281946811E+00  0.349748569E-01
   C  0.593940561E+01 -0.148556977E+00 -0.337431128E+00
   H -0.310627284E+02  0.253923537E+01  0.164754543E+01
   H  0.303807709E+02  0.203156116E+01  0.204404669E+01
     4
 # iter = 59000  time[fs]=59.00000
   C -0.612551739E+01 -0.285688871E+00  0.355816400E-01
   C  0.602267617E+01 -0.150374068E+00 -0.341961014E+00
   H -0.314654701E+02  0.257259472E+01  0.166877146E+01
   H  0.307740782E+02  0.205833799E+01  0.207136772E+01
     4
 # iter = 59500  time[fs]=59.50000
   C -0.621089673E+01 -0.289433264E+00  0.361903866E-01
   C  0.610603137E+01 -0.152191373E+00 -0.346494925E+00
   H -0.318683853E+02  0.260597055E+01  0.169000746E+01
   H  0.311675684E+02  0.208512890E+01  0.209870351E+01
     4
 # iter = 60000  time[fs]=60.00000
   C -0.629635918E+01 -0.293179929E+00  0.368010404E-01
   C  0.618946891E+01 -0.154008891E+00 -0.351032753E+00
   H -0.322714695E+02  0.263936247E+01  0.171125318E+01
   H  0.315612370E+02  0.211193355E+01  0.212605372E+01
     4
 # iter = 60500  time[fs]=60.50000
   C -0.638190247E+01 -0.296928810E+00  0.374135477E-01
   C  0.627298655E+01 -0.155826617E+00 -0.355574396E+00
   H -0.326747187E+02  0.267277007E+01  0.173250838E+01
   H  0.319550795E+02  0.213875159E+01  0.215341798E+01
     4
 # iter = 61000  time[fs]=61.00000
   C -0.646752446E+01 -0.300679851E+00  0.380278566E-01
   C  0.635658215E+01 -0.157644549E+00 -0.360119756E+00
   H -0.330781288E+02  0.270619300E+01  0.175377282E+01
   H  0.323490918E+02  0.216558272E+01  0.218079597E+01
     4
 # iter = 61500  time[fs]=61.50000
   C -0.655322307E+01 -0.304433000E+00  0.386439174E-01
   C  0.644025364E+01 -0.159462685E+00 -0.364668738E+00
   H -0.334816960E+02  0.273963088E+01  0.177504630E+01
   H  0.327432698E+02  0.219242662E+01  0.220818737E+01
     4
 # iter = 62000  time[fs]=62.00000
   C -0.663899629E+01 -0.308188205E+00  0.392616826E-01
   C  0.652399905E+01 -0.161281021E+00 -0.369221249E+00
   H -0.338854166E+02  0.277308336E+01  0.179632859E+01
   H  0.331376094E+02  0.221928299E+01  0.223559187E+01
     4
 # iter = 62500  time[fs]=62.50000
   C -0.672484220E+01 -0.311945417E+00  0.398811062E-01
   C  0.660781647E+01 -0.163099554E+00 -0.373777203E+00
   H -0.342892868E+02  0.280655012E+01  0.181761948E+01
   H  0.335321071E+02  0.224615155E+01  0.226300917E+01
     4
 # iter = 63000  time[fs]=63.00000
   C -0.681075895E+01 -0.315704588E+00  0.405021442E-01
   C  0.669170406E+01 -0.164918283E+00 -0.378336515E+00
   H -0.346933034E+02  0.284003081E+01  0.183891879E+01
   H  0.339267589E+02  0.227303202E+01  0.229043897E+01
     4
 # iter = 63500  time[fs]=63.50000
   C -0.689674477E+01 -0.319465672E+00  0.411247543E-01
   C  0.677566007E+01 -0.166737203E+00 -0.382899102E+00
   H -0.350974628E+02  0.287352513E+01  0.186022631E+01
   H  0.343215616E+02  0.229992412E+01  0.231788100E+01
     4
 # iter = 64000  time[fs]=64.00000
   C -0.698279792E+01 -0.323228626E+00  0.417488956E-01
   C  0.685968277E+01 -0.168556313E+00 -0.387464886E+00
   H -0.355017619E+02  0.290703278E+01  0.188154186E+01
   H  0.347165115E+02  0.232682760E+01  0.234533499E+01
     4
 # iter = 64500  time[fs]=64.50000
   C -0.706891676E+01 -0.326993405E+00  0.423745289E-01
   C  0.694377054E+01 -0.170375610E+00 -0.392033791E+00
   H -0.359061976E+02  0.294055345E+01  0.190286527E+01
   H  0.351116054E+02  0.235374221E+01  0.237280068E+01
     4
 # iter = 65000  time[fs]=65.00000
   C -0.715509969E+01 -0.330759968E+00  0.430016165E-01
   C  0.702792179E+01 -0.172195091E+00 -0.396605744E+00
   H -0.363107667E+02  0.297408687E+01  0.192419635E+01
   H  0.355068401E+02  0.238066769E+01  0.240027780E+01
     4
 # iter = 65500  time[fs]=65.50000
   C -0.724134516E+01 -0.334528276E+00  0.436301219E-01
   C  0.711213499E+01 -0.174014754E+00 -0.401180673E+00
   H -0.367154664E+02  0.300763275E+01  0.194553493E+01
   H  0.359022125E+02  0.240760383E+01  0.242776613E+01
     4
 # iter = 66000  time[fs]=66.00000
   C -0.732765170E+01 -0.338298290E+00  0.442600100E-01
   C  0.719640867E+01 -0.175834596E+00 -0.405758510E+00
   H -0.371202938E+02  0.304119083E+01  0.196688086E+01
   H  0.362977197E+02  0.243455038E+01  0.245526541E+01
     4
 # iter = 66500  time[fs]=66.50000
   C -0.741401786E+01 -0.342069971E+00  0.448912469E-01
   C  0.728074140E+01 -0.177654615E+00 -0.410339189E+00
   H -0.375252462E+02  0.307476086E+01  0.198823398E+01
   H  0.366933586E+02  0.246150713E+01  0.248277543E+01
     4
 # iter = 67000  time[fs]=67.00000
   C -0.750044226E+01 -0.345843285E+00  0.455238001E-01
   C  0.736513182E+01 -0.179474809E+00 -0.414922646E+00
   H -0.379303209E+02  0.310834257E+01  0.200959414E+01
   H  0.370891266E+02  0.248847387E+01  0.251029595E+01
     4
 # iter = 67500  time[fs]=67.50000
   C -0.758692356E+01 -0.349618196E+00  0.461576379E-01
   C  0.744957859E+01 -0.181295174E+00 -0.419508819E+00
   H -0.383355154E+02  0.314193574E+01  0.203096118E+01
   H  0.374850208E+02  0.251545038E+01  0.253782676E+01
     4
 # iter = 68000  time[fs]=68.00000
   C -0.767346046E+01 -0.353394669E+00  0.467927300E-01
   C  0.753408042E+01 -0.183115709E+00 -0.424097649E+00
   H -0.387408271E+02  0.317554012E+01  0.205233497E+01
   H  0.378810387E+02  0.254243646E+01  0.256536765E+01
     4
 # iter = 68500  time[fs]=68.50000
   C -0.776005171E+01 -0.357172672E+00  0.474290470E-01
   C  0.761863609E+01 -0.184936411E+00 -0.428689077E+00
   H -0.391462536E+02  0.320915549E+01  0.207371536E+01
   H  0.382771777E+02  0.256943193E+01  0.259291842E+01
     4
 # iter = 69000  time[fs]=69.00000
   C -0.784669611E+01 -0.360952174E+00  0.480665606E-01
   C  0.770324438E+01 -0.186757278E+00 -0.433283047E+00
   H -0.395517926E+02  0.324278162E+01  0.209510222E+01
   H  0.386734353E+02  0.259643658E+01  0.262047886E+01
     4
 # iter = 69500  time[fs]=69.50000
   C -0.793339247E+01 -0.364733142E+00  0.487052432E-01
   C  0.778790414E+01 -0.188578308E+00 -0.437879506E+00
   H -0.399574418E+02  0.327641830E+01  0.211649542E+01
   H  0.390698092E+02  0.262345025E+01  0.264804880E+01
     4
 # iter = 70000  time[fs]=70.00000
   C -0.802013966E+01 -0.368515547E+00  0.493450683E-01
   C  0.787261424E+01 -0.190399499E+00 -0.442478400E+00
   H -0.403631990E+02  0.331006532E+01  0.213789484E+01
   H  0.394662970E+02  0.265047274E+01  0.267562804E+01
     4
 # iter = 70500  time[fs]=70.50000
   C -0.810693660E+01 -0.372299361E+00  0.499860104E-01
   C  0.795737360E+01 -0.192220848E+00 -0.447079679E+00
   H -0.407690620E+02  0.334372249E+01  0.215930035E+01
   H  0.398628964E+02  0.267750390E+01  0.270321640E+01
     4
 # iter = 71000  time[fs]=71.00000
   C -0.819378220E+01 -0.376084554E+00  0.506280446E-01
   C  0.804218115E+01 -0.194042353E+00 -0.451683293E+00
   H -0.411750288E+02  0.337738959E+01  0.218071182E+01
   H  0.402596052E+02  0.270454354E+01  0.273081371E+01
     4
 # iter = 71500  time[fs]=71.50000
   C -0.828067545E+01 -0.379871099E+00  0.512711468E-01
   C  0.812703589E+01 -0.195864012E+00 -0.456289194E+00
   H -0.415810974E+02  0.341106645E+01  0.220212916E+01
   H  0.406564214E+02  0.273159150E+01  0.275841980E+01
     4
 # iter = 72000  time[fs]=72.00000
   C -0.836761534E+01 -0.383658970E+00  0.519152939E-01
   C  0.821193681E+01 -0.197685824E+00 -0.460897337E+00
   H -0.419872658E+02  0.344475288E+01  0.222355223E+01
   H  0.410533428E+02  0.275864764E+01  0.278603450E+01
     4
 # iter = 72500  time[fs]=72.50000
   C -0.845460090E+01 -0.387448142E+00  0.525604633E-01
   C  0.829688296E+01 -0.199507786E+00 -0.465507675E+00
   H -0.423935320E+02  0.347844869E+01  0.224498094E+01
   H  0.414503674E+02  0.278571179E+01  0.281365764E+01
     4
 # iter = 73000  time[fs]=73.00000
   C -0.854163120E+01 -0.391238588E+00  0.532066331E-01
   C  0.838187341E+01 -0.201329896E+00 -0.470120166E+00
   H -0.427998943E+02  0.351215372E+01  0.226641518E+01
   H  0.418474933E+02  0.281278380E+01  0.284128909E+01
     4
 # iter = 73500  time[fs]=73.50000
   C -0.862870533E+01 -0.395030284E+00  0.538537823E-01
   C  0.846690726E+01 -0.203152152E+00 -0.474734766E+00
   H -0.432063508E+02  0.354586779E+01  0.228785484E+01
   H  0.422447186E+02  0.283986353E+01  0.286892867E+01
     4
 # iter = 74000  time[fs]=74.00000
   C -0.871582240E+01 -0.398823207E+00  0.545018904E-01
   C  0.855198363E+01 -0.204974552E+00 -0.479351435E+00
   H -0.436128998E+02  0.357959073E+01  0.230929982E+01
   H  0.426420414E+02  0.286695084E+01  0.289657625E+01
     4
 # iter = 74500  time[fs]=74.50000
   C -0.880298155E+01 -0.402617334E+00  0.551509374E-01
   C  0.863710167E+01 -0.206797095E+00 -0.483970133E+00
   H -0.440195395E+02  0.361332239E+01  0.233075003E+01
   H  0.430394599E+02  0.289404558E+01  0.292423167E+01
     4
 # iter = 75000  time[fs]=75.00000
   C -0.889018195E+01 -0.406412643E+00  0.558009042E-01
   C  0.872226055E+01 -0.208619778E+00 -0.488590820E+00
   H -0.444262684E+02  0.364706260E+01  0.235220536E+01
   H  0.434369725E+02  0.292114764E+01  0.295189481E+01
     4
 # iter = 75500  time[fs]=75.50000
   C -0.897742280E+01 -0.410209111E+00  0.564517720E-01
   C  0.880745948E+01 -0.210442600E+00 -0.493213460E+00
   H -0.448330848E+02  0.368081123E+01  0.237366574E+01
   H  0.438345773E+02  0.294825686E+01  0.297956552E+01
     4
 # iter = 76000  time[fs]=76.00000
   C -0.906470330E+01 -0.414006718E+00  0.571035226E-01
   C  0.889269768E+01 -0.212265559E+00 -0.497838014E+00
   H -0.452399871E+02  0.371456810E+01  0.239513106E+01
   H  0.442322727E+02  0.297537314E+01  0.300724367E+01
     4
 # iter = 76500  time[fs]=76.50000
   C -0.915202270E+01 -0.417805442E+00  0.577561386E-01
   C  0.897797438E+01 -0.214088653E+00 -0.502464448E+00
   H -0.456469739E+02  0.374833310E+01  0.241660125E+01
   H  0.446300572E+02  0.300249633E+01  0.303492913E+01
     4
 # iter = 77000  time[fs]=77.00000
   C -0.923938024E+01 -0.421605265E+00  0.584096027E-01
   C  0.906328886E+01 -0.215911880E+00 -0.507092727E+00
   H -0.460540436E+02  0.378210606E+01  0.243807620E+01
   H  0.450279291E+02  0.302962634E+01  0.306262178E+01
     4
 # iter = 77500  time[fs]=77.50000
   C -0.932677522E+01 -0.425406165E+00  0.590638983E-01
   C  0.914864040E+01 -0.217735240E+00 -0.511722816E+00
   H -0.464611947E+02  0.381588685E+01  0.245955585E+01
   H  0.454258870E+02  0.305676302E+01  0.309032148E+01
     4
 # iter = 78000  time[fs]=78.00000
   C -0.941420693E+01 -0.429208125E+00  0.597190094E-01
   C  0.923402831E+01 -0.219558729E+00 -0.516354684E+00
   H -0.468684259E+02  0.384967535E+01  0.248104011E+01
   H  0.458239292E+02  0.308390628E+01  0.311802813E+01
     4
 # iter = 78500  time[fs]=78.50000
   C -0.950167469E+01 -0.433011125E+00  0.603749202E-01
   C  0.931945191E+01 -0.221382346E+00 -0.520988298E+00
   H -0.472757358E+02  0.388347141E+01  0.250252890E+01
   H  0.462220545E+02  0.311105600E+01  0.314574160E+01
     4
 # iter = 79000  time[fs]=79.00000
   C -0.958917783E+01 -0.436815149E+00  0.610316155E-01
   C  0.940491054E+01 -0.223206091E+00 -0.525623626E+00
   H -0.476831231E+02  0.391727492E+01  0.252402215E+01
   H  0.466202613E+02  0.313821207E+01  0.317346179E+01
     4
 # iter = 79500  time[fs]=79.50000
   C -0.967671571E+01 -0.440620177E+00  0.616890805E-01
   C  0.949040356E+01 -0.225029960E+00 -0.530260640E+00
   H -0.480905864E+02  0.395108575E+01  0.254551977E+01
   H  0.470185484E+02  0.316537439E+01  0.320118857E+01
     4
 # iter = 80000  time[fs]=80.00000
   C -0.976428771E+01 -0.444426194E+00  0.623473008E-01
   C  0.957593036E+01 -0.226853954E+00 -0.534899308E+00
   H -0.484981245E+02  0.398490377E+01  0.256702171E+01
   H  0.474169142E+02  0.319254285E+01  0.322892184E+01
