     4
 # iter = 25000  time[fs]=25.00000
   C -0.100914742E+01  0.226949666E-01 -0.416227243E-01
   C  0.101870987E+01 -0.332571804E-02  0.656767073E-01
   H -0.531686054E+01  0.226423004E+00  0.716503560E+00
   H  0.534517732E+01 -0.153598233E+00 -0.757273068E+00
     4
 # iter = 25500  time[fs]=25.50000
   C -0.105781784E+01  0.224153959E-01 -0.442128158E-01
   C  0.106407130E+01 -0.318353627E-02  0.718781648E-01
   H -0.564995194E+01  0.240629104E+00  0.764588881E+00
   H  0.566348841E+01 -0.163851678E+00 -0.806730202E+00
     4
 # iter = 26000  time[fs]=26.00000
   C -0.110909010E+01  0.221568687E-01 -0.470009904E-01
   C  0.111212576E+01 -0.307169098E-02  0.782604609E-01
   H -0.598893493E+01  0.255099012E+00  0.813617246E+00
   H  0.598659678E+01 -0.174257416E+00 -0.856923447E+00
     4
 # iter = 26500  time[fs]=26.50000
   C -0.116274361E+01  0.219160637E-01 -0.499726882E-01
   C  0.116264004E+01 -0.298578259E-02  0.848114864E-01
   H -0.633314532E+01  0.269803814E+00  0.863483189E+00
   H  0.631398968E+01 -0.184799470E+00 -0.907776744E+00
     4
 # iter = 27000  time[fs]=27.00000
   C -0.121857463E+01  0.216901356E-01 -0.531144126E-01
   C  0.121540002E+01 -0.292205714E-02  0.915197364E-01
   H -0.668201898E+01  0.284718874E+00  0.914097392E+00
   H  0.664522764E+01 -0.195464110E+00 -0.959224675E+00
     4
 # iter = 27500  time[fs]=27.50000
   C -0.127639657E+01  0.214766650E-01 -0.564136847E-01
   C  0.127021049E+01 -0.287732345E-02  0.983743666E-01
   H -0.703507373E+01  0.299823070E+00  0.965383647E+00
   H  0.697993177E+01 -0.206239476E+00 -0.101121065E+01
     4
 # iter = 28000  time[fs]=28.00000
   C -0.133603955E+01  0.212736048E-01 -0.598589962E-01
   C  0.132689439E+01 -0.284887452E-02  0.105365223E+00
   H -0.739189491E+01  0.315098182E+00  0.101727648E+01
   H  0.731777370E+01 -0.217115265E+00 -0.106368544E+01
     4
 # iter = 28500  time[fs]=28.50000
   C -0.139734954E+01  0.210792282E-01 -0.634397582E-01
   C  0.138529164E+01 -0.283441606E-02  0.112482847E+00
   H -0.775212388E+01  0.330528404E+00  0.106971929E+01
   H  0.765846737E+01 -0.228082482E+00 -0.111660601E+01
     4
 # iter = 29000  time[fs]=29.00000
   C -0.146018725E+01  0.208920822E-01 -0.671462457E-01
   C  0.144525782E+01 -0.283200329E-02  0.119718467E+00
   H -0.811544871E+01  0.346099950E+00  0.112266282E+01
   H  0.800176229E+01 -0.239133242E+00 -0.116993456E+01
     4
 # iter = 29500  time[fs]=29.50000
   C -0.152442695E+01  0.207109448E-01 -0.709695394E-01
   C  0.150666285E+01 -0.283998632E-02  0.127063973E+00
   H -0.848159673E+01  0.361800734E+00  0.117606402E+01
   H  0.834743821E+01 -0.250260593E+00 -0.122363773E+01
     4
 # iter = 30000  time[fs]=30.00000
   C -0.158995523E+01  0.205347891E-01 -0.749014668E-01
   C  0.156938955E+01 -0.285696338E-02  0.134511883E+00
   H -0.885032840E+01  0.377620107E+00  0.122988501E+01
   H  0.869530052E+01 -0.261458385E+00 -0.127768593E+01
     4
 # iter = 30500  time[fs]=30.50000
   C -0.165666979E+01  0.203627517E-01 -0.789345434E-01
   C  0.163333241E+01 -0.288174127E-02  0.142055309E+00
   H -0.922143233E+01  0.393548649E+00  0.128409233E+01
   H  0.904517660E+01 -0.272721154E+00 -0.133205286E+01
     4
 # iter = 31000  time[fs]=31.00000
   C -0.172447836E+01  0.201941062E-01 -0.830619155E-01
   C  0.169839636E+01 -0.291330215E-02  0.149687911E+00
   H -0.959472118E+01  0.409577986E+00  0.133865629E+01
   H  0.939691275E+01 -0.284044028E+00 -0.138671501E+01
     4
 # iter = 31500  time[fs]=31.50000
   C -0.179329765E+01  0.200282413E-01 -0.872773066E-01
   C  0.176449564E+01 -0.295077564E-02  0.157403864E+00
   H -0.997002821E+01  0.425700648E+00  0.139355043E+01
   H  0.975037157E+01 -0.295422641E+00 -0.144165130E+01
     4
 # iter = 32000  time[fs]=32.00000
   C -0.186305235E+01  0.198646417E-01 -0.915749660E-01
   C  0.183155283E+01 -0.299341556E-02  0.165197808E+00
   H -0.103472045E+02  0.441909946E+00  0.144875106E+01
   H  0.101054298E+02 -0.306853077E+00 -0.149684278E+01
     4
 # iter = 32500  time[fs]=32.50000
   C -0.193367435E+01  0.197028729E-01 -0.959496215E-01
   C  0.189949791E+01 -0.304058056E-02  0.173064820E+00
   H -0.107261165E+02  0.458199865E+00  0.150423692E+01
   H  0.104619766E+02 -0.318331804E+00 -0.155227232E+01
     4
 # iter = 33000  time[fs]=33.00000
   C -0.200510191E+01  0.195425677E-01 -0.100396436E+00
   C  0.196826749E+01 -0.309171782E-02  0.181000366E+00
   H -0.111066440E+02  0.474564986E+00  0.155998883E+01
   H  0.108199118E+02 -0.329855627E+00 -0.160792445E+01
     4
 # iter = 33500  time[fs]=33.50000
   C -0.207727903E+01  0.193834162E-01 -0.104910966E+00
   C  0.203780406E+01 -0.314634963E-02  0.189000278E+00
   H -0.114886786E+02  0.491000401E+00  0.161598948E+01
   H  0.111791447E+02 -0.341421654E+00 -0.166378511E+01
     4
 # iter = 34000  time[fs]=34.00000
   C -0.215015476E+01  0.192251557E-01 -0.109489127E+00
   C  0.210805538E+01 -0.320406200E-02  0.197060714E+00
   H -0.118721223E+02  0.507501661E+00  0.167222314E+01
   H  0.115395931E+02 -0.353027252E+00 -0.171984148E+01
     4
 # iter = 34500  time[fs]=34.50000
   C -0.222368276E+01  0.190675642E-01 -0.114127160E+00
   C  0.217897391E+01 -0.326449524E-02  0.205178132E+00
   H -0.122568858E+02  0.524064716E+00  0.172867551E+01
   H  0.119011820E+02 -0.364670022E+00 -0.177608188E+01
     4
 # iter = 35000  time[fs]=35.00000
   C -0.229782073E+01  0.189104534E-01 -0.118821601E+00
   C  0.225051630E+01 -0.332733600E-02  0.213349263E+00
   H -0.126428879E+02  0.540685871E+00  0.178533355E+01
   H  0.122638429E+02 -0.376347772E+00 -0.183249563E+01
     4
 # iter = 35500  time[fs]=35.50000
   C -0.237253005E+01  0.187536639E-01 -0.123569253E+00
   C  0.232264297E+01 -0.339231062E-02  0.221571088E+00
   H -0.130300548E+02  0.557361749E+00  0.184218534E+01
   H  0.126275133E+02 -0.388058493E+00 -0.188907291E+01
     4
 # iter = 36000  time[fs]=36.00000
   C -0.244777534E+01  0.185970606E-01 -0.128367163E+00
   C  0.239531768E+01 -0.345917949E-02  0.229840814E+00
   H -0.134183185E+02  0.574089251E+00  0.189921994E+01
   H  0.129921357E+02 -0.399800340E+00 -0.194580472E+01
     4
 # iter = 36500  time[fs]=36.50000
   C -0.252352421E+01  0.184405289E-01 -0.133212600E+00
   C  0.246850725E+01 -0.352773230E-02  0.238155854E+00
   H -0.138076169E+02  0.590865529E+00  0.195642730E+01
   H  0.133576575E+02 -0.411571617E+00 -0.200268275E+01
     4
 # iter = 37000  time[fs]=37.00000
   C -0.259974687E+01  0.182839720E-01 -0.138103033E+00
   C  0.254218120E+01 -0.359778405E-02  0.246513811E+00
   H -0.141978929E+02  0.607687963E+00  0.201379817E+01
   H  0.137240299E+02 -0.423370759E+00 -0.205969933E+01
     4
 # iter = 37500  time[fs]=37.50000
   C -0.267641596E+01  0.181273079E-01 -0.143036115E+00
   C  0.261631149E+01 -0.366917162E-02  0.254912459E+00
   H -0.145890938E+02  0.624554132E+00  0.207132402E+01
   H  0.140912081E+02 -0.435196320E+00 -0.211684738E+01
     4
 # iter = 38000  time[fs]=38.00000
   C -0.275350624E+01  0.179704673E-01 -0.148009669E+00
   C  0.269087232E+01 -0.374175085E-02  0.263349729E+00
   H -0.149811711E+02  0.641461800E+00  0.212899695E+01
   H  0.144591506E+02 -0.447046962E+00 -0.217412034E+01
     4
 # iter = 38500  time[fs]=38.50000
   C -0.283099444E+01  0.178133919E-01 -0.153021667E+00
   C  0.276583985E+01 -0.381539411E-02  0.271823698E+00
   H -0.153740798E+02  0.658408893E+00  0.218680964E+01
   H  0.148278191E+02 -0.458921444E+00 -0.223151209E+01
     4
 # iter = 39000  time[fs]=39.00000
   C -0.290885903E+01  0.176560327E-01 -0.158070224E+00
   C  0.284119207E+01 -0.388998814E-02  0.280332571E+00
   H -0.157677783E+02  0.675393488E+00  0.224475531E+01
   H  0.151971778E+02 -0.470818613E+00 -0.228901699E+01
     4
 # iter = 39500  time[fs]=39.50000
   C -0.298708009E+01  0.174983487E-01 -0.163153580E+00
   C  0.291690861E+01 -0.396543225E-02  0.288874678E+00
   H -0.161622280E+02  0.692413797E+00  0.230282764E+01
   H  0.155671935E+02 -0.482737397E+00 -0.234662974E+01
     4
 # iter = 40000  time[fs]=40.00000
   C -0.306563916E+01  0.173403055E-01 -0.168270096E+00
   C  0.299297058E+01 -0.404163677E-02  0.297448456E+00
   H -0.165573929E+02  0.709468155E+00  0.236102075E+01
   H  0.159378354E+02 -0.494676795E+00 -0.240434543E+01
     4
 # iter = 40500  time[fs]=40.50000
   C -0.314451909E+01  0.171818750E-01 -0.173418237E+00
   C  0.306936043E+01 -0.411852167E-02  0.306052446E+00
   H -0.169532395E+02  0.726555009E+00  0.241932917E+01
   H  0.163090748E+02 -0.506635875E+00 -0.246215945E+01
     4
 # iter = 41000  time[fs]=41.00000
   C -0.322370393E+01  0.170230337E-01 -0.178596569E+00
   C  0.314606187E+01 -0.419601545E-02  0.314685282E+00
   H -0.173497367E+02  0.743672907E+00  0.247774776E+01
   H  0.166808846E+02 -0.518613765E+00 -0.252006751E+01
     4
 # iter = 41500  time[fs]=41.50000
   C -0.330317885E+01  0.168637628E-01 -0.183803748E+00
   C  0.322305972E+01 -0.427405408E-02  0.323345683E+00
   H -0.177468554E+02  0.760820492E+00  0.253627174E+01
   H  0.170532399E+02 -0.530609649E+00 -0.257806557E+01
     4
 # iter = 42000  time[fs]=42.00000
   C -0.338293001E+01  0.167040469E-01 -0.189038515E+00
   C  0.330033983E+01 -0.435258015E-02  0.332032450E+00
   H -0.181445681E+02  0.777996495E+00  0.259489661E+01
   H  0.174261170E+02 -0.542622760E+00 -0.263614986E+01
     4
 # iter = 42500  time[fs]=42.50000
   C -0.346294448E+01  0.165438741E-01 -0.194299687E+00
   C  0.337788900E+01 -0.443154212E-02  0.340744454E+00
   H -0.185428495E+02  0.795199722E+00  0.265361817E+01
   H  0.177994938E+02 -0.554652381E+00 -0.269431682E+01
     4
 # iter = 43000  time[fs]=43.00000
   C -0.354321020E+01  0.163832350E-01 -0.199586152E+00
   C  0.345569488E+01 -0.451089364E-02  0.349480635E+00
   H -0.189416755E+02  0.812429053E+00  0.271243245E+01
   H  0.181733496E+02 -0.566697838E+00 -0.275256312E+01
     4
 # iter = 43500  time[fs]=43.50000
   C -0.362371586E+01  0.162221229E-01 -0.204896865E+00
   C  0.353374592E+01 -0.459059298E-02  0.358239997E+00
   H -0.193410236E+02  0.829683435E+00  0.277133573E+01
   H  0.185476649E+02 -0.578758495E+00 -0.281088561E+01
     4
 # iter = 44000  time[fs]=44.00000
   C -0.370445087E+01  0.160605328E-01 -0.210230842E+00
   C  0.361203130E+01 -0.467060251E-02  0.367021601E+00
   H -0.197408727E+02  0.846961878E+00  0.283032452E+01
   H  0.189224214E+02 -0.590833754E+00 -0.286928133E+01
     4
 # iter = 44500  time[fs]=44.50000
   C -0.378540530E+01  0.158984616E-01 -0.215587155E+00
   C  0.369054086E+01 -0.475088828E-02  0.375824560E+00
   H -0.201412029E+02  0.864263446E+00  0.288939550E+01
   H  0.192976018E+02 -0.602923052E+00 -0.292774749E+01
     4
 # iter = 45000  time[fs]=45.00000
   C -0.386656982E+01  0.157359078E-01 -0.220964929E+00
   C  0.376926508E+01 -0.483141958E-02  0.384648039E+00
   H -0.205419954E+02  0.881587259E+00  0.294854556E+01
   H  0.196731897E+02 -0.615025855E+00 -0.298628145E+01
     4
 # iter = 45500  time[fs]=45.50000
   C -0.394793567E+01  0.155728711E-01 -0.226363336E+00
   C  0.384819499E+01 -0.491216865E-02  0.393491249E+00
   H -0.209432325E+02  0.898932483E+00  0.300777176E+01
   H  0.200491698E+02 -0.627141663E+00 -0.304488070E+01
     4
 # iter = 46000  time[fs]=46.00000
   C -0.402949458E+01  0.154093523E-01 -0.231781595E+00
   C  0.392732216E+01 -0.499311036E-02  0.402353443E+00
   H -0.213448975E+02  0.916298332E+00  0.306707131E+01
   H  0.204255275E+02 -0.639269997E+00 -0.310354289E+01
     4
 # iter = 46500  time[fs]=46.50000
   C -0.411123879E+01  0.152453532E-01 -0.237218967E+00
   C  0.400663864E+01 -0.507422192E-02  0.411233916E+00
   H -0.217469745E+02  0.933684059E+00  0.312644157E+01
   H  0.208022490E+02 -0.651410409E+00 -0.316226578E+01
     4
 # iter = 47000  time[fs]=47.00000
   C -0.419316096E+01  0.150808764E-01 -0.242674752E+00
   C  0.408613694E+01 -0.515548265E-02  0.420131998E+00
   H -0.221494486E+02  0.951088959E+00  0.318588005E+01
   H  0.211793213E+02 -0.663562471E+00 -0.322104725E+01
     4
 # iter = 47500  time[fs]=47.50000
   C -0.427525417E+01  0.149159252E-01 -0.248148285E+00
   C  0.416580999E+01 -0.523687378E-02  0.429047056E+00
   H -0.225523056E+02  0.968512363E+00  0.324538437E+01
   H  0.215567321E+02 -0.675725778E+00 -0.327988528E+01
     4
 # iter = 48000  time[fs]=48.00000
   C -0.435751187E+01  0.147505033E-01 -0.253638939E+00
   C  0.424565110E+01 -0.531837826E-02  0.437978487E+00
   H -0.229555322E+02  0.985953634E+00  0.330495229E+01
   H  0.219344695E+02 -0.687899946E+00 -0.333877796E+01
     4
 # iter = 48500  time[fs]=48.50000
   C -0.443992789E+01  0.145846152E-01 -0.259146114E+00
   C  0.432565395E+01 -0.539998057E-02  0.446925722E+00
   H -0.233591154E+02  0.100341217E+01  0.336458167E+01
   H  0.223125225E+02 -0.700084609E+00 -0.339772347E+01
     4
 # iter = 49000  time[fs]=49.00000
   C -0.452249636E+01  0.144182656E-01 -0.264669244E+00
   C  0.440581256E+01 -0.548166661E-02  0.455888217E+00
   H -0.237630432E+02  0.102088740E+01  0.342427048E+01
   H  0.226908805E+02 -0.712279421E+00 -0.345672008E+01
     4
 # iter = 49500  time[fs]=49.50000
   C -0.460521175E+01  0.142514596E-01 -0.270207788E+00
   C  0.448612127E+01 -0.556342353E-02  0.464865456E+00
   H -0.241673042E+02  0.103837877E+01  0.348401678E+01
   H  0.230695333E+02 -0.724484050E+00 -0.351576615E+01
     4
 # iter = 50000  time[fs]=50.00000
   C -0.468806878E+01  0.140842025E-01 -0.275761234E+00
   C  0.456657469E+01 -0.564523962E-02  0.473856950E+00
   H -0.245718873E+02  0.105588577E+01  0.354381873E+01
   H  0.234484715E+02 -0.736698182E+00 -0.357486010E+01
     4
 # iter = 50500  time[fs]=50.50000
   C -0.477106247E+01  0.139165001E-01 -0.281329091E+00
   C  0.464716774E+01 -0.572710423E-02  0.482862229E+00
   H -0.249767821E+02  0.107340789E+01  0.360367458E+01
   H  0.238276858E+02 -0.748921516E+00 -0.363400043E+01
     4
 # iter = 51000  time[fs]=51.00000
   C -0.485418807E+01  0.137483580E-01 -0.286910895E+00
   C  0.472789556E+01 -0.580900762E-02  0.491880850E+00
   H -0.253819787E+02  0.109094468E+01  0.366358266E+01
   H  0.242071676E+02 -0.761153766E+00 -0.369318573E+01
     4
 # iter = 51500  time[fs]=51.50000
   C -0.493744109E+01  0.135797823E-01 -0.292506202E+00
   C  0.480875356E+01 -0.589094095E-02  0.500912386E+00
   H -0.257874676E+02  0.110849567E+01  0.372354136E+01
   H  0.245869085E+02 -0.773394660E+00 -0.375241461E+01
     4
 # iter = 52000  time[fs]=52.00000
   C -0.502081723E+01  0.134107789E-01 -0.298114586E+00
   C  0.488973735E+01 -0.597289611E-02  0.509956433E+00
   H -0.261932397E+02  0.112606043E+01  0.378354916E+01
   H  0.249669007E+02 -0.785643935E+00 -0.381168579E+01
     4
 # iter = 52500  time[fs]=52.50000
   C -0.510431242E+01  0.132413539E-01 -0.303735644E+00
   C  0.497084276E+01 -0.605486573E-02  0.519012604E+00
   H -0.265992865E+02  0.114363856E+01  0.384360460E+01
   H  0.253471365E+02 -0.797901342E+00 -0.387099800E+01
     4
 # iter = 53000  time[fs]=53.00000
   C -0.518792277E+01  0.130715136E-01 -0.309368988E+00
   C  0.505206583E+01 -0.613684309E-02  0.528080528E+00
   H -0.270055996E+02  0.116122966E+01  0.390370629E+01
   H  0.257276087E+02 -0.810166643E+00 -0.393035007E+01
     4
 # iter = 53500  time[fs]=53.50000
   C -0.527164456E+01  0.129012641E-01 -0.315014250E+00
   C  0.513340278E+01 -0.621882203E-02  0.537159853E+00
   H -0.274121713E+02  0.117883336E+01  0.396385289E+01
   H  0.261083103E+02 -0.822439609E+00 -0.398974085E+01
     4
 # iter = 54000  time[fs]=54.00000
   C -0.535547428E+01  0.127306117E-01 -0.320671075E+00
   C  0.521484999E+01 -0.630079694E-02  0.546250240E+00
   H -0.278189939E+02  0.119644929E+01  0.402404311E+01
   H  0.264892348E+02 -0.834720022E+00 -0.404916923E+01
     4
 # iter = 54500  time[fs]=54.50000
   C -0.543940855E+01  0.125595625E-01 -0.326339126E+00
   C  0.529640401E+01 -0.638276273E-02  0.555351366E+00
   H -0.282260602E+02  0.121407710E+01  0.408427574E+01
   H  0.268703758E+02 -0.847007671E+00 -0.410863418E+01
     4
 # iter = 55000  time[fs]=55.00000
   C -0.552344414E+01  0.123881227E-01 -0.332018077E+00
   C  0.537806156E+01 -0.646471471E-02  0.564462919E+00
   H -0.286333633E+02  0.123171648E+01  0.414454960E+01
   H  0.272517272E+02 -0.859302357E+00 -0.416813469E+01
     4
 # iter = 55500  time[fs]=55.50000
   C -0.560757798E+01  0.122162985E-01 -0.337707620E+00
   C  0.545981950E+01 -0.654664865E-02  0.573584605E+00
   H -0.290408965E+02  0.124936709E+01  0.420486357E+01
   H  0.276332832E+02 -0.871603885E+00 -0.422766979E+01
     4
 # iter = 56000  time[fs]=56.00000
   C -0.569180713E+01  0.120440959E-01 -0.343407455E+00
   C  0.554167480E+01 -0.662856065E-02  0.582716136E+00
   H -0.294486536E+02  0.126702864E+01  0.426521655E+01
   H  0.280150381E+02 -0.883912072E+00 -0.428723856E+01
     4
 # iter = 56500  time[fs]=56.50000
   C -0.577612875E+01  0.118715211E-01 -0.349117297E+00
   C  0.562362460E+01 -0.671044719E-02  0.591857241E+00
   H -0.298566284E+02  0.128470083E+01  0.432560752E+01
   H  0.283969866E+02 -0.896226739E+00 -0.434684010E+01
     4
 # iter = 57000  time[fs]=57.00000
   C -0.586054017E+01  0.116985799E-01 -0.354836872E+00
   C  0.570566614E+01 -0.679230504E-02  0.601007657E+00
   H -0.302648150E+02  0.130238339E+01  0.438603548E+01
   H  0.287791235E+02 -0.908547716E+00 -0.440647357E+01
     4
 # iter = 57500  time[fs]=57.50000
   C -0.594503879E+01  0.115252784E-01 -0.360565917E+00
   C  0.578779678E+01 -0.687413129E-02  0.610167132E+00
   H -0.306732078E+02  0.132007603E+01  0.444649945E+01
   H  0.291614438E+02 -0.920874838E+00 -0.446613812E+01
     4
 # iter = 58000  time[fs]=58.00000
   C -0.602962213E+01  0.113516222E-01 -0.366304179E+00
   C  0.587001398E+01 -0.695592327E-02  0.619335424E+00
   H -0.310818015E+02  0.133777850E+01  0.450699853E+01
   H  0.295439429E+02 -0.933207948E+00 -0.452583299E+01
     4
 # iter = 58500  time[fs]=58.50000
   C -0.611428783E+01  0.111776173E-01 -0.372051415E+00
   C  0.595231533E+01 -0.703767856E-02  0.628512301E+00
   H -0.314905907E+02  0.135549056E+01  0.456753183E+01
   H  0.299266160E+02 -0.945546894E+00 -0.458555739E+01
     4
 # iter = 59000  time[fs]=59.00000
   C -0.619903359E+01  0.110032693E-01 -0.377807391E+00
   C  0.603469850E+01 -0.711939497E-02  0.637697539E+00
   H -0.318995705E+02  0.137321196E+01  0.462809848E+01
   H  0.303094589E+02 -0.957891529E+00 -0.464531060E+01
     4
 # iter = 59500  time[fs]=59.50000
   C -0.628385724E+01  0.108285837E-01 -0.383571882E+00
   C  0.611716124E+01 -0.720107052E-02  0.646890922E+00
   H -0.323087361E+02  0.139094246E+01  0.468869766E+01
   H  0.306924671E+02 -0.970241713E+00 -0.470509192E+01
     4
 # iter = 60000  time[fs]=60.00000
   C -0.636875667E+01  0.106535661E-01 -0.389344672E+00
   C  0.619970141E+01 -0.728270342E-02  0.656092244E+00
   H -0.327180829E+02  0.140868185E+01  0.474932858E+01
   H  0.310756367E+02 -0.982597309E+00 -0.476490065E+01
     4
 # iter = 60500  time[fs]=60.50000
   C -0.645372986E+01  0.104782219E-01 -0.395125551E+00
   C  0.628231696E+01 -0.736429203E-02  0.665301305E+00
   H -0.331276063E+02  0.142642991E+01  0.480999048E+01
   H  0.314589637E+02 -0.994958188E+00 -0.482473614E+01
     4
 # iter = 61000  time[fs]=61.00000
   C -0.653877487E+01  0.103025565E-01 -0.400914320E+00
   C  0.636500588E+01 -0.744583491E-02  0.674517912E+00
   H -0.335373021E+02  0.144418643E+01  0.487068262E+01
   H  0.318424443E+02 -0.100732422E+01 -0.488459776E+01
     4
 # iter = 61500  time[fs]=61.50000
   C -0.662388983E+01  0.101265749E-01 -0.406710785E+00
   C  0.644776629E+01 -0.752733074E-02  0.683741881E+00
   H -0.339471661E+02  0.146195122E+01  0.493140428E+01
   H  0.322260748E+02 -0.101969529E+01 -0.494448489E+01
     4
 # iter = 62000  time[fs]=62.00000
   C -0.670907294E+01  0.995028249E-02 -0.412514758E+00
   C  0.653059633E+01 -0.760877834E-02  0.692973033E+00
   H -0.343571944E+02  0.147972407E+01  0.499215478E+01
   H  0.326098516E+02 -0.103207127E+01 -0.500439695E+01
     4
 # iter = 62500  time[fs]=62.50000
   C -0.679432248E+01  0.977368420E-02 -0.418326060E+00
   C  0.661349425E+01 -0.769017667E-02  0.702211195E+00
   H -0.347673829E+02  0.149750480E+01  0.505293345E+01
   H  0.329937714E+02 -0.104445206E+01 -0.506433336E+01
     4
 # iter = 63000  time[fs]=63.00000
   C -0.687963677E+01  0.959678499E-02 -0.424144518E+00
   C  0.669645833E+01 -0.777152480E-02  0.711456201E+00
   H -0.351777281E+02  0.151529324E+01  0.511373965E+01
   H  0.333778309E+02 -0.105683754E+01 -0.512429357E+01
     4
 # iter = 63500  time[fs]=63.50000
   C -0.696501421E+01  0.941958975E-02 -0.429969962E+00
   C  0.677948694E+01 -0.785282190E-02  0.720707891E+00
   H -0.355882263E+02  0.153308920E+01  0.517457276E+01
   H  0.337620268E+02 -0.106922761E+01 -0.518427705E+01
     4
 # iter = 64000  time[fs]=64.00000
   C -0.705045325E+01  0.924210323E-02 -0.435802232E+00
   C  0.686257850E+01 -0.793406724E-02  0.729966109E+00
   H -0.359988741E+02  0.155089253E+01  0.523543219E+01
   H  0.341463561E+02 -0.108162216E+01 -0.524428328E+01
     4
 # iter = 64500  time[fs]=64.50000
   C -0.713595240E+01  0.906433012E-02 -0.441641170E+00
   C  0.694573148E+01 -0.801526018E-02  0.739230706E+00
   H -0.364096679E+02  0.156870304E+01  0.529631735E+01
   H  0.345308158E+02 -0.109402110E+01 -0.530431177E+01
     4
 # iter = 65000  time[fs]=65.00000
   C -0.722151021E+01  0.888627501E-02 -0.447486626E+00
   C  0.702894440E+01 -0.809640018E-02  0.748501537E+00
   H -0.368206047E+02  0.158652060E+01  0.535722768E+01
   H  0.349154030E+02 -0.110642433E+01 -0.536436202E+01
     4
 # iter = 65500  time[fs]=65.50000
   C -0.730712530E+01  0.870794240E-02 -0.453338452E+00
   C  0.711221586E+01 -0.817748676E-02  0.757778462E+00
   H -0.372316813E+02  0.160434504E+01  0.541816264E+01
   H  0.353001150E+02 -0.111883175E+01 -0.542443358E+01
     4
 # iter = 66000  time[fs]=66.00000
   C -0.739279632E+01  0.852933670E-02 -0.459196509E+00
   C  0.719554446E+01 -0.825851951E-02  0.767061346E+00
   H -0.376428945E+02  0.162217622E+01  0.547912170E+01
   H  0.356849490E+02 -0.113124328E+01 -0.548452599E+01
     4
 # iter = 66500  time[fs]=66.50000
   C -0.747852198E+01  0.835046225E-02 -0.465060658E+00
   C  0.727892890E+01 -0.833949809E-02  0.776350057E+00
   H -0.380542416E+02  0.164001400E+01  0.554010436E+01
   H  0.360699024E+02 -0.114365884E+01 -0.554463882E+01
     4
 # iter = 67000  time[fs]=67.00000
   C -0.756430101E+01  0.817132327E-02 -0.470930767E+00
   C  0.736236789E+01 -0.842042224E-02  0.785644468E+00
   H -0.384657195E+02  0.165785823E+01  0.560111011E+01
   H  0.364549726E+02 -0.115607832E+01 -0.560477163E+01
     4
 # iter = 67500  time[fs]=67.50000
   C -0.765013222E+01  0.799192392E-02 -0.476806707E+00
   C  0.744586019E+01 -0.850129173E-02  0.794944458E+00
   H -0.388773256E+02  0.167570879E+01  0.566213850E+01
   H  0.368401574E+02 -0.116850167E+01 -0.566492401E+01
     4
 # iter = 68000  time[fs]=68.00000
   C -0.773601442E+01  0.781226829E-02 -0.482688356E+00
   C  0.752940461E+01 -0.858210638E-02  0.804249906E+00
   H -0.392890572E+02  0.169356554E+01  0.572318904E+01
   H  0.372254541E+02 -0.118092878E+01 -0.572509558E+01
     4
 # iter = 68500  time[fs]=68.50000
   C -0.782194649E+01  0.763236035E-02 -0.488575591E+00
   C  0.761299999E+01 -0.866286608E-02  0.813560698E+00
   H -0.397009116E+02  0.171142835E+01  0.578426129E+01
   H  0.376108607E+02 -0.119335960E+01 -0.578528593E+01
     4
 # iter = 69000  time[fs]=69.00000
   C -0.790792733E+01  0.745220403E-02 -0.494468298E+00
   C  0.769664520E+01 -0.874357075E-02  0.822876723E+00
   H -0.401128864E+02  0.172929711E+01  0.584535482E+01
   H  0.379963747E+02 -0.120579404E+01 -0.584549470E+01
     4
 # iter = 69500  time[fs]=69.50000
   C -0.799395587E+01  0.727180315E-02 -0.500366361E+00
   C  0.778033916E+01 -0.882422036E-02  0.832197871E+00
   H -0.405249790E+02  0.174717170E+01  0.590646920E+01
   H  0.383819941E+02 -0.121823203E+01 -0.590572151E+01
     4
 # iter = 70000  time[fs]=70.00000
   C -0.808003109E+01  0.709116147E-02 -0.506269673E+00
   C  0.786408083E+01 -0.890481489E-02  0.841524038E+00
   H -0.409371873E+02  0.176505199E+01  0.596760402E+01
   H  0.387677168E+02 -0.123067350E+01 -0.596596603E+01
     4
 # iter = 70500  time[fs]=70.50000
   C -0.816615200E+01  0.691028267E-02 -0.512178126E+00
   C  0.794786918E+01 -0.898535440E-02  0.850855123E+00
   H -0.413495088E+02  0.178293788E+01  0.602875889E+01
   H  0.391535407E+02 -0.124311839E+01 -0.602622789E+01
     4
 # iter = 71000  time[fs]=71.00000
   C -0.825231762E+01  0.672917035E-02 -0.518091617E+00
   C  0.803170324E+01 -0.906583893E-02  0.860191025E+00
   H -0.417619413E+02  0.180082926E+01  0.608993341E+01
   H  0.395394638E+02 -0.125556662E+01 -0.608650677E+01
     4
 # iter = 71500  time[fs]=71.50000
   C -0.833852703E+01  0.654782806E-02 -0.524010046E+00
   C  0.811558204E+01 -0.914626859E-02  0.869531651E+00
   H -0.421744826E+02  0.181872603E+01  0.615112721E+01
   H  0.399254842E+02 -0.126801813E+01 -0.614680235E+01
     4
 # iter = 72000  time[fs]=72.00000
   C -0.842477931E+01  0.636625924E-02 -0.529933316E+00
   C  0.819950465E+01 -0.922664350E-02  0.878876906E+00
   H -0.425871307E+02  0.183662808E+01  0.621233993E+01
   H  0.403116000E+02 -0.128047287E+01 -0.620711430E+01
     4
 # iter = 72500  time[fs]=72.50000
   C -0.851107359E+01  0.618446730E-02 -0.535861333E+00
   C  0.828347019E+01 -0.930696381E-02  0.888226700E+00
   H -0.429998835E+02  0.185453531E+01  0.627357120E+01
   H  0.406978095E+02 -0.129293077E+01 -0.626744233E+01
     4
 # iter = 73000  time[fs]=73.00000
   C -0.859740902E+01  0.600245556E-02 -0.541794004E+00
   C  0.836747778E+01 -0.938722967E-02  0.897580945E+00
   H -0.434127390E+02  0.187244763E+01  0.633482069E+01
   H  0.410841109E+02 -0.130539176E+01 -0.632778613E+01
     4
 # iter = 73500  time[fs]=73.50000
   C -0.868378477E+01  0.582022727E-02 -0.547731240E+00
   C  0.845152658E+01 -0.946744130E-02  0.906939556E+00
   H -0.438256953E+02  0.189036493E+01  0.639608806E+01
   H  0.414705023E+02 -0.131785580E+01 -0.638814541E+01
     4
 # iter = 74000  time[fs]=74.00000
   C -0.877020003E+01  0.563778563E-02 -0.553672956E+00
   C  0.853561576E+01 -0.954759888E-02  0.916302450E+00
   H -0.442387504E+02  0.190828714E+01  0.645737298E+01
   H  0.418569823E+02 -0.133032283E+01 -0.644851990E+01
     4
 # iter = 74500  time[fs]=74.50000
   C -0.885665402E+01  0.545513377E-02 -0.559619065E+00
   C  0.861974453E+01 -0.962770265E-02  0.925669547E+00
   H -0.446519027E+02  0.192621416E+01  0.651867513E+01
   H  0.422435491E+02 -0.134279279E+01 -0.650890932E+01
     4
 # iter = 75000  time[fs]=75.00000
   C -0.894314600E+01  0.527227475E-02 -0.565569488E+00
   C  0.870391211E+01 -0.970775284E-02  0.935040768E+00
   H -0.450651503E+02  0.194414590E+01  0.657999420E+01
   H  0.426302012E+02 -0.135526563E+01 -0.656931339E+01
     4
 # iter = 75500  time[fs]=75.50000
   C -0.902967521E+01  0.508921157E-02 -0.571524144E+00
   C  0.878811775E+01 -0.978774972E-02  0.944416037E+00
   H -0.454784914E+02  0.196208228E+01  0.664132990E+01
   H  0.430169370E+02 -0.136774130E+01 -0.662973187E+01
     4
 # iter = 76000  time[fs]=76.00000
   C -0.911624095E+01  0.490594719E-02 -0.577482955E+00
   C  0.887236072E+01 -0.986769355E-02  0.953795279E+00
   H -0.458919245E+02  0.198002321E+01  0.670268193E+01
   H  0.434037550E+02 -0.138021975E+01 -0.669016450E+01
     4
 # iter = 76500  time[fs]=76.50000
   C -0.920284253E+01  0.472248449E-02 -0.583445847E+00
   C  0.895664032E+01 -0.994758462E-02  0.963178423E+00
   H -0.463054478E+02  0.199796863E+01  0.676405001E+01
   H  0.437906538E+02 -0.139270094E+01 -0.675061102E+01
     4
 # iter = 77000  time[fs]=77.00000
   C -0.928947926E+01  0.453882630E-02 -0.589412745E+00
   C  0.904095585E+01 -0.100274232E-01  0.972565399E+00
   H -0.467190598E+02  0.201591844E+01  0.682543385E+01
   H  0.441776320E+02 -0.140518480E+01 -0.681107121E+01
     4
 # iter = 77500  time[fs]=77.50000
   C -0.937615049E+01  0.435497539E-02 -0.595383578E+00
   C  0.912530664E+01 -0.101072096E-01  0.981956137E+00
   H -0.471327589E+02  0.203387257E+01  0.688683318E+01
   H  0.445646882E+02 -0.141767130E+01 -0.687154483E+01
     4
 # iter = 78000  time[fs]=78.00000
   C -0.946285559E+01  0.417093449E-02 -0.601358278E+00
   C  0.920969204E+01 -0.101869442E-01  0.991350572E+00
   H -0.475465435E+02  0.205183096E+01  0.694824775E+01
   H  0.449518210E+02 -0.143016039E+01 -0.693203164E+01
     4
 # iter = 78500  time[fs]=78.50000
   C -0.954959392E+01  0.398670626E-02 -0.607336775E+00
   C  0.929411141E+01 -0.102666272E-01  0.100074864E+01
   H -0.479604124E+02  0.206979352E+01  0.700967729E+01
   H  0.453390291E+02 -0.144265203E+01 -0.699253143E+01
     4
 # iter = 79000  time[fs]=79.00000
   C -0.963636489E+01  0.380229331E-02 -0.613319004E+00
   C  0.937856414E+01 -0.103462590E-01  0.101015027E+01
   H -0.483743639E+02  0.208776019E+01  0.707112156E+01
   H  0.457263113E+02 -0.145514617E+01 -0.705304398E+01
     4
 # iter = 79500  time[fs]=79.50000
   C -0.972316790E+01  0.361769821E-02 -0.619304901E+00
   C  0.946304962E+01 -0.104258399E-01  0.101955541E+01
   H -0.487883967E+02  0.210573090E+01  0.713258030E+01
   H  0.461136662E+02 -0.146764278E+01 -0.711356908E+01
     4
 # iter = 80000  time[fs]=80.00000
   C -0.981000239E+01  0.343292347E-02 -0.625294403E+00
   C  0.954756727E+01 -0.105053702E-01  0.102896400E+01
   H -0.492025094E+02  0.212370558E+01  0.719405328E+01
   H  0.465010928E+02 -0.148014181E+01 -0.717410652E+01
