     4
 # iter = 25000  time[fs]=25.00000
   C -0.104331092E+01 -0.374075467E-01 -0.835674196E-02
   C  0.999340509E+00  0.301306273E-01  0.499552689E-02
   H -0.535523660E+01  0.535414348E+00 -0.422281655E+00
   H  0.540821778E+01  0.175696420E+00 -0.279835127E+00
     4
 # iter = 25500  time[fs]=25.50000
   C -0.109472732E+01 -0.400196558E-01 -0.619371776E-02
   C  0.104366226E+01  0.305622687E-01  0.672544329E-02
   H -0.569084829E+01  0.569249061E+00 -0.446601489E+00
   H  0.573089749E+01  0.184749427E+00 -0.296473668E+00
     4
 # iter = 26000  time[fs]=26.00000
   C -0.114900044E+01 -0.427771455E-01 -0.401323554E-02
   C  0.109086520E+01  0.310745842E-01  0.849952664E-02
   H -0.603196440E+01  0.603706448E+00 -0.471383038E+00
   H  0.605878806E+01  0.193956241E+00 -0.313389994E+00
     4
 # iter = 26500  time[fs]=26.50000
   C -0.120588328E+01 -0.456658759E-01 -0.181641273E-02
   C  0.114069785E+01  0.316606859E-01  0.103121220E-01
   H -0.637797060E+01  0.638716535E+00 -0.496574153E+00
   H  0.639132860E+01  0.203299808E+00 -0.330554984E+00
     4
 # iter = 27000  time[fs]=27.00000
   C -0.126514800E+01 -0.486733434E-01  0.395792042E-03
   C  0.119292887E+01  0.323142090E-01  0.121584348E-01
   H -0.672834457E+01  0.674220162E+00 -0.522130739E+00
   H  0.672803925E+01  0.212765623E+00 -0.347943698E+00
     4
 # iter = 27500  time[fs]=27.50000
   C -0.132658627E+01 -0.517884823E-01  0.262252713E-02
   C  0.124734708E+01  0.330293232E-01  0.140343941E-01
   H -0.708263932E+01  0.710166924E+00 -0.548015221E+00
   H  0.706850696E+01  0.222341266E+00 -0.365534636E+00
     4
 # iter = 28000  time[fs]=28.00000
   C -0.139000875E+01 -0.550014884E-01  0.486301657E-02
   C  0.130376086E+01  0.338007213E-01  0.159365353E-01
   H -0.744047001E+01  0.746513560E+00 -0.574195360E+00
   H  0.741237423E+01  0.232016035E+00 -0.383309153E+00
     4
 # iter = 28500  time[fs]=28.50000
   C -0.145524410E+01 -0.583036638E-01  0.711654150E-02
   C  0.136199703E+01  0.346235931E-01  0.178619017E-01
   H -0.780150333E+01  0.783222690E+00 -0.600643310E+00
   H  0.775932995E+01  0.241780655E+00 -0.401250987E+00
     4
 # iter = 29000  time[fs]=29.00000
   C -0.152213770E+01 -0.616872806E-01  0.938242923E-02
   C  0.142189945E+01  0.354935922E-01  0.198079615E-01
   H -0.816544910E+01  0.820261823E+00 -0.627334876E+00
   H  0.810910204E+01  0.251627045E+00 -0.419345880E+00
     4
 # iter = 29500  time[fs]=29.50000
   C -0.159055026E+01 -0.651454608E-01  0.116600467E-01
   C  0.148332760E+01  0.364067976E-01  0.217725389E-01
   H -0.853205332E+01  0.857602549E+00 -0.654248914E+00
   H  0.846145140E+01  0.261548125E+00 -0.437581268E+00
     4
 # iter = 30000  time[fs]=30.00000
   C -0.166035641E+01 -0.686720707E-01  0.139487967E-01
   C  0.154615509E+01  0.373596760E-01  0.237537568E-01
   H -0.890109263E+01  0.895219897E+00 -0.681366852E+00
   H  0.881616696E+01  0.271537665E+00 -0.455946032E+00
     4
 # iter = 30500  time[fs]=30.50000
   C -0.173144334E+01 -0.722616298E-01  0.162481151E-01
   C  0.161026824E+01  0.383490438E-01  0.257499893E-01
   H -0.927236971E+01  0.933091812E+00 -0.708672296E+00
   H  0.917306163E+01  0.281590155E+00 -0.474430288E+00
     4
 # iter = 31000  time[fs]=31.00000
   C -0.180370948E+01 -0.759092303E-01  0.185574694E-01
   C  0.167556477E+01  0.393720315E-01  0.277598223E-01
   H -0.964570947E+01  0.971198724E+00 -0.736150707E+00
   H  0.953196888E+01  0.291700704E+00 -0.493025212E+00
     4
 # iter = 31500  time[fs]=31.50000
   C -0.187706331E+01 -0.796104676E-01  0.208763567E-01
   C  0.174195258E+01  0.404260515E-01  0.297820211E-01
   H -0.100209560E+02  0.100952319E+01 -0.763789140E+00
   H  0.989273991E+01  0.301864952E+00 -0.511722900E+00
     4
 # iter = 32000  time[fs]=32.00000
   C -0.195142231E+01 -0.833613802E-01  0.232043030E-01
   C  0.180934862E+01  0.415087674E-01  0.318155029E-01
   H -0.103979698E+02  0.104804962E+01 -0.791576018E+00
   H  0.102552413E+02  0.312078997E+00 -0.530516246E+00
     4
 # iter = 32500  time[fs]=32.50000
   C -0.202671193E+01 -0.871583965E-01  0.255408613E-01
   C  0.187767794E+01  0.426180673E-01  0.338593147E-01
   H -0.107766257E+02  0.108676398E+01 -0.819500955E+00
   H  0.106193532E+02  0.322339337E+00 -0.549398840E+00
     4
 # iter = 33000  time[fs]=33.00000
   C -0.210286476E+01 -0.909982894E-01  0.278856110E-01
   C  0.194687274E+01  0.437520395E-01  0.359126144E-01
   H -0.111568111E+02  0.112565367E+01 -0.847554595E+00
   H  0.109849670E+02  0.332642813E+00 -0.568364880E+00
     4
 # iter = 33500  time[fs]=33.50000
   C -0.217981972E+01 -0.948781366E-01  0.302381558E-01
   C  0.201687166E+01  0.449089508E-01  0.379746548E-01
   H -0.115384242E+02  0.116470725E+01 -0.875728485E+00
   H  0.113519849E+02  0.342986573E+00 -0.587409100E+00
     4
 # iter = 34000  time[fs]=34.00000
   C -0.225752141E+01 -0.987952857E-01  0.325981229E-01
   C  0.208761901E+01  0.460872271E-01  0.400447710E-01
   H -0.119213728E+02  0.120391437E+01 -0.904014964E+00
   H  0.117203178E+02  0.353368030E+00 -0.606526709E+00
     4
 # iter = 34500  time[fs]=34.50000
   C -0.233591945E+01 -0.102747324E+00  0.349651618E-01
   C  0.215906419E+01  0.472854367E-01  0.421223686E-01
   H -0.123055730E+02  0.124326562E+01 -0.932407067E+00
   H  0.120898847E+02  0.363784833E+00 -0.625713333E+00
     4
 # iter = 35000  time[fs]=35.00000
   C -0.241496797E+01 -0.106732052E+00  0.373389426E-01
   C  0.223116113E+01  0.485022750E-01  0.442069152E-01
   H -0.126909487E+02  0.128275241E+01 -0.960898445E+00
   H  0.124606115E+02  0.374234838E+00 -0.644964970E+00
     4
 # iter = 35500  time[fs]=35.50000
   C -0.249462513E+01 -0.110747462E+00  0.397191550E-01
   C  0.230386781E+01  0.497365509E-01  0.462979315E-01
   H -0.130774300E+02  0.132236687E+01 -0.989483297E+00
   H  0.128324307E+02  0.384716087E+00 -0.664277951E+00
     4
 # iter = 36000  time[fs]=36.00000
   C -0.257485269E+01 -0.114791714E+00  0.421055070E-01
   C  0.237714586E+01  0.509871754E-01  0.483949855E-01
   H -0.134649531E+02  0.136210181E+01 -0.101815631E+01
   H  0.132052801E+02  0.395226784E+00 -0.683648901E+00
     4
 # iter = 36500  time[fs]=36.50000
   C -0.265561563E+01 -0.118863122E+00  0.444977240E-01
   C  0.245096013E+01  0.522531510E-01  0.504976861E-01
   H -0.138534594E+02  0.140195061E+01 -0.104691259E+01
   H  0.135791028E+02  0.405765283E+00 -0.703074715E+00
     4
 # iter = 37000  time[fs]=37.00000
   C -0.273688185E+01 -0.122960137E+00  0.468955473E-01
   C  0.252527840E+01  0.535335623E-01  0.526056785E-01
   H -0.142428951E+02  0.144190718E+01 -0.107574766E+01
   H  0.139538461E+02  0.416330067E+00 -0.722552523E+00
     4
 # iter = 37500  time[fs]=37.50000
   C -0.281862187E+01 -0.127081332E+00  0.492987335E-01
   C  0.260007108E+01  0.548275679E-01  0.547186397E-01
   H -0.146332104E+02  0.148196589E+01 -0.110465737E+01
   H  0.143294617E+02  0.426919739E+00 -0.742079673E+00
     4
 # iter = 38000  time[fs]=38.00000
   C -0.290080852E+01 -0.131225391E+00  0.517070529E-01
   C  0.267531094E+01  0.561343931E-01  0.568362752E-01
   H -0.150243595E+02  0.152212153E+01 -0.113363788E+01
   H  0.147059046E+02  0.437533005E+00 -0.761653707E+00
     4
 # iter = 38500  time[fs]=38.50000
   C -0.298341681E+01 -0.135391099E+00  0.541202894E-01
   C  0.275097288E+01  0.574533238E-01  0.589583155E-01
   H -0.154163000E+02  0.156236930E+01 -0.116268565E+01
   H  0.150831333E+02  0.448168672E+00 -0.781272342E+00
     4
 # iter = 39000  time[fs]=39.00000
   C -0.306642361E+01 -0.139577330E+00  0.565382388E-01
   C  0.282703375E+01  0.587836998E-01  0.610845137E-01
   H -0.158089925E+02  0.160270472E+01 -0.119179740E+01
   H  0.154611093E+02  0.458825630E+00 -0.800933457E+00
     4
 # iter = 39500  time[fs]=39.50000
   C -0.314980759E+01 -0.143783043E+00  0.589607086E-01
   C  0.290347212E+01  0.601249110E-01  0.632146428E-01
   H -0.162024004E+02  0.164312363E+01 -0.122097005E+01
   H  0.158397967E+02  0.469502848E+00 -0.820635076E+00
     4
 # iter = 40000  time[fs]=40.00000
   C -0.323354894E+01 -0.148007269E+00  0.613875170E-01
   C  0.298026816E+01  0.614763915E-01  0.653484938E-01
   H -0.165964898E+02  0.168362216E+01 -0.125020077E+01
   H  0.162191622E+02  0.480199369E+00 -0.840375356E+00
     4
 # iter = 40500  time[fs]=40.50000
   C -0.331762932E+01 -0.152249107E+00  0.638184920E-01
   C  0.305740346E+01  0.628376168E-01  0.674858738E-01
   H -0.169912291E+02  0.172419670E+01 -0.127948691E+01
   H  0.165991746E+02  0.490914300E+00 -0.860152573E+00
     4
 # iter = 41000  time[fs]=41.00000
   C -0.340203169E+01 -0.156507719E+00  0.662534713E-01
   C  0.313486095E+01  0.642080990E-01  0.696266044E-01
   H -0.173865885E+02  0.176484386E+01 -0.130882597E+01
   H  0.169798049E+02  0.501646805E+00 -0.879965118E+00
     4
 # iter = 41500  time[fs]=41.50000
   C -0.348674019E+01 -0.160782324E+00  0.686923010E-01
   C  0.321262473E+01  0.655873844E-01  0.717705206E-01
   H -0.177825407E+02  0.180556050E+01 -0.133821565E+01
   H  0.173610258E+02  0.512396107E+00 -0.899811479E+00
     4
 # iter = 42000  time[fs]=42.00000
   C -0.357174005E+01 -0.165072191E+00  0.711348356E-01
   C  0.329068000E+01  0.669750501E-01  0.739174690E-01
   H -0.181790596E+02  0.184634366E+01 -0.136765377E+01
   H  0.177428120E+02  0.523161475E+00 -0.919690242E+00
     4
 # iter = 42500  time[fs]=42.50000
   C -0.365701748E+01 -0.169376637E+00  0.735809372E-01
   C  0.336901295E+01  0.683707016E-01  0.760673070E-01
   H -0.185761212E+02  0.188719055E+01 -0.139713830E+01
   H  0.181251396E+02  0.533942227E+00 -0.939600076E+00
     4
 # iter = 43000  time[fs]=43.00000
   C -0.374255963E+01 -0.173695023E+00  0.760304749E-01
   C  0.344761069E+01  0.697739702E-01  0.782199018E-01
   H -0.189737026E+02  0.192809858E+01 -0.142666732E+01
   H  0.185079860E+02  0.544737719E+00 -0.959539729E+00
     4
 # iter = 43500  time[fs]=43.50000
   C -0.382835446E+01 -0.178026750E+00  0.784833246E-01
   C  0.352646117E+01  0.711845112E-01  0.803751297E-01
   H -0.193717825E+02  0.196906529E+01 -0.145623904E+01
   H  0.188913304E+02  0.555547348E+00 -0.979508025E+00
     4
 # iter = 44000  time[fs]=44.00000
   C -0.391439070E+01 -0.182371255E+00  0.809393687E-01
   C  0.360555311E+01  0.726020017E-01  0.825328749E-01
   H -0.197703409E+02  0.201008837E+01 -0.148585178E+01
   H  0.192751527E+02  0.566370549E+00 -0.999503852E+00
     4
 # iter = 44500  time[fs]=44.50000
   C -0.400065779E+01 -0.186728009E+00  0.833984951E-01
   C  0.368487591E+01  0.740261388E-01  0.846930293E-01
   H -0.201693589E+02  0.205116565E+01 -0.151550392E+01
   H  0.196594343E+02  0.577206785E+00 -0.101952616E+01
     4
 # iter = 45000  time[fs]=45.00000
   C -0.408714582E+01 -0.191096516E+00  0.858605974E-01
   C  0.376441966E+01  0.754566384E-01  0.868554914E-01
   H -0.205688185E+02  0.209229507E+01 -0.154519398E+01
   H  0.200441576E+02  0.588055554E+00 -0.103957397E+01
     4
 # iter = 45500  time[fs]=45.50000
   C -0.417384548E+01 -0.195476305E+00  0.883255744E-01
   C  0.384417502E+01  0.768932332E-01  0.890201661E-01
   H -0.209687031E+02  0.213347469E+01 -0.157492052E+01
   H  0.204293060E+02  0.598916378E+00 -0.105964633E+01
     4
 # iter = 46000  time[fs]=46.00000
   C -0.426074801E+01 -0.199866937E+00  0.907933299E-01
   C  0.392413324E+01  0.783356720E-01  0.911869640E-01
   H -0.213689967E+02  0.217470268E+01 -0.160468221E+01
   H  0.208148636E+02  0.609788810E+00 -0.107974237E+01
     4
 # iter = 46500  time[fs]=46.50000
   C -0.434784516E+01 -0.204267993E+00  0.932637719E-01
   C  0.400428604E+01  0.797837181E-01  0.933558010E-01
   H -0.217696843E+02  0.221597730E+01 -0.163447778E+01
   H  0.212008155E+02  0.620672423E+00 -0.109986124E+01
     4
 # iter = 47000  time[fs]=47.00000
   C -0.443512915E+01 -0.208679080E+00  0.957368130E-01
   C  0.408462564E+01  0.812371485E-01  0.955265980E-01
   H -0.221707516E+02  0.225729690E+01 -0.166430602E+01
   H  0.215871478E+02  0.631566815E+00 -0.112000214E+01
     4
 # iter = 47500  time[fs]=47.50000
   C -0.452259266E+01 -0.213099826E+00  0.982123698E-01
   C  0.416514471E+01  0.826957525E-01  0.976992804E-01
   H -0.225721852E+02  0.229865992E+01 -0.169416579E+01
   H  0.219738469E+02  0.642471605E+00 -0.114016433E+01
     4
 # iter = 48000  time[fs]=48.00000
   C -0.461022876E+01 -0.217529878E+00  0.100690363E+00
   C  0.424583632E+01  0.841593314E-01  0.998737776E-01
   H -0.229739723E+02  0.234006488E+01 -0.172405601E+01
   H  0.223609001E+02  0.653386430E+00 -0.116034708E+01
     4
 # iter = 48500  time[fs]=48.50000
   C -0.469803090E+01 -0.221968902E+00  0.103170716E+00
   C  0.432669389E+01  0.856276970E-01  0.102050023E+00
   H -0.233761008E+02  0.238151037E+01 -0.175397565E+01
   H  0.227482956E+02  0.664310947E+00 -0.118054971E+01
     4
 # iter = 49000  time[fs]=49.00000
   C -0.478599289E+01 -0.226416581E+00  0.105653356E+00
   C  0.440771125E+01  0.871006715E-01  0.104227954E+00
   H -0.237785591E+02  0.242299506E+01 -0.178392373E+01
   H  0.231360216E+02  0.675244830E+00 -0.120077158E+01
     4
 # iter = 49500  time[fs]=49.50000
   C -0.487410887E+01 -0.230872616E+00  0.108138214E+00
   C  0.448888252E+01  0.885780864E-01  0.106407510E+00
   H -0.241813362E+02  0.246451766E+01 -0.181389932E+01
   H  0.235240675E+02  0.686187767E+00 -0.122101205E+01
     4
 # iter = 50000  time[fs]=50.00000
   C -0.496237326E+01 -0.235336719E+00  0.110625224E+00
   C  0.457020213E+01  0.900597820E-01  0.108588636E+00
   H -0.245844218E+02  0.250607697E+01 -0.184390153E+01
   H  0.239124227E+02  0.697139464E+00 -0.124127055E+01
     4
 # iter = 50500  time[fs]=50.50000
   C -0.505078082E+01 -0.239808620E+00  0.113114322E+00
   C  0.465166481E+01  0.915456067E-01  0.110771277E+00
   H -0.249878058E+02  0.254767182E+01 -0.187392953E+01
   H  0.243010775E+02  0.708099639E+00 -0.126154652E+01
     4
 # iter = 51000  time[fs]=51.00000
   C -0.513932651E+01 -0.244288061E+00  0.115605447E+00
   C  0.473326555E+01  0.930354166E-01  0.112955383E+00
   H -0.253914789E+02  0.258930111E+01 -0.190398250E+01
   H  0.246900223E+02  0.719068025E+00 -0.128183940E+01
     4
 # iter = 51500  time[fs]=51.50000
   C -0.522800560E+01 -0.248774796E+00  0.118098541E+00
   C  0.481499959E+01  0.945290750E-01  0.115140905E+00
   H -0.257954320E+02  0.263096380E+01 -0.193405967E+01
   H  0.250792482E+02  0.730044364E+00 -0.130214870E+01
     4
 # iter = 52000  time[fs]=52.00000
   C -0.531681356E+01 -0.253268591E+00  0.120593548E+00
   C  0.489686240E+01  0.960264519E-01  0.117327797E+00
   H -0.261996565E+02  0.267265887E+01 -0.196416033E+01
   H  0.254687467E+02  0.741028412E+00 -0.132247392E+01
     4
 # iter = 52500  time[fs]=52.50000
   C -0.540574609E+01 -0.257769221E+00  0.123090414E+00
   C  0.497884969E+01  0.975274236E-01  0.119516015E+00
   H -0.266041441E+02  0.271438537E+01 -0.199428375E+01
   H  0.258585094E+02  0.752019938E+00 -0.134281460E+01
     4
 # iter = 53000  time[fs]=53.00000
   C -0.549479909E+01 -0.262276476E+00  0.125589088E+00
   C  0.506095735E+01  0.990318722E-01  0.121705518E+00
   H -0.270088870E+02  0.275614236E+01 -0.202442928E+01
   H  0.262485285E+02  0.763018716E+00 -0.136317029E+01
     4
 # iter = 53500  time[fs]=53.50000
   C -0.558396866E+01 -0.266790150E+00  0.128089520E+00
   C  0.514318148E+01  0.100539685E+00  0.123896266E+00
   H -0.274138777E+02  0.279792898E+01 -0.205459626E+01
   H  0.266387966E+02  0.774024535E+00 -0.138354055E+01
     4
 # iter = 54000  time[fs]=54.00000
   C -0.567325107E+01 -0.271310049E+00  0.130591663E+00
   C  0.522551836E+01  0.102050756E+00  0.126088221E+00
   H -0.278191089E+02  0.283974438E+01 -0.208478410E+01
   H  0.270293065E+02  0.785037190E+00 -0.140392498E+01
     4
 # iter = 54500  time[fs]=54.50000
   C -0.576264278E+01 -0.275835988E+00  0.133095472E+00
   C  0.530796443E+01  0.103564982E+00  0.128281346E+00
   H -0.282245738E+02  0.288158775E+01 -0.211499219E+01
   H  0.274200513E+02  0.796056486E+00 -0.142432318E+01
     4
 # iter = 55000  time[fs]=55.00000
   C -0.585214038E+01 -0.280367790E+00  0.135600902E+00
   C  0.539051630E+01  0.105082266E+00  0.130475607E+00
   H -0.286302658E+02  0.292345832E+01 -0.214521997E+01
   H  0.278110244E+02  0.807082235E+00 -0.144473478E+01
     4
 # iter = 55500  time[fs]=55.50000
   C -0.594174065E+01 -0.284905283E+00  0.138107911E+00
   C  0.547317072E+01  0.106602515E+00  0.132670971E+00
   H -0.290361785E+02  0.296535534E+01 -0.217546691E+01
   H  0.282022194E+02  0.818114258E+00 -0.146515941E+01
     4
 # iter = 56000  time[fs]=56.00000
   C -0.603144049E+01 -0.289448305E+00  0.140616459E+00
   C  0.555592461E+01  0.108125638E+00  0.134867406E+00
   H -0.294423058E+02  0.300727811E+01 -0.220573249E+01
   H  0.285936304E+02  0.829152382E+00 -0.148559672E+01
     4
 # iter = 56500  time[fs]=56.50000
   C -0.612123692E+01 -0.293996699E+00  0.143126507E+00
   C  0.563877500E+01  0.109651552E+00  0.137064882E+00
   H -0.298486420E+02  0.304922593E+01 -0.223601620E+01
   H  0.289852514E+02  0.840196443E+00 -0.150604638E+01
     4
 # iter = 57000  time[fs]=57.00000
   C -0.621112713E+01 -0.298550317E+00  0.145638017E+00
   C  0.572171905E+01  0.111180174E+00  0.139263369E+00
   H -0.302551815E+02  0.309119814E+01 -0.226631756E+01
   H  0.293770769E+02  0.851246281E+00 -0.152650806E+01
     4
 # iter = 57500  time[fs]=57.50000
   C -0.630110838E+01 -0.303109014E+00  0.148150953E+00
   C  0.580475404E+01  0.112711427E+00  0.141462840E+00
   H -0.306619188E+02  0.313319413E+01 -0.229663613E+01
   H  0.297691015E+02  0.862301744E+00 -0.154698147E+01
     4
 # iter = 58000  time[fs]=58.00000
   C -0.639117808E+01 -0.307672653E+00  0.150665279E+00
   C  0.588787738E+01  0.114245234E+00  0.143663268E+00
   H -0.310688488E+02  0.317521327E+01 -0.232697144E+01
   H  0.301613201E+02  0.873362685E+00 -0.156746629E+01
     4
 # iter = 58500  time[fs]=58.50000
   C -0.648133373E+01 -0.312241101E+00  0.153180963E+00
   C  0.597108656E+01  0.115781525E+00  0.145864627E+00
   H -0.314759665E+02  0.321725498E+01 -0.235732309E+01
   H  0.305537277E+02  0.884428964E+00 -0.158796225E+01
     4
 # iter = 59000  time[fs]=59.00000
   C -0.657157294E+01 -0.316814230E+00  0.155697971E+00
   C  0.605437920E+01  0.117320231E+00  0.148066893E+00
   H -0.318832672E+02  0.325931870E+01 -0.238769065E+01
   H  0.309463194E+02  0.895500444E+00 -0.160846906E+01
     4
 # iter = 59500  time[fs]=59.50000
   C -0.666189341E+01 -0.321391919E+00  0.158216272E+00
   C  0.613775300E+01  0.118861284E+00  0.150270042E+00
   H -0.322907462E+02  0.330140388E+01 -0.241807373E+01
   H  0.313390907E+02  0.906576995E+00 -0.162898646E+01
     4
 # iter = 60000  time[fs]=60.00000
   C -0.675229294E+01 -0.325974050E+00  0.160735836E+00
   C  0.622120575E+01  0.120404622E+00  0.152474051E+00
   H -0.326983991E+02  0.334351000E+01 -0.244847196E+01
   H  0.317320372E+02  0.917658491E+00 -0.164951420E+01
     4
 # iter = 60500  time[fs]=60.50000
   C -0.684276940E+01 -0.330560509E+00  0.163256634E+00
   C  0.630473533E+01  0.121950184E+00  0.154678898E+00
   H -0.331062217E+02  0.338563656E+01 -0.247888497E+01
   H  0.321251545E+02  0.928744811E+00 -0.167005203E+01
     4
 # iter = 61000  time[fs]=61.00000
   C -0.693332076E+01 -0.335151188E+00  0.165778637E+00
   C  0.638833971E+01  0.123497911E+00  0.156884563E+00
   H -0.335142097E+02  0.342778307E+01 -0.250931239E+01
   H  0.325184386E+02  0.939835837E+00 -0.169059970E+01
     4
 # iter = 61500  time[fs]=61.50000
   C -0.702394506E+01 -0.339745981E+00  0.168301818E+00
   C  0.647201693E+01  0.125047746E+00  0.159091025E+00
   H -0.339223594E+02  0.346994906E+01 -0.253975390E+01
   H  0.329118854E+02  0.950931458E+00 -0.171115700E+01
     4
 # iter = 62000  time[fs]=62.00000
   C -0.711464041E+01 -0.344344788E+00  0.170826151E+00
   C  0.655576510E+01  0.126599635E+00  0.161298264E+00
   H -0.343306667E+02  0.351213407E+01 -0.257020916E+01
   H  0.333054911E+02  0.962031564E+00 -0.173172369E+01
     4
 # iter = 62500  time[fs]=62.50000
   C -0.720540500E+01 -0.348947511E+00  0.173351610E+00
   C  0.663958241E+01  0.128153526E+00  0.163506261E+00
   H -0.347391281E+02  0.355433768E+01 -0.260067786E+01
   H  0.336992521E+02  0.973136050E+00 -0.175229956E+01
     4
 # iter = 63000  time[fs]=63.00000
   C -0.729623708E+01 -0.353554055E+00  0.175878170E+00
   C  0.672346711E+01  0.129709369E+00  0.165714999E+00
   H -0.351477399E+02  0.359655944E+01 -0.263115968E+01
   H  0.340931647E+02  0.984244816E+00 -0.177288440E+01
     4
 # iter = 63500  time[fs]=63.50000
   C -0.738713498E+01 -0.358164331E+00  0.178405807E+00
   C  0.680741752E+01  0.131267114E+00  0.167924460E+00
   H -0.355564987E+02  0.363879897E+01 -0.266165433E+01
   H  0.344872255E+02  0.995357762E+00 -0.179347802E+01
     4
 # iter = 64000  time[fs]=64.00000
   C -0.747809705E+01 -0.362778250E+00  0.180934498E+00
   C  0.689143202E+01  0.132826715E+00  0.170134627E+00
   H -0.359654011E+02  0.368105586E+01 -0.269216152E+01
   H  0.348814311E+02  0.100647480E+01 -0.181408021E+01
     4
 # iter = 64500  time[fs]=64.50000
   C -0.756912175E+01 -0.367395727E+00  0.183464221E+00
   C  0.697550904E+01  0.134388127E+00  0.172345484E+00
   H -0.363744441E+02  0.372332972E+01 -0.272268098E+01
   H  0.352757784E+02  0.101759582E+01 -0.183469080E+01
     4
 # iter = 65000  time[fs]=65.00000
   C -0.766020756E+01 -0.372016682E+00  0.185994954E+00
   C  0.705964708E+01  0.135951307E+00  0.174557015E+00
   H -0.367836243E+02  0.376562020E+01 -0.275321243E+01
   H  0.356702641E+02  0.102872076E+01 -0.185530959E+01
     4
 # iter = 65500  time[fs]=65.50000
   C -0.775135303E+01 -0.376641035E+00  0.188526676E+00
   C  0.714384468E+01  0.137516212E+00  0.176769204E+00
   H -0.371929389E+02  0.380792693E+01 -0.278375563E+01
   H  0.360648853E+02  0.103984951E+01 -0.187593642E+01
     4
 # iter = 66000  time[fs]=66.00000
   C -0.784255674E+01 -0.381268710E+00  0.191059366E+00
   C  0.722810043E+01  0.139082803E+00  0.178982038E+00
   H -0.376023849E+02  0.385024956E+01 -0.281431031E+01
   H  0.364596390E+02  0.105098201E+01 -0.189657112E+01
     4
 # iter = 66500  time[fs]=66.50000
   C -0.793381735E+01 -0.385899633E+00  0.193593005E+00
   C  0.731241299E+01  0.140651039E+00  0.181195501E+00
   H -0.380119594E+02  0.389258776E+01 -0.284487623E+01
   H  0.368545225E+02  0.106211816E+01 -0.191721351E+01
     4
 # iter = 67000  time[fs]=67.00000
   C -0.802513354E+01 -0.390533733E+00  0.196127573E+00
   C  0.739678103E+01  0.142220882E+00  0.183409581E+00
   H -0.384216598E+02  0.393494121E+01 -0.287545316E+01
   H  0.372495329E+02  0.107325789E+01 -0.193786344E+01
     4
 # iter = 67500  time[fs]=67.50000
   C -0.811650405E+01 -0.395170940E+00  0.198663052E+00
   C  0.748120330E+01  0.143792298E+00  0.185624263E+00
   H -0.388314835E+02  0.397730958E+01 -0.290604087E+01
   H  0.376446676E+02  0.108440112E+01 -0.195852075E+01
     4
 # iter = 68000  time[fs]=68.00000
   C -0.820792764E+01 -0.399811187E+00  0.201199423E+00
   C  0.756567856E+01  0.145365249E+00  0.187839535E+00
   H -0.392414277E+02  0.401969258E+01 -0.293663913E+01
   H  0.380399240E+02  0.109554779E+01 -0.197918529E+01
     4
 # iter = 68500  time[fs]=68.50000
   C -0.829940313E+01 -0.404454411E+00  0.203736670E+00
   C  0.765020563E+01  0.146939702E+00  0.190055384E+00
   H -0.396514901E+02  0.406208990E+01 -0.296724774E+01
   H  0.384352996E+02  0.110669782E+01 -0.199985693E+01
     4
 # iter = 69000  time[fs]=69.00000
   C -0.839092938E+01 -0.409100547E+00  0.206274774E+00
   C  0.773478337E+01  0.148515624E+00  0.192271799E+00
   H -0.400616682E+02  0.410450127E+01 -0.299786647E+01
   H  0.388307921E+02  0.111785114E+01 -0.202053551E+01
     4
 # iter = 69500  time[fs]=69.50000
   C -0.848250527E+01 -0.413749536E+00  0.208813720E+00
   C  0.781941067E+01  0.150092982E+00  0.194488768E+00
   H -0.404719597E+02  0.414692639E+01 -0.302849514E+01
   H  0.392263990E+02  0.112900769E+01 -0.204122089E+01
     4
 # iter = 70000  time[fs]=70.00000
   C -0.857412973E+01 -0.418401318E+00  0.211353491E+00
   C  0.790408645E+01  0.151671746E+00  0.196706278E+00
   H -0.408823623E+02  0.418936501E+01 -0.305913355E+01
   H  0.396221180E+02  0.114016740E+01 -0.206191296E+01
     4
 # iter = 70500  time[fs]=70.50000
   C -0.866580173E+01 -0.423055836E+00  0.213894071E+00
   C  0.798880967E+01  0.153251885E+00  0.198924320E+00
   H -0.412928739E+02  0.423181685E+01 -0.308978150E+01
   H  0.400179470E+02  0.115133021E+01 -0.208261157E+01
     4
 # iter = 71000  time[fs]=71.00000
   C -0.875752024E+01 -0.427713035E+00  0.216435446E+00
   C  0.807357933E+01  0.154833372E+00  0.201142883E+00
   H -0.417034922E+02  0.427428166E+01 -0.312043880E+01
   H  0.404138839E+02  0.116249606E+01 -0.210331660E+01
     4
 # iter = 71500  time[fs]=71.50000
   C -0.884928430E+01 -0.432372860E+00  0.218977600E+00
   C  0.815839445E+01  0.156416176E+00  0.203361956E+00
   H -0.421142153E+02  0.431675920E+01 -0.315110529E+01
   H  0.408099264E+02  0.117366489E+01 -0.212402792E+01
     4
 # iter = 72000  time[fs]=72.00000
   C -0.894109296E+01 -0.437035261E+00  0.221520520E+00
   C  0.824325409E+01  0.158000271E+00  0.205581529E+00
   H -0.425250410E+02  0.435924922E+01 -0.318178078E+01
   H  0.412060727E+02  0.118483663E+01 -0.214474543E+01
     4
 # iter = 72500  time[fs]=72.50000
   C -0.903294530E+01 -0.441700185E+00  0.224064190E+00
   C  0.832815732E+01  0.159585631E+00  0.207801592E+00
   H -0.429359675E+02  0.440175149E+01 -0.321246511E+01
   H  0.416023207E+02  0.119601125E+01 -0.216546900E+01
     4
 # iter = 73000  time[fs]=73.00000
   C -0.912484043E+01 -0.446367584E+00  0.226608598E+00
   C  0.841310326E+01  0.161172230E+00  0.210022137E+00
   H -0.433469928E+02  0.444426577E+01 -0.324315811E+01
   H  0.419986684E+02  0.120718868E+01 -0.218619852E+01
     4
 # iter = 73500  time[fs]=73.50000
   C -0.921677748E+01 -0.451037411E+00  0.229153731E+00
   C  0.849809104E+01  0.162760042E+00  0.212243153E+00
   H -0.437581151E+02  0.448679186E+01 -0.327385962E+01
   H  0.423951142E+02  0.121836887E+01 -0.220693388E+01
     4
 # iter = 74000  time[fs]=74.00000
   C -0.930875562E+01 -0.455709618E+00  0.231699575E+00
   C  0.858311983E+01  0.164349044E+00  0.214464632E+00
   H -0.441693326E+02  0.452932953E+01 -0.330456948E+01
   H  0.427916560E+02  0.122955176E+01 -0.222767498E+01
     4
 # iter = 74500  time[fs]=74.50000
   C -0.940077403E+01 -0.460384160E+00  0.234246117E+00
   C  0.866818881E+01  0.165939213E+00  0.216686566E+00
   H -0.445806435E+02  0.457187858E+01 -0.333528754E+01
   H  0.431882923E+02  0.124073732E+01 -0.224842172E+01
     4
 # iter = 75000  time[fs]=75.00000
   C -0.949283192E+01 -0.465060994E+00  0.236793346E+00
   C  0.875329720E+01  0.167530524E+00  0.218908945E+00
   H -0.449920461E+02  0.461443879E+01 -0.336601366E+01
   H  0.435850212E+02  0.125192548E+01 -0.226917398E+01
     4
 # iter = 75500  time[fs]=75.50000
   C -0.958492853E+01 -0.469740077E+00  0.239341250E+00
   C  0.883844422E+01  0.169122956E+00  0.221131761E+00
   H -0.454035387E+02  0.465700998E+01 -0.339674769E+01
   H  0.439818411E+02  0.126311621E+01 -0.228993168E+01
     4
 # iter = 76000  time[fs]=76.00000
   C -0.967706310E+01 -0.474421367E+00  0.241889816E+00
   C  0.892362913E+01  0.170716488E+00  0.223355007E+00
   H -0.458151199E+02  0.469959194E+01 -0.342748949E+01
   H  0.443787504E+02  0.127430946E+01 -0.231069472E+01
     4
 # iter = 76500  time[fs]=76.50000
   C -0.976923492E+01 -0.479104825E+00  0.244439034E+00
   C  0.900885121E+01  0.172311099E+00  0.225578675E+00
   H -0.462267879E+02  0.474218450E+01 -0.345823892E+01
   H  0.447757474E+02  0.128550518E+01 -0.233146301E+01
     4
 # iter = 77000  time[fs]=77.00000
   C -0.986144327E+01 -0.483790410E+00  0.246988893E+00
   C  0.909410976E+01  0.173906768E+00  0.227802757E+00
   H -0.466385412E+02  0.478478745E+01 -0.348899586E+01
   H  0.451728307E+02  0.129670332E+01 -0.235223645E+01
     4
 # iter = 77500  time[fs]=77.50000
   C -0.995368748E+01 -0.488478085E+00  0.249539381E+00
   C  0.917940408E+01  0.175503475E+00  0.230027245E+00
   H -0.470503784E+02  0.482740064E+01 -0.351976017E+01
   H  0.455699988E+02  0.130790386E+01 -0.237301495E+01
     4
 # iter = 78000  time[fs]=78.00000
   C -0.100459669E+02 -0.493167812E+00  0.252090489E+00
   C  0.926473351E+01  0.177101201E+00  0.232252134E+00
   H -0.474622981E+02  0.487002388E+01 -0.355053172E+01
   H  0.459672502E+02  0.131910674E+01 -0.239379844E+01
     4
 # iter = 78500  time[fs]=78.50000
   C -0.101382808E+02 -0.497859556E+00  0.254642206E+00
   C  0.935009741E+01  0.178699928E+00  0.234477415E+00
   H -0.478742987E+02  0.491265700E+01 -0.358131040E+01
   H  0.463645834E+02  0.133031192E+01 -0.241458683E+01
     4
 # iter = 79000  time[fs]=79.00000
   C -0.102306286E+02 -0.502553280E+00  0.257194522E+00
   C  0.943549514E+01  0.180299637E+00  0.236703082E+00
   H -0.482863790E+02  0.495529984E+01 -0.361209607E+01
   H  0.467619971E+02  0.134151938E+01 -0.243538003E+01
     4
 # iter = 79500  time[fs]=79.50000
   C -0.103230098E+02 -0.507248951E+00  0.259747427E+00
   C  0.952092610E+01  0.181900311E+00  0.238929128E+00
   H -0.486985375E+02  0.499795224E+01 -0.364288864E+01
   H  0.471594899E+02  0.135272905E+01 -0.245617797E+01
     4
 # iter = 80000  time[fs]=80.00000
   C -0.104154236E+02 -0.511946534E+00  0.262300912E+00
   C  0.960638968E+01  0.183501931E+00  0.241155547E+00
   H -0.491107730E+02  0.504061403E+01 -0.367368798E+01
   H  0.475570605E+02  0.136394093E+01 -0.247698057E+01
