     4
 # iter = 25000  time[fs]=25.00000
   C -0.102263578E+01 -0.372879305E-02 -0.208481411E-01
   C  0.943980442E+00 -0.387879393E-01 -0.182619780E-01
   H -0.523368191E+01  0.323919933E+00  0.122847659E+00
   H  0.522804208E+01  0.287746266E+00  0.322780993E+00
     4
 # iter = 25500  time[fs]=25.50000
   C -0.106999005E+01 -0.569982499E-02 -0.213447300E-01
   C  0.983846349E+00 -0.418083913E-01 -0.191323736E-01
   H -0.557114424E+01  0.341905116E+00  0.131444117E+00
   H  0.554407444E+01  0.303685400E+00  0.344004856E+00
     4
 # iter = 26000  time[fs]=26.00000
   C -0.112037747E+01 -0.764489206E-02 -0.218630011E-01
   C  0.102675825E+01 -0.449158999E-01 -0.200261436E-01
   H -0.591428969E+01  0.360276125E+00  0.140199562E+00
   H  0.586563577E+01  0.319971811E+00  0.365610410E+00
     4
 # iter = 26500  time[fs]=26.50000
   C -0.117354806E+01 -0.956581913E-02 -0.223999589E-01
   C  0.107246212E+01 -0.481015033E-01 -0.209412704E-01
   H -0.626246520E+01  0.378986482E+00  0.149095238E+00
   H  0.619212169E+01  0.336566330E+00  0.387556256E+00
     4
 # iter = 27000  time[fs]=27.00000
   C -0.122926772E+01 -0.114645005E-01 -0.229530959E-01
   C  0.112072080E+01 -0.513573125E-01 -0.218760128E-01
   H -0.661511840E+01  0.397997342E+00  0.158115427E+00
   H  0.652301621E+01  0.353435867E+00  0.409807125E+00
     4
 # iter = 27500  time[fs]=27.50000
   C -0.128731972E+01 -0.133428039E-01 -0.235203083E-01
   C  0.117131533E+01 -0.546763823E-01 -0.228288464E-01
   H -0.697177887E+01  0.417275953E+00  0.167246844E+00
   H  0.685787615E+01  0.370552245E+00  0.432332766E+00
     4
 # iter = 28000  time[fs]=28.00000
   C -0.134750519E+01 -0.152025128E-01 -0.240998259E-01
   C  0.122404509E+01 -0.580525951E-01 -0.237984215E-01
   H -0.733204331E+01  0.436794476E+00  0.176478165E+00
   H  0.719631870E+01  0.387891294E+00  0.455107063E+00
     4
 # iter = 28500  time[fs]=28.50000
   C -0.140964272E+01 -0.170452950E-01 -0.246901549E-01
   C  0.127872741E+01 -0.614805574E-01 -0.247835321E-01
   H -0.769556386E+01  0.456529076E+00  0.185799670E+00
   H  0.753801138E+01  0.405432138E+00  0.478107340E+00
     4
 # iter = 29000  time[fs]=29.00000
   C -0.147356758E+01 -0.188726880E-01 -0.252900296E-01
   C  0.133519661E+01 -0.649555079E-01 -0.257830938E-01
   H -0.806203871E+01  0.476459207E+00  0.195202960E+00
   H  0.788266392E+01  0.423156639E+00  0.501313792E+00
     4
 # iter = 29500  time[fs]=29.50000
   C -0.153913063E+01 -0.206860957E-01 -0.258983736E-01
   C  0.139330281E+01 -0.684732361E-01 -0.267961254E-01
   H -0.843120460E+01  0.496567045E+00  0.204680731E+00
   H  0.823002168E+01  0.441048943E+00  0.524709036E+00
     4
 # iter = 30000  time[fs]=30.00000
   C -0.160619711E+01 -0.224867913E-01 -0.265142678E-01
   C  0.145291073E+01 -0.720300121E-01 -0.278217361E-01
   H -0.880283071E+01  0.516837036E+00  0.214226593E+00
   H  0.857986024E+01  0.459095122E+00  0.548277739E+00
     4
 # iter = 30500  time[fs]=30.50000
   C -0.167464536E+01 -0.242759246E-01 -0.271369235E-01
   C  0.151389831E+01 -0.756225241E-01 -0.288591143E-01
   H -0.917671370E+01  0.537255536E+00  0.223834929E+00
   H  0.893198097E+01  0.477282875E+00  0.572006315E+00
     4
 # iter = 31000  time[fs]=31.00000
   C -0.174436559E+01 -0.260545305E-01 -0.277656614E-01
   C  0.157615548E+01 -0.792478253E-01 -0.299075182E-01
   H -0.955267363E+01  0.557810516E+00  0.233500778E+00
   H  0.928620731E+01  0.495601292E+00  0.595882675E+00
     4
 # iter = 31500  time[fs]=31.50000
   C -0.181525871E+01 -0.278235397E-01 -0.283998935E-01
   C  0.163958294E+01 -0.829032872E-01 -0.309662689E-01
   H -0.993055060E+01  0.578491319E+00  0.243219733E+00
   H  0.964238176E+01  0.514040652E+00  0.619896019E+00
     4
 # iter = 32000  time[fs]=32.00000
   C -0.188723520E+01 -0.295837877E-01 -0.290391087E-01
   C  0.170409106E+01 -0.865865596E-01 -0.320347429E-01
   H -0.103102019E+02  0.599288466E+00  0.252987866E+00
   H  0.100003633E+02  0.532592261E+00  0.644036662E+00
     4
 # iter = 32500  time[fs]=32.50000
   C -0.196021418E+01 -0.313360249E-01 -0.296828607E-01
   C  0.176959886E+01 -0.902955359E-01 -0.331123675E-01
   H -0.106914999E+02  0.620193486E+00  0.262801665E+00
   H  0.103600251E+02  0.551248312E+00  0.668295890E+00
     4
 # iter = 33000  time[fs]=33.00000
   C -0.203412242E+01 -0.330809254E-01 -0.303307584E-01
   C  0.183603307E+01 -0.940283230E-01 -0.341986150E-01
   H -0.110743297E+02  0.641198787E+00  0.272657970E+00
   H  0.107212529E+02  0.570001773E+00  0.692665833E+00
     4
 # iter = 33500  time[fs]=33.50000
   C -0.210889358E+01 -0.348190953E-01 -0.309824573E-01
   C  0.190332732E+01 -0.977832156E-01 -0.352929989E-01
   H -0.114585877E+02  0.662297534E+00  0.282553937E+00
   H  0.110839435E+02  0.588846286E+00  0.717139366E+00
     4
 # iter = 34000  time[fs]=34.00000
   C -0.218446743E+01 -0.365510797E-01 -0.316376527E-01
   C  0.197142141E+01 -0.101558674E+00 -0.363950698E-01
   H -0.118441804E+02  0.683483556E+00  0.292486990E+00
   H  0.114480030E+02  0.607776086E+00  0.741710015E+00
     4
 # iter = 34500  time[fs]=34.50000
   C -0.226078924E+01 -0.382773699E-01 -0.322960746E-01
   C  0.204026061E+01 -0.105353304E+00 -0.375044120E-01
   H -0.122310227E+02  0.704751264E+00  0.302454796E+00
   H  0.118133464E+02  0.626785930E+00  0.766371884E+00
     4
 # iter = 35000  time[fs]=35.00000
   C -0.233780918E+01 -0.399984091E-01 -0.329574821E-01
   C  0.210979514E+01 -0.109165840E+00 -0.386206405E-01
   H -0.126190376E+02  0.726095580E+00  0.312455228E+00
   H  0.121798958E+02  0.645871036E+00  0.791119589E+00
     4
 # iter = 35500  time[fs]=35.50000
   C -0.241548181E+01 -0.417145978E-01 -0.336216599E-01
   C  0.217997960E+01 -0.112995134E+00 -0.397433980E-01
   H -0.130081543E+02  0.747511877E+00  0.322486348E+00
   H  0.125475802E+02  0.665027034E+00  0.815948200E+00
     4
 # iter = 36000  time[fs]=36.00000
   C -0.249376560E+01 -0.434262982E-01 -0.342884150E-01
   C  0.225077252E+01 -0.116840135E+00 -0.408723530E-01
   H -0.133983086E+02  0.768995929E+00  0.332546384E+00
   H  0.129163346E+02  0.684249916E+00  0.840853191E+00
     4
 # iter = 36500  time[fs]=36.50000
   C -0.257262258E+01 -0.451338389E-01 -0.349575736E-01
   C  0.232213599E+01 -0.120699887E+00 -0.420071969E-01
   H -0.137894412E+02  0.790543866E+00  0.342633710E+00
   H  0.132860991E+02  0.703536000E+00  0.865830401E+00
     4
 # iter = 37000  time[fs]=37.00000
   C -0.265201792E+01 -0.468375179E-01 -0.356289786E-01
   C  0.239403524E+01 -0.124573513E+00 -0.431476424E-01
   H -0.141814980E+02  0.812152136E+00  0.352746830E+00
   H  0.136568187E+02  0.722881897E+00  0.890875994E+00
     4
 # iter = 37500  time[fs]=37.50000
   C -0.273191966E+01 -0.485376065E-01 -0.363024880E-01
   C  0.246643837E+01 -0.128460208E+00 -0.442934219E-01
   H -0.145744290E+02  0.833817469E+00  0.362884369E+00
   H  0.140284427E+02  0.742284478E+00  0.915986427E+00
     4
 # iter = 38000  time[fs]=38.00000
   C -0.281229840E+01 -0.502343514E-01 -0.369779725E-01
   C  0.253931604E+01 -0.132359234E+00 -0.454442852E-01
   H -0.149681880E+02  0.855536853E+00  0.373045056E+00
   H  0.144009241E+02  0.761740853E+00  0.941158420E+00
     4
 # iter = 38500  time[fs]=38.50000
   C -0.289312705E+01 -0.519279782E-01 -0.376553145E-01
   C  0.261264124E+01 -0.136269909E+00 -0.465999987E-01
   H -0.153627325E+02  0.877307504E+00  0.383227715E+00
   H  0.147742196E+02  0.781248341E+00  0.966388933E+00
     4
 # iter = 39000  time[fs]=39.00000
   C -0.297438063E+01 -0.536186927E-01 -0.383344067E-01
   C  0.268638906E+01 -0.140191607E+00 -0.477603438E-01
   H -0.157580229E+02  0.899126843E+00  0.393431258E+00
   H  0.151482889E+02  0.800804457E+00  0.991675144E+00
     4
 # iter = 39500  time[fs]=39.50000
   C -0.305603605E+01 -0.553066834E-01 -0.390151505E-01
   C  0.276053646E+01 -0.144123746E+00 -0.489251156E-01
   H -0.161540227E+02  0.920992480E+00  0.403654673E+00
   H  0.155230946E+02  0.820406888E+00  0.101701442E+01
     4
 # iter = 40000  time[fs]=40.00000
   C -0.313807194E+01 -0.569921231E-01 -0.396974559E-01
   C  0.283506215E+01 -0.148065789E+00 -0.500941222E-01
   H -0.165506977E+02  0.942902195E+00  0.413897021E+00
   H  0.158986018E+02  0.840053483E+00  0.104240432E+01
     4
 # iter = 40500  time[fs]=40.50000
   C -0.322046850E+01 -0.586751704E-01 -0.403812396E-01
   C  0.290994638E+01 -0.152017239E+00 -0.512671831E-01
   H -0.169480164E+02  0.964853921E+00  0.424157426E+00
   H  0.162747781E+02  0.859742234E+00  0.106784256E+01
     4
 # iter = 41000  time[fs]=41.00000
   C -0.330320734E+01 -0.603559713E-01 -0.410664251E-01
   C  0.298517084E+01 -0.155977633E+00 -0.524441289E-01
   H -0.173459492E+02  0.986845732E+00  0.434435070E+00
   H  0.166515932E+02  0.879471264E+00  0.109332700E+01
     4
 # iter = 41500  time[fs]=41.50000
   C -0.338627137E+01 -0.620346602E-01 -0.417529418E-01
   C  0.306071848E+01 -0.159946539E+00 -0.536248001E-01
   H -0.177444684E+02  0.100887583E+01  0.444729190E+00
   H  0.170290188E+02  0.899238821E+00  0.111885564E+01
     4
 # iter = 42000  time[fs]=42.00000
   C -0.346964469E+01 -0.637113610E-01 -0.424407240E-01
   C  0.313657346E+01 -0.163923557E+00 -0.548090465E-01
   H -0.181435483E+02  0.103094253E+01  0.455039072E+00
   H  0.174070284E+02  0.919043261E+00  0.114442661E+01
     4
 # iter = 42500  time[fs]=42.50000
   C -0.355331247E+01 -0.653861882E-01 -0.431297111E-01
   C  0.321272103E+01 -0.167908314E+00 -0.559967266E-01
   H -0.185431647E+02  0.105304426E+01  0.465364046E+00
   H  0.177855971E+02  0.938883041E+00  0.117003815E+01
     4
 # iter = 43000  time[fs]=43.00000
   C -0.363726087E+01 -0.670592477E-01 -0.438198466E-01
   C  0.328914738E+01 -0.171900458E+00 -0.571877067E-01
   H -0.189432950E+02  0.107517955E+01  0.475703485E+00
   H  0.181647016E+02  0.958756714E+00  0.119568860E+01
     4
 # iter = 43500  time[fs]=43.50000
   C -0.372147697E+01 -0.687306377E-01 -0.445110779E-01
   C  0.336583965E+01 -0.175899664E+00 -0.583818605E-01
   H -0.193439179E+02  0.109734700E+01  0.486056798E+00
   H  0.185443200E+02  0.978662918E+00  0.122137642E+01
     4
 # iter = 44000  time[fs]=44.00000
   C -0.380594865E+01 -0.704004490E-01 -0.452033562E-01
   C  0.344278579E+01 -0.179905625E+00 -0.595790689E-01
   H -0.197450133E+02  0.111954533E+01  0.496423430E+00
   H  0.189244317E+02  0.998600370E+00  0.124710013E+01
     4
 # iter = 44500  time[fs]=44.50000
   C -0.389066460E+01 -0.720687662E-01 -0.458966356E-01
   C  0.351997451E+01 -0.183918053E+00 -0.607792189E-01
   H -0.201465625E+02  0.114177329E+01  0.506802858E+00
   H  0.193050172E+02  0.101856786E+01  0.127285836E+01
     4
 # iter = 45000  time[fs]=45.00000
   C -0.397561417E+01 -0.737356678E-01 -0.465908734E-01
   C  0.359739525E+01 -0.187936679E+00 -0.619822035E-01
   H -0.205485477E+02  0.116402974E+01  0.517194590E+00
   H  0.196860582E+02  0.103856426E+01  0.129864980E+01
     4
 # iter = 45500  time[fs]=45.50000
   C -0.406078740E+01 -0.754012269E-01 -0.472860294E-01
   C  0.367503805E+01 -0.191961249E+00 -0.631879213E-01
   H -0.209509523E+02  0.118631358E+01  0.527598161E+00
   H  0.200675375E+02  0.105858847E+01  0.132447322E+01
     4
 # iter = 46000  time[fs]=46.00000
   C -0.414617490E+01 -0.770655118E-01 -0.479820661E-01
   C  0.375289360E+01 -0.195991524E+00 -0.643962763E-01
   H -0.213537603E+02  0.120862379E+01  0.538013130E+00
   H  0.204494387E+02  0.107863949E+01  0.135032746E+01
     4
 # iter = 46500  time[fs]=46.50000
   C -0.423176784E+01 -0.787285859E-01 -0.486789482E-01
   C  0.383095310E+01 -0.200027279E+00 -0.656071771E-01
   H -0.217569569E+02  0.123095940E+01  0.548439082E+00
   H  0.208317463E+02  0.109871634E+01  0.137621141E+01
     4
 # iter = 47000  time[fs]=47.00000
   C -0.431755792E+01 -0.803905087E-01 -0.493766425E-01
   C  0.390920828E+01 -0.204068302E+00 -0.668205369E-01
   H -0.221605279E+02  0.125331948E+01  0.558875624E+00
   H  0.212144457E+02  0.111881812E+01  0.140212402E+01
     4
 # iter = 47500  time[fs]=47.50000
   C -0.440353730E+01 -0.820513358E-01 -0.500751176E-01
   C  0.398765136E+01 -0.208114393E+00 -0.680362732E-01
   H -0.225644600E+02  0.127570317E+01  0.569322382E+00
   H  0.215975230E+02  0.113894396E+01  0.142806431E+01
     4
 # iter = 48000  time[fs]=48.00000
   C -0.448969857E+01 -0.837111192E-01 -0.507743442E-01
   C  0.406627497E+01 -0.212165362E+00 -0.692543075E-01
   H -0.229687404E+02  0.129810963E+01  0.579779003E+00
   H  0.219809651E+02  0.115909304E+01  0.145403133E+01
     4
 # iter = 48500  time[fs]=48.50000
   C -0.457603475E+01 -0.853699075E-01 -0.514742943E-01
   C  0.414507215E+01 -0.216221029E+00 -0.704745651E-01
   H -0.233733571E+02  0.132053808E+01  0.590245151E+00
   H  0.223647594E+02  0.117926457E+01  0.148002418E+01
     4
 # iter = 49000  time[fs]=49.00000
   C -0.466253923E+01 -0.870277466E-01 -0.521749416E-01
   C  0.422403634E+01 -0.220281226E+00 -0.716969747E-01
   H -0.237782988E+02  0.134298779E+01  0.600720507E+00
   H  0.227488942E+02  0.119945781E+01  0.150604201E+01
     4
 # iter = 49500  time[fs]=49.50000
   C -0.474920576E+01 -0.886846794E-01 -0.528762613E-01
   C  0.430316133E+01 -0.224345792E+00 -0.729214682E-01
   H -0.241835544E+02  0.136545803E+01  0.611204766E+00
   H  0.231333581E+02  0.121967205E+01  0.153208401E+01
     4
 # iter = 50000  time[fs]=50.00000
   C -0.483602841E+01 -0.903407463E-01 -0.535782299E-01
   C  0.438244121E+01 -0.228414573E+00 -0.741479809E-01
   H -0.245891138E+02  0.138794815E+01  0.621697641E+00
   H  0.235181404E+02  0.123990662E+01  0.155814942E+01
     4
 # iter = 50500  time[fs]=50.50000
   C -0.492300158E+01 -0.919959851E-01 -0.542808249E-01
   C  0.446187042E+01 -0.232487425E+00 -0.753764507E-01
   H -0.249949670E+02  0.141045749E+01  0.632198855E+00
   H  0.239032309E+02  0.126016089E+01  0.158423749E+01
     4
 # iter = 51000  time[fs]=51.00000
   C -0.501011993E+01 -0.936504318E-01 -0.549840252E-01
   C  0.454144364E+01 -0.236564211E+00 -0.766068186E-01
   H -0.254011047E+02  0.143298544E+01  0.642708147E+00
   H  0.242886197E+02  0.128043423E+01  0.161034752E+01
     4
 # iter = 51500  time[fs]=51.50000
   C -0.509737840E+01 -0.953041199E-01 -0.556878107E-01
   C  0.462115586E+01 -0.240644798E+00 -0.778390279E-01
   H -0.258075179E+02  0.145553143E+01  0.653225267E+00
   H  0.246742977E+02  0.130072606E+01  0.163647885E+01
     4
 # iter = 52000  time[fs]=52.00000
   C -0.518477219E+01 -0.969570812E-01 -0.563921621E-01
   C  0.470100229E+01 -0.244729064E+00 -0.790730244E-01
   H -0.262141981E+02  0.147809490E+01  0.663749975E+00
   H  0.250602558E+02  0.132103582E+01  0.166263082E+01
     4
 # iter = 52500  time[fs]=52.50000
   C -0.527229673E+01 -0.986093458E-01 -0.570970615E-01
   C  0.478097840E+01 -0.248816888E+00 -0.803087564E-01
   H -0.266211371E+02  0.150067532E+01  0.674282044E+00
   H  0.254464857E+02  0.134136298E+01  0.168880283E+01
     4
 # iter = 53000  time[fs]=53.00000
   C -0.535994765E+01 -0.100260942E+00 -0.578024913E-01
   C  0.486107985E+01 -0.252908159E+00 -0.815461742E-01
   H -0.270283273E+02  0.152327218E+01  0.684821255E+00
   H  0.258329792E+02  0.136170704E+01  0.171499430E+01
     4
 # iter = 53500  time[fs]=53.50000
   C -0.544772083E+01 -0.101911897E+00 -0.585084350E-01
   C  0.494130253E+01 -0.257002768E+00 -0.827852301E-01
   H -0.274357611E+02  0.154588499E+01  0.695367399E+00
   H  0.262197286E+02  0.138206749E+01  0.174120466E+01
     4
 # iter = 54000  time[fs]=54.00000
   C -0.553561231E+01 -0.103562235E+00 -0.592148771E-01
   C  0.502164252E+01 -0.261100612E+00 -0.840258786E-01
   H -0.278434314E+02  0.156851330E+01  0.705920278E+00
   H  0.266067265E+02  0.140244389E+01  0.176743337E+01
     4
 # iter = 54500  time[fs]=54.50000
   C -0.562361832E+01 -0.105211982E+00 -0.599218023E-01
   C  0.510209607E+01 -0.265201592E+00 -0.852680759E-01
   H -0.282513314E+02  0.159115665E+01  0.716479699E+00
   H  0.269939657E+02  0.142283576E+01  0.179367993E+01
     4
 # iter = 55000  time[fs]=55.00000
   C -0.571173526E+01 -0.106861159E+00 -0.606291963E-01
   C  0.518265962E+01 -0.269305615E+00 -0.865117799E-01
   H -0.286594546E+02  0.161381463E+01  0.727045480E+00
   H  0.273814394E+02  0.144324270E+01  0.181994383E+01
     4
 # iter = 55500  time[fs]=55.50000
   C -0.579995971E+01 -0.108509788E+00 -0.613370455E-01
   C  0.526332974E+01 -0.273412591E+00 -0.877569503E-01
   H -0.290677948E+02  0.163648683E+01  0.737617444E+00
   H  0.277691412E+02  0.146366428E+01  0.184622461E+01
     4
 # iter = 56000  time[fs]=56.00000
   C -0.588828839E+01 -0.110157890E+00 -0.620453367E-01
   C  0.534410319E+01 -0.277522434E+00 -0.890035482E-01
   H -0.294763459E+02  0.165917285E+01  0.748195424E+00
   H  0.281570647E+02  0.148410011E+01  0.187252180E+01
     4
 # iter = 56500  time[fs]=56.50000
   C -0.597671816E+01 -0.111805484E+00 -0.627540573E-01
   C  0.542497685E+01 -0.281635062E+00 -0.902515364E-01
   H -0.298851022E+02  0.168187231E+01  0.758779256E+00
   H  0.285452040E+02  0.150454980E+01  0.189883498E+01
     4
 # iter = 57000  time[fs]=57.00000
   C -0.606524601E+01 -0.113452588E+00 -0.634631953E-01
   C  0.550594773E+01 -0.285750394E+00 -0.915008791E-01
   H -0.302940581E+02  0.170458487E+01  0.769368787E+00
   H  0.289335532E+02  0.152501301E+01  0.192516373E+01
     4
 # iter = 57500  time[fs]=57.50000
   C -0.615386908E+01 -0.115099221E+00 -0.641727392E-01
   C  0.558701300E+01 -0.289868357E+00 -0.927515415E-01
   H -0.307032084E+02  0.172731017E+01  0.779963865E+00
   H  0.293221068E+02  0.154548936E+01  0.195150763E+01
     4
 # iter = 58000  time[fs]=58.00000
   C -0.624258460E+01 -0.116745399E+00 -0.648826779E-01
   C  0.566816990E+01 -0.293988877E+00 -0.940034906E-01
   H -0.311125480E+02  0.175004788E+01  0.790564349E+00
   H  0.297108595E+02  0.156597854E+01  0.197786631E+01
     4
 # iter = 58500  time[fs]=58.50000
   C -0.633138996E+01 -0.118391138E+00 -0.655930008E-01
   C  0.574941583E+01 -0.298111884E+00 -0.952566944E-01
   H -0.315220719E+02  0.177279769E+01  0.801170099E+00
   H  0.300998062E+02  0.158648020E+01  0.200423938E+01
     4
 # iter = 59000  time[fs]=59.00000
   C -0.642028261E+01 -0.120036454E+00 -0.663036978E-01
   C  0.583074828E+01 -0.302237312E+00 -0.965111218E-01
   H -0.319317754E+02  0.179555927E+01  0.811780983E+00
   H  0.304889419E+02  0.160699405E+01  0.203062650E+01
     4
 # iter = 59500  time[fs]=59.50000
   C -0.650926014E+01 -0.121681360E+00 -0.670147590E-01
   C  0.591216483E+01 -0.306365097E+00 -0.977667433E-01
   H -0.323416540E+02  0.181833234E+01  0.822396872E+00
   H  0.308782619E+02  0.162751977E+01  0.205702731E+01
     4
 # iter = 60000  time[fs]=60.00000
   C -0.659832020E+01 -0.123325870E+00 -0.677261750E-01
   C  0.599366317E+01 -0.310495176E+00 -0.990235302E-01
   H -0.327517034E+02  0.184111662E+01  0.833017644E+00
   H  0.312677616E+02  0.164805709E+01  0.208344148E+01
     4
 # iter = 60500  time[fs]=60.50000
   C -0.668746058E+01 -0.124969998E+00 -0.684379369E-01
   C  0.607524109E+01 -0.314627491E+00 -0.100281455E+00
   H -0.331619193E+02  0.186391182E+01  0.843643179E+00
   H  0.316574366E+02  0.166860571E+01  0.210986868E+01
     4
 # iter = 61000  time[fs]=61.00000
   C -0.677667911E+01 -0.126613756E+00 -0.691500359E-01
   C  0.615689645E+01 -0.318761983E+00 -0.101540490E+00
   H -0.335722976E+02  0.188671768E+01  0.854273363E+00
   H  0.320472827E+02  0.168916537E+01  0.213630862E+01
     4
 # iter = 61500  time[fs]=61.50000
   C -0.686597373E+01 -0.128257157E+00 -0.698624636E-01
   C  0.623862721E+01 -0.322898599E+00 -0.102800611E+00
   H -0.339828345E+02  0.190953395E+01  0.864908085E+00
   H  0.324372957E+02  0.170973580E+01  0.216276098E+01
     4
 # iter = 62000  time[fs]=62.00000
   C -0.695534246E+01 -0.129900211E+00 -0.705752121E-01
   C  0.632043138E+01 -0.327037285E+00 -0.104061791E+00
   H -0.343935261E+02  0.193236037E+01  0.875547239E+00
   H  0.328274716E+02  0.173031677E+01  0.218922548E+01
     4
 # iter = 62500  time[fs]=62.50000
   C -0.704478337E+01 -0.131542930E+00 -0.712882734E-01
   C  0.640230707E+01 -0.331177990E+00 -0.105324008E+00
   H -0.348043689E+02  0.195519672E+01  0.886190722E+00
   H  0.332178068E+02  0.175090802E+01  0.221570185E+01
     4
 # iter = 63000  time[fs]=63.00000
   C -0.713429465E+01 -0.133185325E+00 -0.720016402E-01
   C  0.648425246E+01 -0.335320665E+00 -0.106587238E+00
   H -0.352153593E+02  0.197804277E+01  0.896838434E+00
   H  0.336082974E+02  0.177150932E+01  0.224218980E+01
     4
 # iter = 63500  time[fs]=63.50000
   C -0.722387450E+01 -0.134827404E+00 -0.727153051E-01
   C  0.656626579E+01 -0.339465262E+00 -0.107851458E+00
   H -0.356264939E+02  0.200089828E+01  0.907490279E+00
   H  0.339989400E+02  0.179212044E+01  0.226868908E+01
     4
 # iter = 64000  time[fs]=64.00000
   C -0.731352122E+01 -0.136469179E+00 -0.734292614E-01
   C  0.664834536E+01 -0.343611736E+00 -0.109116647E+00
   H -0.360377694E+02  0.202376305E+01  0.918146165E+00
   H  0.343897311E+02  0.181274117E+01  0.229519944E+01
     4
 # iter = 64500  time[fs]=64.50000
   C -0.740323318E+01 -0.138110659E+00 -0.741435021E-01
   C  0.673048954E+01 -0.347760043E+00 -0.110382783E+00
   H -0.364491827E+02  0.204663687E+01  0.928806001E+00
   H  0.347806673E+02  0.183337129E+01  0.232172063E+01
     4
 # iter = 65000  time[fs]=65.00000
   C -0.749300877E+01 -0.139751851E+00 -0.748580209E-01
   C  0.681269675E+01 -0.351910139E+00 -0.111649846E+00
   H -0.368607307E+02  0.206951954E+01  0.939469701E+00
   H  0.351717455E+02  0.185401060E+01  0.234825242E+01
     4
 # iter = 65500  time[fs]=65.50000
   C -0.758284646E+01 -0.141392765E+00 -0.755728114E-01
   C  0.689496548E+01 -0.356061984E+00 -0.112917817E+00
   H -0.372724104E+02  0.209241086E+01  0.950137180E+00
   H  0.355629625E+02  0.187465890E+01  0.237479458E+01
     4
 # iter = 66000  time[fs]=66.00000
   C -0.767274479E+01 -0.143033409E+00 -0.762878676E-01
   C  0.697729426E+01 -0.360215538E+00 -0.114186675E+00
   H -0.376842189E+02  0.211531065E+01  0.960808358E+00
   H  0.359543154E+02  0.189531600E+01  0.240134689E+01
     4
 # iter = 66500  time[fs]=66.50000
   C -0.776270232E+01 -0.144673791E+00 -0.770031837E-01
   C  0.705968167E+01 -0.364370763E+00 -0.115456404E+00
   H -0.380961536E+02  0.213821873E+01  0.971483156E+00
   H  0.363458011E+02  0.191598170E+01  0.242790913E+01
     4
 # iter = 67000  time[fs]=67.00000
   C -0.785271768E+01 -0.146313918E+00 -0.777187539E-01
   C  0.714212635E+01 -0.368527620E+00 -0.116726984E+00
   H -0.385082116E+02  0.216113491E+01  0.982161496E+00
   H  0.367374170E+02  0.193665584E+01  0.245448110E+01
     4
 # iter = 67500  time[fs]=67.50000
   C -0.794278953E+01 -0.147953798E+00 -0.784345728E-01
   C  0.722462698E+01 -0.372686075E+00 -0.117998398E+00
   H -0.389203904E+02  0.218405904E+01  0.992843307E+00
   H  0.371291602E+02  0.195733824E+01  0.248106259E+01
     4
 # iter = 68000  time[fs]=68.00000
   C -0.803291659E+01 -0.149593437E+00 -0.791506350E-01
   C  0.730718227E+01 -0.376846093E+00 -0.119270630E+00
   H -0.393326875E+02  0.220699094E+01  0.100352852E+01
   H  0.375210281E+02  0.197802873E+01  0.250765342E+01
     4
 # iter = 68500  time[fs]=68.50000
   C -0.812309761E+01 -0.151232842E+00 -0.798669355E-01
   C  0.738979101E+01 -0.381007639E+00 -0.120543662E+00
   H -0.397451004E+02  0.222993046E+01  0.101421705E+01
   H  0.379130181E+02  0.199872714E+01  0.253425338E+01
     4
 # iter = 69000  time[fs]=69.00000
   C -0.821333139E+01 -0.152872020E+00 -0.805834693E-01
   C  0.747245198E+01 -0.385170681E+00 -0.121817480E+00
   H -0.401576268E+02  0.225287744E+01  0.102490885E+01
   H  0.383051278E+02  0.201943331E+01  0.256086231E+01
     4
 # iter = 69500  time[fs]=69.50000
   C -0.830361677E+01 -0.154510976E+00 -0.813002315E-01
   C  0.755516405E+01 -0.389335187E+00 -0.123092067E+00
   H -0.405702643E+02  0.227583172E+01  0.103560384E+01
   H  0.386973547E+02  0.204014709E+01  0.258748001E+01
     4
 # iter = 70000  time[fs]=70.00000
   C -0.839395261E+01 -0.156149718E+00 -0.820172175E-01
   C  0.763792609E+01 -0.393501128E+00 -0.124367408E+00
   H -0.409830107E+02  0.229879317E+01  0.104630197E+01
   H  0.390896965E+02  0.206086834E+01  0.261410632E+01
     4
 # iter = 70500  time[fs]=70.50000
   C -0.848433783E+01 -0.157788249E+00 -0.827344226E-01
   C  0.772073701E+01 -0.397668472E+00 -0.125643490E+00
   H -0.413958638E+02  0.232176164E+01  0.105700317E+01
   H  0.394821508E+02  0.208159689E+01  0.264074107E+01
     4
 # iter = 71000  time[fs]=71.00000
   C -0.857477137E+01 -0.159426577E+00 -0.834518427E-01
   C  0.780359578E+01 -0.401837192E+00 -0.126920297E+00
   H -0.418088216E+02  0.234473700E+01  0.106770737E+01
   H  0.398747156E+02  0.210233262E+01  0.266738410E+01
     4
 # iter = 71500  time[fs]=71.50000
   C -0.866525221E+01 -0.161064707E+00 -0.841694732E-01
   C  0.788650137E+01 -0.406007260E+00 -0.128197817E+00
   H -0.422218820E+02  0.236771910E+01  0.107841453E+01
   H  0.402673887E+02  0.212307539E+01  0.269403525E+01
     4
 # iter = 72000  time[fs]=72.00000
   C -0.875577935E+01 -0.162702642E+00 -0.848873103E-01
   C  0.796945280E+01 -0.410178648E+00 -0.129476035E+00
   H -0.426350430E+02  0.239070783E+01  0.108912459E+01
   H  0.406601679E+02  0.214382506E+01  0.272069436E+01
     4
 # iter = 72500  time[fs]=72.50000
   C -0.884635183E+01 -0.164340390E+00 -0.856053497E-01
   C  0.805244912E+01 -0.414351330E+00 -0.130754939E+00
   H -0.430483028E+02  0.241370305E+01  0.109983749E+01
   H  0.410530512E+02  0.216458150E+01  0.274736128E+01
     4
 # iter = 73000  time[fs]=73.00000
   C -0.893696873E+01 -0.165977954E+00 -0.863235876E-01
   C  0.813548941E+01 -0.418525280E+00 -0.132034515E+00
   H -0.434616593E+02  0.243670464E+01  0.111055318E+01
   H  0.414460367E+02  0.218534459E+01  0.277403588E+01
     4
 # iter = 73500  time[fs]=73.50000
   C -0.902762913E+01 -0.167615338E+00 -0.870420203E-01
   C  0.821857276E+01 -0.422700475E+00 -0.133314753E+00
   H -0.438751109E+02  0.245971249E+01  0.112127160E+01
   H  0.418391225E+02  0.220611420E+01  0.280071800E+01
     4
 # iter = 74000  time[fs]=74.00000
   C -0.911833216E+01 -0.169252548E+00 -0.877606440E-01
   C  0.830169831E+01 -0.426876889E+00 -0.134595639E+00
   H -0.442886557E+02  0.248272648E+01  0.113199271E+01
   H  0.422323067E+02  0.222689021E+01  0.282740751E+01
     4
 # iter = 74500  time[fs]=74.50000
   C -0.920907696E+01 -0.170889588E+00 -0.884794552E-01
   C  0.838486522E+01 -0.431054499E+00 -0.135877162E+00
   H -0.447022920E+02  0.250574649E+01  0.114271646E+01
   H  0.426255875E+02  0.224767251E+01  0.285410429E+01
     4
 # iter = 75000  time[fs]=75.00000
   C -0.929986271E+01 -0.172526462E+00 -0.891984503E-01
   C  0.846807265E+01 -0.435233283E+00 -0.137159311E+00
   H -0.451160181E+02  0.252877241E+01  0.115344280E+01
   H  0.430189631E+02  0.226846099E+01  0.288080818E+01
     4
 # iter = 75500  time[fs]=75.50000
   C -0.939068860E+01 -0.174163173E+00 -0.899176261E-01
   C  0.855131982E+01 -0.439413219E+00 -0.138442075E+00
   H -0.455298325E+02  0.255180415E+01  0.116417168E+01
   H  0.434124319E+02  0.228925554E+01  0.290751908E+01
     4
 # iter = 76000  time[fs]=76.00000
   C -0.948155387E+01 -0.175799726E+00 -0.906369792E-01
   C  0.863460596E+01 -0.443594285E+00 -0.139725443E+00
   H -0.459437335E+02  0.257484159E+01  0.117490306E+01
   H  0.438059921E+02  0.231005604E+01  0.293423686E+01
     4
 # iter = 76500  time[fs]=76.50000
   C -0.957245773E+01 -0.177436125E+00 -0.913565064E-01
   C  0.871793031E+01 -0.447776460E+00 -0.141009404E+00
   H -0.463577196E+02  0.259788463E+01  0.118563689E+01
   H  0.441996421E+02  0.233086240E+01  0.296096139E+01
     4
 # iter = 77000  time[fs]=77.00000
   C -0.966339947E+01 -0.179072373E+00 -0.920762046E-01
   C  0.880129214E+01 -0.451959725E+00 -0.142293948E+00
   H -0.467717893E+02  0.262093318E+01  0.119637314E+01
   H  0.445933804E+02  0.235167450E+01  0.298769256E+01
     4
 # iter = 77500  time[fs]=77.50000
   C -0.975437837E+01 -0.180708474E+00 -0.927960707E-01
   C  0.888469074E+01 -0.456144058E+00 -0.143579066E+00
   H -0.471859411E+02  0.264398714E+01  0.120711175E+01
   H  0.449872054E+02  0.237249227E+01  0.301443025E+01
     4
 # iter = 78000  time[fs]=78.00000
   C -0.984539372E+01 -0.182344431E+00 -0.935161019E-01
   C  0.896812542E+01 -0.460329441E+00 -0.144864747E+00
   H -0.476001736E+02  0.266704642E+01  0.121785270E+01
   H  0.453811156E+02  0.239331558E+01  0.304117436E+01
     4
 # iter = 78500  time[fs]=78.50000
   C -0.993644485E+01 -0.183980248E+00 -0.942362953E-01
   C  0.905159552E+01 -0.464515856E+00 -0.146150982E+00
   H -0.480144854E+02  0.269011092E+01  0.122859593E+01
   H  0.457751095E+02  0.241414437E+01  0.306792478E+01
     4
 # iter = 79000  time[fs]=79.00000
   C -0.100275311E+02 -0.185615927E+00 -0.949566480E-01
   C  0.913510037E+01 -0.468703283E+00 -0.147437762E+00
   H -0.484288752E+02  0.271318056E+01  0.123934142E+01
   H  0.461691858E+02  0.243497852E+01  0.309468139E+01
     4
 # iter = 79500  time[fs]=79.50000
   C -0.101186518E+02 -0.187251472E+00 -0.956771573E-01
   C  0.921863935E+01 -0.472891706E+00 -0.148725078E+00
   H -0.488433416E+02  0.273625525E+01  0.125008911E+01
   H  0.465633430E+02  0.245581796E+01  0.312144411E+01
     4
 # iter = 80000  time[fs]=80.00000
   C -0.102098064E+02 -0.188886886E+00 -0.963978205E-01
   C  0.930221183E+01 -0.477081107E+00 -0.150012921E+00
   H -0.492578834E+02  0.275933490E+01  0.126083899E+01
   H  0.469575798E+02  0.247666258E+01  0.314821281E+01
