     4
 # iter = 25000  time[fs]=25.00000
   C -0.984774029E+00  0.385192323E-02  0.351432612E-01
   C  0.991538651E+00 -0.737147225E-02  0.135736059E-01
   H -0.537848654E+01 -0.420136279E+00  0.282291262E+00
   H  0.535793768E+01 -0.554071780E-01 -0.441935932E+00
     4
 # iter = 25500  time[fs]=25.50000
   C -0.102933884E+01  0.604359400E-02  0.359645507E-01
   C  0.103283076E+01 -0.710774784E-02  0.154448793E-01
   H -0.571021870E+01 -0.443827510E+00  0.300130067E+00
   H  0.567559918E+01 -0.576271434E-01 -0.470020262E+00
     4
 # iter = 26000  time[fs]=26.00000
   C -0.107675899E+01  0.827649620E-02  0.368111526E-01
   C  0.107691420E+01 -0.684878321E-02  0.173150827E-01
   H -0.604681290E+01 -0.467908860E+00  0.318218713E+00
   H  0.599889065E+01 -0.598946501E-01 -0.498645339E+00
     4
 # iter = 26500  time[fs]=26.50000
   C -0.112680182E+01  0.105482586E-01  0.376787202E-01
   C  0.112356293E+01 -0.659630011E-02  0.191860039E-01
   H -0.638773840E+01 -0.492336596E+00  0.336530308E+00
   H  0.632720215E+01 -0.622043143E-01 -0.527753570E+00
     4
 # iter = 27000  time[fs]=27.00000
   C -0.117925015E+01  0.128566154E-01  0.385635433E-01
   C  0.117256549E+01 -0.635149720E-02  0.210591638E-01
   H -0.673254238E+01 -0.517073698E+00  0.355041892E+00
   H  0.666001226E+01 -0.645515848E-01 -0.557295719E+00
     4
 # iter = 27500  time[fs]=27.50000
   C -0.123390322E+01  0.151994011E-01  0.394624828E-01
   C  0.122372608E+01 -0.611516364E-02  0.229358161E-01
   H -0.708083607E+01 -0.542088583E+00  0.373733728E+00
   H  0.699687258E+01 -0.669325840E-01 -0.587229426E+00
     4
 # iter = 28000  time[fs]=28.00000
   C -0.129057680E+01  0.175745510E-01  0.403729006E-01
   C  0.127686480E+01 -0.588777302E-02  0.248169657E-01
   H -0.743228368E+01 -0.567354125E+00  0.392588752E+00
   H  0.733739533E+01 -0.693439837E-01 -0.617518027E+00
     4
 # iter = 28500  time[fs]=28.50000
   C -0.134910276E+01  0.199801054E-01  0.412925902E-01
   C  0.133181732E+01 -0.566955955E-02  0.267033962E-01
   H -0.778659360E+01 -0.592846868E+00  0.411592125E+00
   H  0.768124334E+01 -0.717829088E-01 -0.648129610E+00
     4
 # iter = 29000  time[fs]=29.00000
   C -0.140932822E+01  0.224142112E-01  0.422197126E-01
   C  0.138843410E+01 -0.546057870E-02  0.285957003E-01
   H -0.814351120E+01 -0.618546411E+00  0.430730875E+00
   H  0.802812197E+01 -0.742468598E-01 -0.679036247E+00
     4
 # iter = 29500  time[fs]=29.50000
   C -0.147111454E+01  0.248751238E-01  0.431527393E-01
   C  0.144657945E+01 -0.526075493E-02  0.304943096E-01
   H -0.850281310E+01 -0.644434910E+00  0.449993605E+00
   H  0.837777248E+01 -0.767336521E-01 -0.710213379E+00
     4
 # iter = 30000  time[fs]=30.00000
   C -0.153433622E+01  0.273612064E-01  0.440904020E-01
   C  0.150613045E+01 -0.506991874E-02  0.323995223E-01
   H -0.886430236E+01 -0.670496678E+00  0.469370256E+00
   H  0.872996666E+01 -0.792413655E-01 -0.741639304E+00
     4
 # iter = 30500  time[fs]=30.50000
   C -0.159887970E+01  0.298709280E-01  0.450316499E-01
   C  0.156697589E+01 -0.488783512E-02  0.343115277E-01
   H -0.922780462E+01 -0.696717854E+00  0.488851909E+00
   H  0.908450232E+01 -0.817683050E-01 -0.773294766E+00
     4
 # iter = 31000  time[fs]=31.00000
   C -0.166464229E+01  0.324028595E-01  0.459756129E-01
   C  0.162901513E+01 -0.471422533E-02  0.362304273E-01
   H -0.959316489E+01 -0.723086143E+00  0.508430625E+00
   H  0.944119961E+01 -0.843129668E-01 -0.805162603E+00
     4
 # iter = 31500  time[fs]=31.50000
   C -0.173153109E+01  0.349556699E-01  0.469215717E-01
   C  0.169215713E+01 -0.454878317E-02  0.381562525E-01
   H -0.996024482E+01 -0.749590584E+00  0.528099310E+00
   H  0.979989795E+01 -0.868740119E-01 -0.837227464E+00
     4
 # iter = 32000  time[fs]=32.00000
   C -0.179946201E+01  0.375281212E-01  0.478689317E-01
   C  0.175631947E+01 -0.439118723E-02  0.400889795E-01
   H -0.103289205E+02 -0.776221373E+00  0.547851598E+00
   H  0.101604534E+02 -0.894502428E-01 -0.869475566E+00
     4
 # iter = 32500  time[fs]=32.50000
   C -0.186835887E+01  0.401190624E-01  0.488172019E-01
   C  0.182142747E+01 -0.424110990E-02  0.420285419E-01
   H -0.106990805E+02 -0.802969709E+00  0.567681763E+00
   H  0.105227367E+02 -0.920405849E-01 -0.901894493E+00
     4
 # iter = 33000  time[fs]=33.00000
   C -0.193815258E+01  0.427274247E-01  0.497659776E-01
   C  0.188741338E+01 -0.409822393E-02  0.439748403E-01
   H -0.110706245E+02 -0.829827657E+00  0.587584633E+00
   H  0.108866310E+02 -0.946440703E-01 -0.934473020E+00
     4
 # iter = 33500  time[fs]=33.50000
   C -0.200878039E+01  0.453522156E-01  0.507149254E-01
   C  0.195421570E+01 -0.396220711E-02  0.459277504E-01
   H -0.114434614E+02 -0.856788050E+00  0.607555522E+00
   H  0.112520307E+02 -0.972598250E-01 -0.967200973E+00
     4
 # iter = 34000  time[fs]=34.00000
   C -0.208018523E+01  0.479925133E-01  0.516637713E-01
   C  0.202177847E+01 -0.383274555E-02  0.478871300E-01
   H -0.118175091E+02 -0.883844384E+00  0.627590175E+00
   H  0.116188399E+02 -0.998870566E-01 -0.100006910E+01
     4
 # iter = 34500  time[fs]=34.50000
   C -0.215231513E+01  0.506474617E-01  0.526122908E-01
   C  0.209005075E+01 -0.370953587E-02  0.498528238E-01
   H -0.121926923E+02 -0.910990747E+00  0.647684716E+00
   H  0.119869715E+02 -0.102525045E+00 -0.103306897E+01
     4
 # iter = 35000  time[fs]=35.00000
   C -0.222512270E+01  0.533162655E-01  0.535603004E-01
   C  0.215898607E+01 -0.359228664E-02  0.518246679E-01
   H -0.125689427E+02 -0.938221748E+00  0.667835605E+00
   H  0.123563458E+02 -0.105173135E+00 -0.106619287E+01
     4
 # iter = 35500  time[fs]=35.50000
   C -0.229856462E+01  0.559981853E-01  0.545076510E-01
   C  0.222854195E+01 -0.348071915E-02  0.538024930E-01
   H -0.129461978E+02 -0.965532459E+00  0.688039601E+00
   H  0.127268901E+02 -0.107830726E+00 -0.109943375E+01
     4
 # iter = 36000  time[fs]=36.00000
   C -0.237260125E+01  0.586925332E-01  0.554542217E-01
   C  0.229867957E+01 -0.337456781E-02  0.557861269E-01
   H -0.133244003E+02 -0.992918361E+00  0.708293729E+00
   H  0.130985377E+02 -0.110497269E+00 -0.113278510E+01
     4
 # iter = 36500  time[fs]=36.50000
   C -0.244719627E+01  0.613986691E-01  0.563999159E-01
   C  0.236936329E+01 -0.327358021E-02  0.577753968E-01
   H -0.137034973E+02 -0.102037530E+01  0.728595254E+00
   H  0.134712272E+02 -0.113172262E+00 -0.116624096E+01
     4
 # iter = 37000  time[fs]=37.00000
   C -0.252231633E+01  0.641159966E-01  0.573446566E-01
   C  0.244056045E+01 -0.317751696E-02  0.597701308E-01
   H -0.140834406E+02 -0.104789947E+01  0.748941654E+00
   H  0.138449021E+02 -0.115855240E+00 -0.119979583E+01
     4
 # iter = 37500  time[fs]=37.50000
   C -0.259793076E+01  0.668439596E-01  0.582883834E-01
   C  0.251224098E+01 -0.308615134E-02  0.617701591E-01
   H -0.144641853E+02 -0.107548733E+01  0.769330600E+00
   H  0.142195104E+02 -0.118545776E+00 -0.123344461E+01
     4
 # iter = 38000  time[fs]=38.00000
   C -0.267401132E+01  0.695820392E-01  0.592310499E-01
   C  0.258437720E+01 -0.299926886E-02  0.637753148E-01
   H -0.148456900E+02 -0.110313563E+01  0.789759939E+00
   H  0.145950040E+02 -0.121243475E+00 -0.126718258E+01
     4
 # iter = 38500  time[fs]=38.50000
   C -0.275053195E+01  0.723297507E-01  0.601726213E-01
   C  0.265694359E+01 -0.291666680E-02  0.657854349E-01
   H -0.152279165E+02 -0.113084135E+01  0.810227671E+00
   H  0.149713382E+02 -0.123947972E+00 -0.130100538E+01
     4
 # iter = 39000  time[fs]=39.00000
   C -0.282746858E+01  0.750866410E-01  0.611130724E-01
   C  0.272991657E+01 -0.283815364E-02  0.678003604E-01
   H -0.156108293E+02 -0.115860169E+01  0.830731941E+00
   H  0.153484717E+02 -0.126658928E+00 -0.133490894E+01
     4
 # iter = 39500  time[fs]=39.50000
   C -0.290479894E+01  0.778522861E-01  0.620523861E-01
   C  0.280327431E+01 -0.276354846E-02  0.698199371E-01
   H -0.159943952E+02 -0.118641405E+01  0.851271024E+00
   H  0.157263659E+02 -0.129376030E+00 -0.136888947E+01
     4
 # iter = 40000  time[fs]=40.00000
   C -0.298250239E+01  0.806262888E-01  0.629905521E-01
   C  0.287699661E+01 -0.269268044E-02  0.718440153E-01
   H -0.163785837E+02 -0.121427600E+01  0.871843311E+00
   H  0.161049851E+02 -0.132098984E+00 -0.140294346E+01
     4
 # iter = 40500  time[fs]=40.50000
   C -0.306055979E+01  0.834082766E-01  0.639275656E-01
   C  0.295106470E+01 -0.262538825E-02  0.738724505E-01
   H -0.167633660E+02 -0.124218528E+01  0.892447302E+00
   H  0.164842959E+02 -0.134827517E+00 -0.143706760E+01
     4
 # iter = 41000  time[fs]=41.00000
   C -0.313895333E+01  0.861979001E-01  0.648634265E-01
   C  0.302546116E+01 -0.256151951E-02  0.759051029E-01
   H -0.171487154E+02 -0.127013978E+01  0.913081593E+00
   H  0.168642672E+02 -0.137561376E+00 -0.147125882E+01
     4
 # iter = 41500  time[fs]=41.50000
   C -0.321766646E+01  0.889948310E-01  0.657981386E-01
   C  0.310016977E+01 -0.250093026E-02  0.779418378E-01
   H -0.175346069E+02 -0.129813753E+01  0.933744872E+00
   H  0.172448697E+02 -0.140300322E+00 -0.150551424E+01
     4
 # iter = 42000  time[fs]=42.00000
   C -0.329668375E+01  0.917987606E-01  0.667317089E-01
   C  0.317517543E+01 -0.244348445E-02  0.799825255E-01
   H -0.179210170E+02 -0.132617668E+01  0.954435908E+00
   H  0.176260762E+02 -0.143044133E+00 -0.153983114E+01
     4
 # iter = 42500  time[fs]=42.50000
   C -0.337599079E+01  0.946093983E-01  0.676641469E-01
   C  0.325046404E+01 -0.238905349E-02  0.820270410E-01
   H -0.183079238E+02 -0.135425549E+01  0.975153546E+00
   H  0.180078610E+02 -0.145792601E+00 -0.157420699E+01
     4
 # iter = 43000  time[fs]=43.00000
   C -0.345557415E+01  0.974264705E-01  0.685954644E-01
   C  0.332602244E+01 -0.233751573E-02  0.840752641E-01
   H -0.186953066E+02 -0.138237234E+01  0.995896703E+00
   H  0.183902003E+02 -0.148545529E+00 -0.160863940E+01
     4
 # iter = 43500  time[fs]=43.50000
   C -0.353542125E+01  0.100249719E+00  0.695256748E-01
   C  0.340183831E+01 -0.228875608E-02  0.861270792E-01
   H -0.190831461E+02 -0.141052568E+01  0.101666436E+01
   H  0.187730713E+02 -0.151302735E+00 -0.164312613E+01
     4
 # iter = 44000  time[fs]=44.00000
   C -0.361552029E+01  0.103078900E+00  0.704547929E-01
   C  0.347790013E+01 -0.224266558E-02  0.881823751E-01
   H -0.194714241E+02 -0.143871409E+01  0.103745554E+01
   H  0.191564528E+02 -0.154064045E+00 -0.167766505E+01
     4
 # iter = 44500  time[fs]=44.50000
   C -0.369586025E+01  0.105913785E+00  0.713828346E-01
   C  0.355419710E+01 -0.219914103E-02  0.902410450E-01
   H -0.198601233E+02 -0.146693620E+01  0.105826936E+01
   H  0.195403248E+02 -0.156829296E+00 -0.171225418E+01
     4
 # iter = 45000  time[fs]=45.00000
   C -0.377643076E+01  0.108754154E+00  0.723098167E-01
   C  0.363071907E+01 -0.215808464E-02  0.923029864E-01
   H -0.202492276E+02 -0.149519073E+01  0.107910495E+01
   H  0.199246683E+02 -0.159598336E+00 -0.174689162E+01
     4
 # iter = 45500  time[fs]=45.50000
   C -0.385722208E+01  0.111599804E+00  0.732357566E-01
   C  0.370745651E+01 -0.211940364E-02  0.943681006E-01
   H -0.206387216E+02 -0.152347646E+01  0.109996151E+01
   H  0.203094657E+02 -0.162371018E+00 -0.178157560E+01
     4
 # iter = 46000  time[fs]=46.00000
   C -0.393822504E+01  0.114450538E+00  0.741606722E-01
   C  0.378440046E+01 -0.208301007E-02  0.964362928E-01
   H -0.210285909E+02 -0.155179226E+01  0.112083826E+01
   H  0.206946999E+02 -0.165147207E+00 -0.181630441E+01
     4
 # iter = 46500  time[fs]=46.50000
   C -0.401943102E+01  0.117306172E+00  0.750845818E-01
   C  0.386154249E+01 -0.204882039E-02  0.985074720E-01
   H -0.214188217E+02 -0.158013704E+01  0.114173449E+01
   H  0.210803551E+02 -0.167926773E+00 -0.185107648E+01
     4
 # iter = 47000  time[fs]=47.00000
   C -0.410083189E+01  0.120166531E+00  0.760075036E-01
   C  0.393887464E+01 -0.201675524E-02  0.100581551E+00
   H -0.218094013E+02 -0.160850977E+01  0.116264951E+01
   H  0.214664161E+02 -0.170709593E+00 -0.188589027E+01
     4
 # iter = 47500  time[fs]=47.50000
   C -0.418241998E+01  0.123031450E+00  0.769294564E-01
   C  0.401638941E+01 -0.198673923E-02  0.102658445E+00
   H -0.222003171E+02 -0.163690947E+01  0.118358267E+01
   H  0.218528686E+02 -0.173495552E+00 -0.192074436E+01
     4
 # iter = 48000  time[fs]=48.00000
   C -0.426418804E+01  0.125900769E+00  0.778504585E-01
   C  0.409407972E+01 -0.195870064E-02  0.104738074E+00
   H -0.225915577E+02 -0.166533523E+01  0.120453334E+01
   H  0.222396991E+02 -0.176284539E+00 -0.195563738E+01
     4
 # iter = 48500  time[fs]=48.50000
   C -0.434612924E+01  0.128774338E+00  0.787705284E-01
   C  0.417193887E+01 -0.193257122E-02  0.106820360E+00
   H -0.229831119E+02 -0.169378617E+01  0.122550095E+01
   H  0.226268946E+02 -0.179076449E+00 -0.199056803E+01
     4
 # iter = 49000  time[fs]=49.00000
   C -0.442823708E+01  0.131652016E+00  0.796896845E-01
   C  0.424996054E+01 -0.190828600E-02  0.108905228E+00
   H -0.233749692E+02 -0.172226144E+01  0.124648493E+01
   H  0.230144429E+02 -0.181871185E+00 -0.202553507E+01
     4
 # iter = 49500  time[fs]=49.50000
   C -0.451050544E+01  0.134533666E+00  0.806079450E-01
   C  0.432813872E+01 -0.188578309E-02  0.110992607E+00
   H -0.237671196E+02 -0.175076026E+01  0.126748476E+01
   H  0.234023323E+02 -0.184668650E+00 -0.206053734E+01
     4
 # iter = 50000  time[fs]=50.00000
   C -0.459292850E+01  0.137419158E+00  0.815253278E-01
   C  0.440646773E+01 -0.186500347E-02  0.113082427E+00
   H -0.241595535E+02 -0.177928188E+01  0.128849992E+01
   H  0.237905517E+02 -0.187468757E+00 -0.209557370E+01
     4
 # iter = 50500  time[fs]=50.50000
   C -0.467550075E+01  0.140308370E+00  0.824418506E-01
   C  0.448494218E+01 -0.184589088E-02  0.115174623E+00
   H -0.245522620E+02 -0.180782556E+01  0.130952993E+01
   H  0.241790906E+02 -0.190271418E+00 -0.213064310E+01
     4
 # iter = 51000  time[fs]=51.00000
   C -0.475821695E+01  0.143201183E+00  0.833575309E-01
   C  0.456355697E+01 -0.182839161E-02  0.117269129E+00
   H -0.249452364E+02 -0.183639062E+01  0.133057433E+01
   H  0.245679388E+02 -0.193076553E+00 -0.216574451E+01
     4
 # iter = 51500  time[fs]=51.50000
   C -0.484107214E+01  0.146097484E+00  0.842723858E-01
   C  0.464230722E+01 -0.181245439E-02  0.119365884E+00
   H -0.253384683E+02 -0.186497641E+01  0.135163269E+01
   H  0.249570867E+02 -0.195884083E+00 -0.220087696E+01
     4
 # iter = 52000  time[fs]=52.00000
   C -0.492406157E+01  0.148997168E+00  0.851864322E-01
   C  0.472118832E+01 -0.179803022E-02  0.121464829E+00
   H -0.257319500E+02 -0.189358230E+01  0.137270458E+01
   H  0.253465253E+02 -0.198693936E+00 -0.223603952E+01
     4
 # iter = 52500  time[fs]=52.50000
   C -0.500718076E+01  0.151900130E+00  0.860996865E-01
   C  0.480019588E+01 -0.178507228E-02  0.123565908E+00
   H -0.261256739E+02 -0.192220770E+01  0.139378960E+01
   H  0.257362456E+02 -0.201506039E+00 -0.227123130E+01
     4
 # iter = 53000  time[fs]=53.00000
   C -0.509042542E+01  0.154806272E+00  0.870121651E-01
   C  0.487932570E+01 -0.177353579E-02  0.125669064E+00
   H -0.265196328E+02 -0.195085202E+01  0.141488737E+01
   H  0.261262393E+02 -0.204320326E+00 -0.230645146E+01
     4
 # iter = 53500  time[fs]=53.50000
   C -0.517379146E+01  0.157715502E+00  0.879238836E-01
   C  0.495857382E+01 -0.176337788E-02  0.127774244E+00
   H -0.269138199E+02 -0.197951472E+01  0.143599752E+01
   H  0.265164985E+02 -0.207136731E+00 -0.234169916E+01
     4
 # iter = 54000  time[fs]=54.00000
   C -0.525727501E+01  0.160627729E+00  0.888348577E-01
   C  0.503793641E+01 -0.175455753E-02  0.129881399E+00
   H -0.273082284E+02 -0.200819527E+01  0.145711969E+01
   H  0.269070153E+02 -0.209955193E+00 -0.237697365E+01
     4
 # iter = 54500  time[fs]=54.50000
   C -0.534087234E+01  0.163542866E+00  0.897451024E-01
   C  0.511740987E+01 -0.174703543E-02  0.131990477E+00
   H -0.277028523E+02 -0.203689318E+01  0.147825356E+01
   H  0.272977825E+02 -0.212775653E+00 -0.241227416E+01
     4
 # iter = 55000  time[fs]=55.00000
   C -0.542457992E+01  0.166460832E+00  0.906546326E-01
   C  0.519699072E+01 -0.174077393E-02  0.134101432E+00
   H -0.280976853E+02 -0.206560796E+01  0.149939879E+01
   H  0.276887930E+02 -0.215598053E+00 -0.244759999E+01
     4
 # iter = 55500  time[fs]=55.50000
   C -0.550839434E+01  0.169381547E+00  0.915634628E-01
   C  0.527667566E+01 -0.173573690E-02  0.136214218E+00
   H -0.284927217E+02 -0.209433915E+01  0.152055508E+01
   H  0.280800401E+02 -0.218422340E+00 -0.248295043E+01
     4
 # iter = 56000  time[fs]=56.00000
   C -0.559231239E+01  0.172304934E+00  0.924716071E-01
   C  0.535646153E+01 -0.173188970E-02  0.138328789E+00
   H -0.288879559E+02 -0.212308630E+01  0.154172213E+01
   H  0.284715173E+02 -0.221248461E+00 -0.251832484E+01
     4
 # iter = 56500  time[fs]=56.50000
   C -0.567633096E+01  0.175230922E+00  0.933790793E-01
   C  0.543634531E+01 -0.172919908E-02  0.140445104E+00
   H -0.292833827E+02 -0.215184900E+01  0.156289965E+01
   H  0.288632183E+02 -0.224076366E+00 -0.255372258E+01
     4
 # iter = 57000  time[fs]=57.00000
   C -0.576044709E+01  0.178159441E+00  0.942858929E-01
   C  0.551632411E+01 -0.172763311E-02  0.142563122E+00
   H -0.296789968E+02 -0.218062682E+01  0.158408737E+01
   H  0.292551372E+02 -0.226906006E+00 -0.258914304E+01
     4
 # iter = 57500  time[fs]=57.50000
   C -0.584465794E+01  0.181090422E+00  0.951920609E-01
   C  0.559639516E+01 -0.172716112E-02  0.144682801E+00
   H -0.300747933E+02 -0.220941938E+01  0.160528502E+01
   H  0.296472683E+02 -0.229737337E+00 -0.262458563E+01
     4
 # iter = 58000  time[fs]=58.00000
   C -0.592896080E+01  0.184023801E+00  0.960975962E-01
   C  0.567655580E+01 -0.172775362E-02  0.146804103E+00
   H -0.304707675E+02 -0.223822630E+01  0.162649235E+01
   H  0.300396060E+02 -0.232570313E+00 -0.266004978E+01
     4
 # iter = 58500  time[fs]=58.50000
   C -0.601335305E+01  0.186959516E+00  0.970025113E-01
   C  0.575680348E+01 -0.172938227E-02  0.148926992E+00
   H -0.308669149E+02 -0.226704721E+01  0.164770912E+01
   H  0.304321450E+02 -0.235404891E+00 -0.269553496E+01
     4
 # iter = 59000  time[fs]=59.00000
   C -0.609783220E+01  0.189897507E+00  0.979068183E-01
   C  0.583713578E+01 -0.173201980E-02  0.151051430E+00
   H -0.312632310E+02 -0.229588177E+01  0.166893508E+01
   H  0.308248802E+02 -0.238241032E+00 -0.273104064E+01
     4
 # iter = 59500  time[fs]=59.50000
   C -0.618239585E+01  0.192837716E+00  0.988105292E-01
   C  0.591755035E+01 -0.173563997E-02  0.153177384E+00
   H -0.316597117E+02 -0.232472963E+01  0.169017002E+01
   H  0.312178067E+02 -0.241078694E+00 -0.276656631E+01
     4
 # iter = 60000  time[fs]=60.00000
   C -0.626704170E+01  0.195780088E+00  0.997136555E-01
   C  0.599804493E+01 -0.174021752E-02  0.155304818E+00
   H -0.320563528E+02 -0.235359047E+01  0.171141371E+01
   H  0.316109197E+02 -0.243917840E+00 -0.280211150E+01
     4
 # iter = 60500  time[fs]=60.50000
   C -0.635176752E+01  0.198724570E+00  0.100616208E+00
   C  0.607861738E+01 -0.174572812E-02  0.157433701E+00
   H -0.324531505E+02 -0.238246398E+01  0.173266594E+01
   H  0.320042148E+02 -0.246758434E+00 -0.283767573E+01
     4
 # iter = 61000  time[fs]=61.00000
   C -0.643657120E+01  0.201671108E+00  0.101518199E+00
   C  0.615926562E+01 -0.175214831E-02  0.159564000E+00
   H -0.328501009E+02 -0.241134986E+01  0.175392651E+01
   H  0.323976874E+02 -0.249600439E+00 -0.287325855E+01
     4
 # iter = 61500  time[fs]=61.50000
   C -0.652145069E+01  0.204619655E+00  0.102419638E+00
   C  0.623998765E+01 -0.175945550E-02  0.161695685E+00
   H -0.332472004E+02 -0.244024780E+01  0.177519523E+01
   H  0.327913333E+02 -0.252443823E+00 -0.290885953E+01
     4
 # iter = 62000  time[fs]=62.00000
   C -0.660640402E+01  0.207570162E+00  0.103320536E+00
   C  0.632078155E+01 -0.176762790E-02  0.163828727E+00
   H -0.336444456E+02 -0.246915754E+01  0.179647190E+01
   H  0.331851485E+02 -0.255288552E+00 -0.294447824E+01
     4
 # iter = 62500  time[fs]=62.50000
   C -0.669142930E+01  0.210522582E+00  0.104220903E+00
   C  0.640164548E+01 -0.177664447E-02  0.165963096E+00
   H -0.340418329E+02 -0.249807880E+01  0.181775633E+01
   H  0.335791289E+02 -0.258134594E+00 -0.298011428E+01
     4
 # iter = 63000  time[fs]=63.00000
   C -0.677652471E+01  0.213476871E+00  0.105120750E+00
   C  0.648257765E+01 -0.178648493E-02  0.168098764E+00
   H -0.344393592E+02 -0.252701131E+01  0.183904837E+01
   H  0.339732709E+02 -0.260981918E+00 -0.301576725E+01
     4
 # iter = 63500  time[fs]=63.50000
   C -0.686168849E+01  0.216432986E+00  0.106020084E+00
   C  0.656357636E+01 -0.179712969E-02  0.170235704E+00
   H -0.348370213E+02 -0.255595483E+01  0.186034782E+01
   H  0.343675705E+02 -0.263830496E+00 -0.305143677E+01
     4
 # iter = 64000  time[fs]=64.00000
   C -0.694691894E+01  0.219390884E+00  0.106918917E+00
   C  0.664463995E+01 -0.180855984E-02  0.172373890E+00
   H -0.352348160E+02 -0.258490910E+01  0.188165453E+01
   H  0.347620244E+02 -0.266680298E+00 -0.308712249E+01
     4
 # iter = 64500  time[fs]=64.50000
   C -0.703221443E+01  0.222350526E+00  0.107817258E+00
   C  0.672576683E+01 -0.182075709E-02  0.174513297E+00
   H -0.356327405E+02 -0.261387389E+01  0.190296834E+01
   H  0.351566291E+02 -0.269531298E+00 -0.312282403E+01
     4
 # iter = 65000  time[fs]=65.00000
   C -0.711757339E+01  0.225311873E+00  0.108715114E+00
   C  0.680695548E+01 -0.183370378E-02  0.176653900E+00
   H -0.360307918E+02 -0.264284897E+01  0.192428910E+01
   H  0.355513812E+02 -0.272383467E+00 -0.315854107E+01
     4
 # iter = 65500  time[fs]=65.50000
   C -0.720299431E+01  0.228274886E+00  0.109612496E+00
   C  0.688820439E+01 -0.184738285E-02  0.178795674E+00
   H -0.364289673E+02 -0.267183412E+01  0.194561665E+01
   H  0.359462774E+02 -0.275236781E+00 -0.319427325E+01
     4
 # iter = 66000  time[fs]=66.00000
   C -0.728847571E+01  0.231239529E+00  0.110509412E+00
   C  0.696951216E+01 -0.186177776E-02  0.180938596E+00
   H -0.368272642E+02 -0.270082912E+01  0.196695084E+01
   H  0.363413148E+02 -0.278091214E+00 -0.323002028E+01
     4
 # iter = 66500  time[fs]=66.50000
   C -0.737401618E+01  0.234205767E+00  0.111405869E+00
   C  0.705087739E+01 -0.187687255E-02  0.183082645E+00
   H -0.372256799E+02 -0.272983377E+01  0.198829155E+01
   H  0.367364902E+02 -0.280946742E+00 -0.326578182E+01
     4
 # iter = 67000  time[fs]=67.00000
   C -0.745961435E+01  0.237173566E+00  0.112301877E+00
   C  0.713229875E+01 -0.189265176E-02  0.185227797E+00
   H -0.376242119E+02 -0.275884786E+01  0.200963863E+01
   H  0.371318007E+02 -0.283803342E+00 -0.330155758E+01
     4
 # iter = 67500  time[fs]=67.50000
   C -0.754526890E+01  0.240142892E+00  0.113197442E+00
   C  0.721377496E+01 -0.190910041E-02  0.187374031E+00
   H -0.380228578E+02 -0.278787119E+01  0.203099194E+01
   H  0.375272435E+02 -0.286660992E+00 -0.333734727E+01
     4
 # iter = 68000  time[fs]=68.00000
   C -0.763097855E+01  0.243113714E+00  0.114092574E+00
   C  0.729530477E+01 -0.192620401E-02  0.189521327E+00
   H -0.384216152E+02 -0.281690358E+01  0.205235138E+01
   H  0.379228159E+02 -0.289519668E+00 -0.337315060E+01
     4
 # iter = 68500  time[fs]=68.50000
   C -0.771674206E+01  0.246085999E+00  0.114987278E+00
   C  0.737688697E+01 -0.194394853E-02  0.191669664E+00
   H -0.388204818E+02 -0.284594485E+01  0.207371680E+01
   H  0.383185151E+02 -0.292379350E+00 -0.340896729E+01
     4
 # iter = 69000  time[fs]=69.00000
   C -0.780255825E+01  0.249059719E+00  0.115881564E+00
   C  0.745852041E+01 -0.196232035E-02  0.193819023E+00
   H -0.392194555E+02 -0.287499481E+01  0.209508809E+01
   H  0.387143387E+02 -0.295240017E+00 -0.344479708E+01
     4
 # iter = 69500  time[fs]=69.50000
   C -0.788842596E+01  0.252034843E+00  0.116775437E+00
   C  0.754020394E+01 -0.198130630E-02  0.195969385E+00
   H -0.396185340E+02 -0.290405329E+01  0.211646513E+01
   H  0.391102840E+02 -0.298101649E+00 -0.348063972E+01
     4
 # iter = 70000  time[fs]=70.00000
   C -0.797434405E+01  0.255011343E+00  0.117668905E+00
   C  0.762193649E+01 -0.200089359E-02  0.198120730E+00
   H -0.400177153E+02 -0.293312012E+01  0.213784782E+01
   H  0.395063487E+02 -0.300964227E+00 -0.351649493E+01
     4
 # iter = 70500  time[fs]=70.50000
   C -0.806031146E+01  0.257989192E+00  0.118561974E+00
   C  0.770371700E+01 -0.202106982E-02  0.200273042E+00
   H -0.404169973E+02 -0.296219515E+01  0.215923603E+01
   H  0.399025304E+02 -0.303827731E+00 -0.355236249E+01
     4
 # iter = 71000  time[fs]=71.00000
   C -0.814632713E+01  0.260968363E+00  0.119454653E+00
   C  0.778554444E+01 -0.204182297E-02  0.202426302E+00
   H -0.408163781E+02 -0.299127821E+01  0.218062967E+01
   H  0.402988268E+02 -0.306692144E+00 -0.358824216E+01
     4
 # iter = 71500  time[fs]=71.50000
   C -0.823239004E+01  0.263948830E+00  0.120346946E+00
   C  0.786741781E+01 -0.206314136E-02  0.204580493E+00
   H -0.412158557E+02 -0.302036914E+01  0.220202862E+01
   H  0.406952357E+02 -0.309557448E+00 -0.362413369E+01
     4
 # iter = 72000  time[fs]=72.00000
   C -0.831849921E+01  0.266930568E+00  0.121238860E+00
   C  0.794933617E+01 -0.208501367E-02  0.206735599E+00
   H -0.416154283E+02 -0.304946780E+01  0.222343280E+01
   H  0.410917549E+02 -0.312423625E+00 -0.366003688E+01
     4
 # iter = 72500  time[fs]=72.50000
   C -0.840465367E+01  0.269913552E+00  0.122130402E+00
   C  0.803129858E+01 -0.210742889E-02  0.208891603E+00
   H -0.420150942E+02 -0.307857405E+01  0.224484209E+01
   H  0.414883823E+02 -0.315290658E+00 -0.369595149E+01
     4
 # iter = 73000  time[fs]=73.00000
   C -0.849085251E+01  0.272897759E+00  0.123021578E+00
   C  0.811330412E+01 -0.213037635E-02  0.211048490E+00
   H -0.424148514E+02 -0.310768774E+01  0.226625641E+01
   H  0.418851159E+02 -0.318158532E+00 -0.373187733E+01
     4
 # iter = 73500  time[fs]=73.50000
   C -0.857709482E+01  0.275883164E+00  0.123912393E+00
   C  0.819535194E+01 -0.215384568E-02  0.213206244E+00
   H -0.428146985E+02 -0.313680873E+01  0.228767566E+01
   H  0.422819536E+02 -0.321027231E+00 -0.376781418E+01
     4
 # iter = 74000  time[fs]=74.00000
   C -0.866337972E+01  0.278869747E+00  0.124802853E+00
   C  0.827744117E+01 -0.217782678E-02  0.215364850E+00
   H -0.432146336E+02 -0.316593690E+01  0.230909976E+01
   H  0.426788937E+02 -0.323896739E+00 -0.380376184E+01
     4
 # iter = 74500  time[fs]=74.50000
   C -0.874970638E+01  0.281857484E+00  0.125692965E+00
   C  0.835957100E+01 -0.220230987E-02  0.217524293E+00
   H -0.436146551E+02 -0.319507210E+01  0.233052861E+01
   H  0.430759341E+02 -0.326767040E+00 -0.383972011E+01
     4
 # iter = 75000  time[fs]=75.00000
   C -0.883607397E+01  0.284846356E+00  0.126582733E+00
   C  0.844174061E+01 -0.222728542E-02  0.219684559E+00
   H -0.440147616E+02 -0.322421422E+01  0.235196213E+01
   H  0.434730731E+02 -0.329638122E+00 -0.387568881E+01
     4
 # iter = 75500  time[fs]=75.50000
   C -0.892248168E+01  0.287836339E+00  0.127472163E+00
   C  0.852394923E+01 -0.225274417E-02  0.221845635E+00
   H -0.444149514E+02 -0.325336313E+01  0.237340023E+01
   H  0.438703089E+02 -0.332509968E+00 -0.391166776E+01
     4
 # iter = 76000  time[fs]=76.00000
   C -0.900892875E+01  0.290827416E+00  0.128361260E+00
   C  0.860619611E+01 -0.227867710E-02  0.224007506E+00
   H -0.448152231E+02 -0.328251871E+01  0.239484284E+01
   H  0.442676397E+02 -0.335382567E+00 -0.394765676E+01
     4
 # iter = 76500  time[fs]=76.50000
   C -0.909541442E+01  0.293819566E+00  0.129250030E+00
   C  0.868848050E+01 -0.230507546E-02  0.226170160E+00
   H -0.452155752E+02 -0.331168085E+01  0.241628988E+01
   H  0.446650639E+02 -0.338255903E+00 -0.398365565E+01
     4
 # iter = 77000  time[fs]=77.00000
   C -0.918193794E+01  0.296812770E+00  0.130138477E+00
   C  0.877080171E+01 -0.233193072E-02  0.228333583E+00
   H -0.456160064E+02 -0.334084943E+01  0.243774127E+01
   H  0.450625798E+02 -0.341129965E+00 -0.401966426E+01
     4
 # iter = 77500  time[fs]=77.50000
   C -0.926849862E+01  0.299807009E+00  0.131026607E+00
   C  0.885315902E+01 -0.235923458E-02  0.230497763E+00
   H -0.460165152E+02 -0.337002433E+01  0.245919694E+01
   H  0.454601859E+02 -0.344004739E+00 -0.405568241E+01
     4
 # iter = 78000  time[fs]=78.00000
   C -0.935509576E+01  0.302802266E+00  0.131914424E+00
   C  0.893555177E+01 -0.238697896E-02  0.232662688E+00
   H -0.464171003E+02 -0.339920546E+01  0.248065681E+01
   H  0.458578805E+02 -0.346880212E+00 -0.409170995E+01
     4
 # iter = 78500  time[fs]=78.50000
   C -0.944172868E+01  0.305798523E+00  0.132801933E+00
   C  0.901797929E+01 -0.241515599E-02  0.234828345E+00
   H -0.468177604E+02 -0.342839271E+01  0.250212081E+01
   H  0.462556622E+02 -0.349756374E+00 -0.412774672E+01
     4
 # iter = 79000  time[fs]=79.00000
   C -0.952839672E+01  0.308795761E+00  0.133689139E+00
   C  0.910044096E+01 -0.244375801E-02  0.236994723E+00
   H -0.472184943E+02 -0.345758597E+01  0.252358887E+01
   H  0.466535294E+02 -0.352633212E+00 -0.416379256E+01
     4
 # iter = 79500  time[fs]=79.50000
   C -0.961509926E+01  0.311793966E+00  0.134576046E+00
   C  0.918293615E+01 -0.247277755E-02  0.239161811E+00
   H -0.476193006E+02 -0.348678514E+01  0.254506093E+01
   H  0.470514808E+02 -0.355510714E+00 -0.419984732E+01
     4
 # iter = 80000  time[fs]=80.00000
   C -0.970183566E+01  0.314793120E+00  0.135462659E+00
   C  0.926546425E+01 -0.250220735E-02  0.241329596E+00
   H -0.480201783E+02 -0.351599013E+01  0.256653691E+01
   H  0.474495149E+02 -0.358388870E+00 -0.423591086E+01
