     4
 # iter = 25000  time[fs]=25.00000
   C -0.950849295E+00  0.155108067E-01 -0.183512756E-01
   C  0.100137150E+01 -0.432004125E-01 -0.330772146E-01
   H -0.515820655E+01 -0.799067912E-01  0.617550422E+00
   H  0.522005642E+01  0.529419425E+00 -0.607245537E+00
     4
 # iter = 25500  time[fs]=25.50000
   C -0.994676919E+00  0.159358875E-01 -0.201248220E-01
   C  0.104514086E+01 -0.461093038E-01 -0.308265803E-01
   H -0.548684933E+01 -0.867391301E-01  0.658459635E+00
   H  0.553611128E+01  0.563885890E+00 -0.642709706E+00
     4
 # iter = 26000  time[fs]=26.00000
   C -0.104155826E+01  0.164534746E-01 -0.219091504E-01
   C  0.109193249E+01 -0.491591190E-01 -0.285649183E-01
   H -0.582086551E+01 -0.936719662E-01  0.700082754E+00
   H  0.585791678E+01  0.599033866E+00 -0.678890731E+00
     4
 # iter = 26500  time[fs]=26.50000
   C -0.109123712E+01  0.170566025E-01 -0.237085539E-01
   C  0.114149240E+01 -0.523375965E-01 -0.262877166E-01
   H -0.615964847E+01 -0.100694776E+00  0.742338459E+00
   H  0.618483997E+01  0.634789273E+00 -0.715709916E+00
     4
 # iter = 27000  time[fs]=27.00000
   C -0.114347449E+01  0.177387079E-01 -0.255262954E-01
   C  0.119358368E+01 -0.556336698E-01 -0.239915646E-01
   H -0.650268338E+01 -0.107798560E+00  0.785158037E+00
   H  0.651634091E+01  0.671089072E+00 -0.753100322E+00
     4
 # iter = 27500  time[fs]=27.50000
   C -0.119804986E+01  0.184936650E-01 -0.273647466E-01
   C  0.124798776E+01 -0.590373564E-01 -0.216739935E-01
   H -0.684953038E+01 -0.114975565E+00  0.828482993E+00
   H  0.685195621E+01  0.707879233E+00 -0.791004620E+00
     4
 # iter = 28000  time[fs]=28.00000
   C -0.125476138E+01  0.193157984E-01 -0.292255340E-01
   C  0.130450463E+01 -0.625396569E-01 -0.193333152E-01
   H -0.719981135E+01 -0.122219073E+00  0.872263179E+00
   H  0.719128596E+01  0.745113147E+00 -0.829373397E+00
     4
 # iter = 28500  time[fs]=28.50000
   C -0.131342540E+01  0.201998806E-01 -0.311096793E-01
   C  0.136295228E+01 -0.661324607E-01 -0.169684724E-01
   H -0.755319930E+01 -0.129523227E+00  0.916455320E+00
   H  0.753398306E+01  0.782750361E+00 -0.868163811E+00
     4
 # iter = 29000  time[fs]=29.00000
   C -0.137387548E+01  0.211411173E-01 -0.330177235E-01
   C  0.142316584E+01 -0.698084584E-01 -0.145789065E-01
   H -0.790940987E+01 -0.136882892E+00  0.961021852E+00
   H  0.787974476E+01  0.820755561E+00 -0.907338505E+00
     4
 # iter = 29500  time[fs]=29.50000
   C -0.143596124E+01  0.221351251E-01 -0.349498338E-01
   C  0.148499631E+01 -0.735610614E-01 -0.121644461E-01
   H -0.826819452E+01 -0.144293546E+00  0.100592998E+01
   H  0.822830566E+01  0.859097759E+00 -0.946864733E+00
     4
 # iter = 30000  time[fs]=30.00000
   C -0.149954698E+01  0.231779050E-01 -0.369058922E-01
   C  0.154830930E+01 -0.773843272E-01 -0.972521440E-02
   H -0.862933492E+01 -0.151751184E+00  0.105115091E+01
   H  0.857943201E+01  0.897749628E+00 -0.986713653E+00
     4
 # iter = 30500  time[fs]=30.50000
   C -0.156451040E+01  0.242658138E-01 -0.388855674E-01
   C  0.161298366E+01 -0.812728915E-01 -0.726155440E-02
   H -0.899263839E+01 -0.159252246E+00  0.109665928E+01
   H  0.893291708E+01  0.936686958E+00 -0.102685974E+01
     4
 # iter = 31000  time[fs]=31.00000
   C -0.163074127E+01  0.253955346E-01 -0.408883724E-01
   C  0.167891024E+01 -0.852219072E-01 -0.477396936E-02
   H -0.935793419E+01 -0.166793556E+00  0.114243259E+01
   H  0.928857724E+01  0.975888207E+00 -0.106728031E+01
     4
 # iter = 31500  time[fs]=31.50000
   C -0.169814020E+01  0.265640485E-01 -0.429137107E-01
   C  0.174599063E+01 -0.892269888E-01 -0.226307563E-02
   H -0.972507035E+01 -0.174372265E+00  0.118845082E+01
   H  0.964624877E+01  0.101533413E+01 -0.110795511E+01
     4
 # iter = 32000  time[fs]=32.00000
   C -0.176661754E+01  0.277686067E-01 -0.449609108E-01
   C  0.181413607E+01 -0.932841631E-01  0.270433951E-03
   H -0.100939111E+02 -0.181985813E+00  0.123469612E+01
   H  0.100057851E+02  0.105500747E+01 -0.114886602E+01
     4
 # iter = 32500  time[fs]=32.50000
   C -0.183609231E+01  0.290067056E-01 -0.470292546E-01
   C  0.188326641E+01 -0.973898249E-01  0.282581832E-02
   H -0.104643348E+02 -0.189631888E+00  0.128115244E+01
   H  0.103670547E+02  0.109489270E+01 -0.118999673E+01
     4
 # iter = 33000  time[fs]=33.00000
   C -0.190649129E+01  0.302760630E-01 -0.491179980E-01
   C  0.195330919E+01 -0.101540698E+00  0.540230977E-02
   H -0.108362318E+02 -0.197308399E+00  0.132780537E+01
   H  0.107299390E+02  0.113497580E+01 -0.123133254E+01
     4
 # iter = 33500  time[fs]=33.50000
   C -0.197774817E+01  0.315745962E-01 -0.512263865E-01
   C  0.202419880E+01 -0.105733798E+00  0.799913026E-02
   H -0.112095034E+02 -0.205013445E+00  0.137464189E+01
   H  0.110943308E+02  0.117524406E+01 -0.127286014E+01
     4
 # iter = 34000  time[fs]=34.00000
   C -0.204980284E+01  0.329004026E-01 -0.533536677E-01
   C  0.209587575E+01 -0.109966408E+00  0.106155035E-01
   H -0.115840601E+02 -0.212745296E+00  0.142165019E+01
   H  0.114601330E+02  0.121568595E+01 -0.131456746E+01
     4
 # iter = 34500  time[fs]=34.50000
   C -0.212260067E+01  0.342517420E-01 -0.554990991E-01
   C  0.216828600E+01 -0.114236040E+00  0.132506641E-01
   H -0.119598206E+02 -0.220502374E+00  0.146881958E+01
   H  0.118272573E+02  0.125629095E+01 -0.135644350E+01
     4
 # iter = 35000  time[fs]=35.00000
   C -0.219609195E+01  0.356270205E-01 -0.576619553E-01
   C  0.224138040E+01 -0.118540423E+00  0.159038635E-01
   H -0.123367111E+02 -0.228283231E+00  0.151614030E+01
   H  0.121956232E+02  0.129704946E+01 -0.139847823E+01
     4
 # iter = 35500  time[fs]=35.50000
   C -0.227023139E+01  0.370247762E-01 -0.598415317E-01
   C  0.231511416E+01 -0.122877473E+00  0.185743751E-01
   H -0.127146639E+02 -0.236086542E+00  0.156360342E+01
   H  0.125651572E+02  0.133795269E+01 -0.144066248E+01
     4
 # iter = 36000  time[fs]=36.00000
   C -0.234497764E+01  0.384436663E-01 -0.620371475E-01
   C  0.238944637E+01 -0.127245274E+00  0.212614966E-01
   H -0.130936174E+02 -0.243911087E+00  0.161120079E+01
   H  0.129357918E+02  0.137899258E+01 -0.148298782E+01
     4
 # iter = 36500  time[fs]=36.50000
   C -0.242029284E+01  0.398824559E-01 -0.642481478E-01
   C  0.246433964E+01 -0.131642069E+00  0.239645524E-01
   H -0.134735148E+02 -0.251755740E+00  0.165892493E+01
   H  0.133074654E+02  0.142016169E+01 -0.152544652E+01
     4
 # iter = 37000  time[fs]=37.00000
   C -0.249614236E+01  0.413400071E-01 -0.664739045E-01
   C  0.253975971E+01 -0.136066234E+00  0.266828943E-01
   H -0.138543041E+02 -0.259619464E+00  0.170676893E+01
   H  0.136801209E+02  0.146145318E+01 -0.156803146E+01
     4
 # iter = 37500  time[fs]=37.50000
   C -0.257249437E+01  0.428152703E-01 -0.687138164E-01
   C  0.261567513E+01 -0.140516274E+00  0.294159022E-01
   H -0.142359372E+02 -0.267501297E+00  0.175472646E+01
   H  0.140537059E+02  0.150286074E+01 -0.161073604E+01
     4
 # iter = 38000  time[fs]=38.00000
   C -0.264931962E+01  0.443072760E-01 -0.709673096E-01
   C  0.269205702E+01 -0.144990805E+00  0.321629835E-01
   H -0.146183700E+02 -0.275400348E+00  0.180279165E+01
   H  0.144281720E+02  0.154437850E+01 -0.165355418E+01
     4
 # iter = 38500  time[fs]=38.50000
   C -0.272659120E+01  0.458151268E-01 -0.732338366E-01
   C  0.276887875E+01 -0.149488548E+00  0.349235732E-01
   H -0.150015614E+02 -0.283315790E+00  0.185095906E+01
   H  0.148034744E+02  0.158600104E+01 -0.169648025E+01
     4
 # iter = 39000  time[fs]=39.00000
   C -0.280428424E+01  0.473379916E-01 -0.755128758E-01
   C  0.284611579E+01 -0.154008314E+00  0.376971329E-01
   H -0.153854735E+02 -0.291246852E+00  0.189922366E+01
   H  0.151795714E+02  0.162772332E+01 -0.173950900E+01
     4
 # iter = 39500  time[fs]=39.50000
   C -0.288237582E+01  0.488750990E-01 -0.778039310E-01
   C  0.292374548E+01 -0.158549002E+00  0.404831500E-01
   H -0.157700711E+02 -0.299192817E+00  0.194758078E+01
   H  0.155564245E+02  0.166954065E+01 -0.178263556E+01
     4
 # iter = 40000  time[fs]=40.00000
   C -0.296084469E+01  0.504257324E-01 -0.801065299E-01
   C  0.300174685E+01 -0.163109586E+00  0.432811368E-01
   H -0.161553214E+02 -0.307153015E+00  0.199602606E+01
   H  0.159339977E+02  0.171144866E+01 -0.182585540E+01
     4
 # iter = 40500  time[fs]=40.50000
   C -0.303967118E+01  0.519892251E-01 -0.824202233E-01
   C  0.308010046E+01 -0.167689111E+00  0.460906294E-01
   H -0.165411939E+02 -0.315126821E+00  0.204455546E+01
   H  0.163122576E+02  0.175344326E+01 -0.186916429E+01
     4
 # iter = 41000  time[fs]=41.00000
   C -0.311883703E+01  0.535649561E-01 -0.847445843E-01
   C  0.315878829E+01 -0.172286688E+00  0.489111868E-01
   H -0.169276601E+02 -0.323113648E+00  0.209316518E+01
   H  0.166911728E+02  0.179552064E+01 -0.191255827E+01
     4
 # iter = 41500  time[fs]=41.50000
   C -0.319832527E+01  0.551523459E-01 -0.870792070E-01
   C  0.323779360E+01 -0.176901485E+00  0.517423895E-01
   H -0.173146935E+02 -0.331112946E+00  0.214185169E+01
   H  0.170707143E+02  0.183767722E+01 -0.195603364E+01
     4
 # iter = 42000  time[fs]=42.00000
   C -0.327812010E+01  0.567508535E-01 -0.894237054E-01
   C  0.331710078E+01 -0.181532725E+00  0.545838387E-01
   H -0.177022692E+02 -0.339124201E+00  0.219061167E+01
   H  0.174508547E+02  0.187990967E+01 -0.199958693E+01
     4
 # iter = 42500  time[fs]=42.50000
   C -0.335820682E+01  0.583599727E-01 -0.917777127E-01
   C  0.339669531E+01 -0.186179680E+00  0.574351551E-01
   H -0.180903639E+02 -0.347146927E+00  0.223944203E+01
   H  0.178315684E+02  0.192221483E+01 -0.204321490E+01
     4
 # iter = 43000  time[fs]=43.00000
   C -0.343857167E+01  0.599792299E-01 -0.941408799E-01
   C  0.347656365E+01 -0.190841669E+00  0.602959779E-01
   H -0.184789558E+02 -0.355180669E+00  0.228833984E+01
   H  0.182128314E+02  0.196458975E+01 -0.208691448E+01
     4
 # iter = 43500  time[fs]=43.50000
   C -0.351920184E+01  0.616081810E-01 -0.965128750E-01
   C  0.355669314E+01 -0.195518051E+00  0.631659640E-01
   H -0.188680244E+02 -0.363224997E+00  0.233730236E+01
   H  0.185946211E+02  0.200703165E+01 -0.213068280E+01
     4
 # iter = 44000  time[fs]=44.00000
   C -0.360008532E+01  0.632464092E-01 -0.988933822E-01
   C  0.363707192E+01 -0.200208225E+00  0.660447867E-01
   H -0.192575504E+02 -0.371279506E+00  0.238632703E+01
   H  0.189769163E+02  0.204953792E+01 -0.217451716E+01
     4
 # iter = 44500  time[fs]=44.50000
   C -0.368121086E+01  0.648935230E-01 -0.101282101E+00
   C  0.371768891E+01 -0.204911627E+00  0.689321350E-01
   H -0.196475155E+02 -0.379343814E+00  0.243541142E+01
   H  0.193596969E+02  0.209210608E+01 -0.221841500E+01
     4
 # iter = 45000  time[fs]=45.00000
   C -0.376256793E+01  0.665491544E-01 -0.103678745E+00
   C  0.379853371E+01 -0.209627722E+00  0.718277129E-01
   H -0.200379028E+02 -0.387417558E+00  0.248455322E+01
   H  0.197429442E+02  0.213473379E+01 -0.226237392E+01
     4
 # iter = 45500  time[fs]=45.50000
   C -0.384414661E+01  0.682129566E-01 -0.106083041E+00
   C  0.387959655E+01 -0.214356011E+00  0.747312381E-01
   H -0.204286960E+02 -0.395500397E+00  0.253375029E+01
   H  0.201266403E+02  0.217741887E+01 -0.230639163E+01
     4
 # iter = 46000  time[fs]=46.00000
   C -0.392593761E+01  0.698846031E-01 -0.108494730E+00
   C  0.396086827E+01 -0.219096019E+00  0.776424417E-01
   H -0.208198799E+02 -0.403592007E+00  0.258300057E+01
   H  0.205107685E+02  0.222015922E+01 -0.235046599E+01
     4
 # iter = 46500  time[fs]=46.50000
   C -0.400793218E+01  0.715637857E-01 -0.110913564E+00
   C  0.404234024E+01 -0.223847298E+00  0.805610674E-01
   H -0.212114400E+02 -0.411692082E+00  0.263230214E+01
   H  0.208953128E+02  0.226295286E+01 -0.239459496E+01
     4
 # iter = 47000  time[fs]=47.00000
   C -0.409012208E+01  0.732502135E-01 -0.113339307E+00
   C  0.412400432E+01 -0.228609428E+00  0.834868705E-01
   H -0.216033628E+02 -0.419800328E+00  0.268165316E+01
   H  0.212802582E+02  0.230579792E+01 -0.243877661E+01
     4
 # iter = 47500  time[fs]=47.50000
   C -0.417249952E+01  0.749436114E-01 -0.115771732E+00
   C  0.420585286E+01 -0.233382007E+00  0.864196175E-01
   H -0.219956353E+02 -0.427916471E+00  0.273105190E+01
   H  0.216655904E+02  0.234869264E+01 -0.248300911E+01
     4
 # iter = 48000  time[fs]=48.00000
   C -0.425505718E+01  0.766437195E-01 -0.118210626E+00
   C  0.428787863E+01 -0.238164656E+00  0.893590854E-01
   H -0.223882452E+02 -0.436040246E+00  0.278049671E+01
   H  0.220512959E+02  0.239163532E+01 -0.252729072E+01
     4
 # iter = 48500  time[fs]=48.50000
   C -0.433778814E+01  0.783502912E-01 -0.120655781E+00
   C  0.437007480E+01 -0.242957018E+00  0.923050614E-01
   H -0.227811809E+02 -0.444171405E+00  0.282998603E+01
   H  0.224373618E+02  0.243462435E+01 -0.257161979E+01
     4
 # iter = 49000  time[fs]=49.00000
   C -0.442068583E+01  0.800630934E-01 -0.123107002E+00
   C  0.445243492E+01 -0.247758750E+00  0.952573418E-01
   H -0.231744314E+02 -0.452309708E+00  0.287951838E+01
   H  0.228237761E+02  0.247765822E+01 -0.261599475E+01
     4
 # iter = 49500  time[fs]=49.50000
   C -0.450374406E+01  0.817819046E-01 -0.125564101E+00
   C  0.453495287E+01 -0.252569530E+00  0.982157320E-01
   H -0.235679862E+02 -0.460454929E+00  0.292909233E+01
   H  0.232105270E+02  0.252073547E+01 -0.266041410E+01
     4
 # iter = 50000  time[fs]=50.00000
   C -0.458695696E+01  0.835065147E-01 -0.128026898E+00
   C  0.461762288E+01 -0.257389051E+00  0.101180046E+00
   H -0.239618352E+02 -0.468606851E+00  0.297870655E+01
   H  0.235976036E+02  0.256385472E+01 -0.270487642E+01
     4
 # iter = 50500  time[fs]=50.50000
   C -0.467031897E+01  0.852367241E-01 -0.130495221E+00
   C  0.470043946E+01 -0.262217020E+00  0.104150105E+00
   H -0.243559689E+02 -0.476765268E+00  0.302835975E+01
   H  0.239849953E+02  0.260701466E+01 -0.274938036E+01
     4
 # iter = 51000  time[fs]=51.00000
   C -0.475382481E+01  0.869723431E-01 -0.132968905E+00
   C  0.478339742E+01 -0.267053159E+00  0.107125739E+00
   H -0.247503784E+02 -0.484929984E+00  0.307805072E+01
   H  0.243726922E+02  0.265021401E+01 -0.279392462E+01
     4
 # iter = 51500  time[fs]=51.50000
   C -0.483746945E+01  0.887131911E-01 -0.135447793E+00
   C  0.486649180E+01 -0.271897203E+00  0.110106783E+00
   H -0.251450548E+02 -0.493100809E+00  0.312777827E+01
   H  0.247606846E+02  0.269345159E+01 -0.283850797E+01
     4
 # iter = 52000  time[fs]=52.00000
   C -0.492124814E+01  0.904590963E-01 -0.137931733E+00
   C  0.494971793E+01 -0.276748900E+00  0.113093083E+00
   H -0.255399901E+02 -0.501277564E+00  0.317754131E+01
   H  0.251489635E+02  0.273672625E+01 -0.288312922E+01
     4
 # iter = 52500  time[fs]=52.50000
   C -0.500515635E+01  0.922098948E-01 -0.140420580E+00
   C  0.503307133E+01 -0.281608008E+00  0.116084486E+00
   H -0.259351762E+02 -0.509460077E+00  0.322733877E+01
   H  0.255375202E+02  0.278003688E+01 -0.292778725E+01
     4
 # iter = 53000  time[fs]=53.00000
   C -0.508918977E+01  0.939654307E-01 -0.142914195E+00
   C  0.511654777E+01 -0.286474299E+00  0.119080849E+00
   H -0.263306058E+02 -0.517648182E+00  0.327716962E+01
   H  0.259263463E+02  0.282338244E+01 -0.297248098E+01
     4
 # iter = 53500  time[fs]=53.50000
   C -0.517334428E+01  0.957255548E-01 -0.145412446E+00
   C  0.520014320E+01 -0.291347552E+00  0.122082034E+00
   H -0.267262715E+02 -0.525841722E+00  0.332703291E+01
   H  0.263154339E+02  0.286676193E+01 -0.301720938E+01
     4
 # iter = 54000  time[fs]=54.00000
   C -0.525761598E+01  0.974901250E-01 -0.147915203E+00
   C  0.528385377E+01 -0.296227557E+00  0.125087907E+00
   H -0.271221665E+02 -0.534040545E+00  0.337692769E+01
   H  0.267047754E+02  0.291017438E+01 -0.306197146E+01
     4
 # iter = 54500  time[fs]=54.50000
   C -0.534200113E+01  0.992590053E-01 -0.150422343E+00
   C  0.536767580E+01 -0.301114115E+00  0.128098341E+00
   H -0.275182842E+02 -0.542244506E+00  0.342685308E+01
   H  0.270943635E+02  0.295361887E+01 -0.310676627E+01
     4
 # iter = 55000  time[fs]=55.00000
   C -0.542649618E+01  0.101032066E+00 -0.152933749E+00
   C  0.545160579E+01 -0.306007033E+00  0.131113213E+00
   H -0.279146184E+02 -0.550453466E+00  0.347680822E+01
   H  0.274841911E+02  0.299709452E+01 -0.315159290E+01
     4
 # iter = 55500  time[fs]=55.50000
   C -0.551109772E+01  0.102809183E+00 -0.155449306E+00
   C  0.553564038E+01 -0.310906127E+00  0.134132405E+00
   H -0.283111628E+02 -0.558667290E+00  0.352679228E+01
   H  0.278742517E+02  0.304060047E+01 -0.319645049E+01
     4
 # iter = 56000  time[fs]=56.00000
   C -0.559580249E+01  0.104590237E+00 -0.157968905E+00
   C  0.561977639E+01 -0.315811221E+00  0.137155804E+00
   H -0.287079118E+02 -0.566885852E+00  0.357680450E+01
   H  0.282645388E+02  0.308413592E+01 -0.324133820E+01
     4
 # iter = 56500  time[fs]=56.50000
   C -0.568060741E+01  0.106375114E+00 -0.160492442E+00
   C  0.570401075E+01 -0.320722147E+00  0.140183300E+00
   H -0.291048598E+02 -0.575109026E+00  0.362684410E+01
   H  0.286550463E+02  0.312770007E+01 -0.328625522E+01
     4
 # iter = 57000  time[fs]=57.00000
   C -0.576550948E+01  0.108163705E+00 -0.163019813E+00
   C  0.578834054E+01 -0.325638742E+00  0.143214788E+00
   H -0.295020014E+02 -0.583336695E+00  0.367691036E+01
   H  0.290457681E+02  0.317129219E+01 -0.333120079E+01
     4
 # iter = 57500  time[fs]=57.50000
   C -0.585050587E+01  0.109955907E+00 -0.165550923E+00
   C  0.587276296E+01 -0.330560852E+00  0.146250168E+00
   H -0.298993314E+02 -0.591568743E+00  0.372700259E+01
   H  0.294366987E+02  0.321491154E+01 -0.337617415E+01
     4
 # iter = 58000  time[fs]=58.00000
   C -0.593559384E+01  0.111751617E+00 -0.168085676E+00
   C  0.595727532E+01 -0.335488326E+00  0.149289340E+00
   H -0.302968450E+02 -0.599805062E+00  0.377712011E+01
   H  0.298278326E+02  0.325855743E+01 -0.342117460E+01
     4
 # iter = 58500  time[fs]=58.50000
   C -0.602077080E+01  0.113550740E+00 -0.170623983E+00
   C  0.604187505E+01 -0.340421023E+00  0.152332212E+00
   H -0.306945374E+02 -0.608045544E+00  0.382726228E+01
   H  0.302191645E+02  0.330222919E+01 -0.346620146E+01
     4
 # iter = 59000  time[fs]=59.00000
   C -0.610603423E+01  0.115353184E+00 -0.173165756E+00
   C  0.612655970E+01 -0.345358804E+00  0.155378692E+00
   H -0.310924040E+02 -0.616290089E+00  0.387742849E+01
   H  0.306106893E+02  0.334592618E+01 -0.351125406E+01
     4
 # iter = 59500  time[fs]=59.50000
   C -0.619138172E+01  0.117158860E+00 -0.175710910E+00
   C  0.621132690E+01 -0.350301536E+00  0.158428693E+00
   H -0.314904405E+02 -0.624538597E+00  0.392761812E+01
   H  0.310024022E+02  0.338964777E+01 -0.355633176E+01
     4
 # iter = 60000  time[fs]=60.00000
   C -0.627681098E+01  0.118967682E+00 -0.178259365E+00
   C  0.629617437E+01 -0.355249093E+00  0.161482131E+00
   H -0.318886425E+02 -0.632790974E+00  0.397783061E+01
   H  0.313942986E+02  0.343339337E+01 -0.360143395E+01
     4
 # iter = 60500  time[fs]=60.50000
   C -0.636231979E+01  0.120779568E+00 -0.180811041E+00
   C  0.638109994E+01 -0.360201352E+00  0.164538924E+00
   H -0.322870061E+02 -0.641047128E+00  0.402806541E+01
   H  0.317863739E+02  0.347716240E+01 -0.364656004E+01
     4
 # iter = 61000  time[fs]=61.00000
   C -0.644790602E+01  0.122594439E+00 -0.183365864E+00
   C  0.646610151E+01 -0.365158194E+00  0.167598993E+00
   H -0.326855273E+02 -0.649306971E+00  0.407832196E+01
   H  0.321786237E+02  0.352095430E+01 -0.369170946E+01
     4
 # iter = 61500  time[fs]=61.50000
   C -0.653356761E+01  0.124412220E+00 -0.185923759E+00
   C  0.655117708E+01 -0.370119507E+00  0.170662262E+00
   H -0.330842022E+02 -0.657570418E+00  0.412859977E+01
   H  0.325710438E+02  0.356476853E+01 -0.373688165E+01
     4
 # iter = 62000  time[fs]=62.00000
   C -0.661930262E+01  0.126232837E+00 -0.188484657E+00
   C  0.663632471E+01 -0.375085180E+00  0.173728658E+00
   H -0.334830273E+02 -0.665837386E+00  0.417889833E+01
   H  0.329636303E+02  0.360860458E+01 -0.378207610E+01
     4
 # iter = 62500  time[fs]=62.50000
   C -0.670510913E+01  0.128056219E+00 -0.191048488E+00
   C  0.672154253E+01 -0.380055109E+00  0.176798110E+00
   H -0.338819990E+02 -0.674107796E+00  0.422921716E+01
   H  0.333563791E+02  0.365246195E+01 -0.382729228E+01
     4
 # iter = 63000  time[fs]=63.00000
   C -0.679098534E+01  0.129882298E+00 -0.193615186E+00
   C  0.680682876E+01 -0.385029190E+00  0.179870549E+00
   H -0.342811138E+02 -0.682381571E+00  0.427955579E+01
   H  0.337492866E+02  0.369634014E+01 -0.387252969E+01
     4
 # iter = 63500  time[fs]=63.50000
   C -0.687692948E+01  0.131711010E+00 -0.196184688E+00
   C  0.689218167E+01 -0.390007326E+00  0.182945908E+00
   H -0.346803686E+02 -0.690658636E+00  0.432991378E+01
   H  0.341423491E+02  0.374023870E+01 -0.391778787E+01
     4
 # iter = 64000  time[fs]=64.00000
   C -0.696293986E+01  0.133542290E+00 -0.198756932E+00
   C  0.697759958E+01 -0.394989421E+00  0.186024123E+00
   H -0.350797602E+02 -0.698938920E+00  0.438029070E+01
   H  0.345355630E+02  0.378415717E+01 -0.396306634E+01
     4
 # iter = 64500  time[fs]=64.50000
   C -0.704901485E+01  0.135376077E+00 -0.201331857E+00
   C  0.706308091E+01 -0.399975385E+00  0.189105132E+00
   H -0.354792854E+02 -0.707222352E+00  0.443068611E+01
   H  0.349289250E+02  0.382809512E+01 -0.400836467E+01
     4
 # iter = 65000  time[fs]=65.00000
   C -0.713515288E+01  0.137212314E+00 -0.203909407E+00
   C  0.714862411E+01 -0.404965128E+00  0.192188875E+00
   H -0.358789412E+02 -0.715508866E+00  0.448109963E+01
   H  0.353224317E+02  0.387205211E+01 -0.405368240E+01
     4
 # iter = 65500  time[fs]=65.50000
   C -0.722135243E+01  0.139050942E+00 -0.206489523E+00
   C  0.723422768E+01 -0.409958565E+00  0.195275293E+00
   H -0.362787249E+02 -0.723798397E+00  0.453153084E+01
   H  0.357160801E+02  0.391602775E+01 -0.409901914E+01
     4
 # iter = 66000  time[fs]=66.00000
   C -0.730761204E+01  0.140891908E+00 -0.209072153E+00
   C  0.731989019E+01 -0.414955613E+00  0.198364329E+00
   H -0.366786336E+02 -0.732090880E+00  0.458197939E+01
   H  0.361098669E+02  0.396002163E+01 -0.414437446E+01
     4
 # iter = 66500  time[fs]=66.50000
   C -0.739393030E+01  0.142735157E+00 -0.211657243E+00
   C  0.740561024E+01 -0.419956193E+00  0.201455929E+00
   H -0.370786647E+02 -0.740386254E+00  0.463244488E+01
   H  0.365037892E+02  0.400403337E+01 -0.418974798E+01
     4
 # iter = 67000  time[fs]=67.00000
   C -0.748030584E+01  0.144580638E+00 -0.214244742E+00
   C  0.749138650E+01 -0.424960225E+00  0.204550040E+00
   H -0.374788155E+02 -0.748684461E+00  0.468292698E+01
   H  0.368978442E+02  0.404806259E+01 -0.423513932E+01
     4
 # iter = 67500  time[fs]=67.50000
   C -0.756673734E+01  0.146428302E+00 -0.216834601E+00
   C  0.757721767E+01 -0.429967637E+00  0.207646610E+00
   H -0.378790835E+02 -0.756985443E+00  0.473342533E+01
   H  0.372920291E+02  0.409210894E+01 -0.428054810E+01
     4
 # iter = 68000  time[fs]=68.00000
   C -0.765322353E+01  0.148278101E+00 -0.219426771E+00
   C  0.766310250E+01 -0.434978355E+00  0.210745588E+00
   H -0.382794662E+02 -0.765289143E+00  0.478393961E+01
   H  0.376863410E+02  0.413617207E+01 -0.432597398E+01
     4
 # iter = 68500  time[fs]=68.50000
   C -0.773976317E+01  0.150129988E+00 -0.222021206E+00
   C  0.774903977E+01 -0.439992308E+00  0.213846927E+00
   H -0.386799613E+02 -0.773595508E+00  0.483446947E+01
   H  0.380807775E+02  0.418025163E+01 -0.437141659E+01
     4
 # iter = 69000  time[fs]=69.00000
   C -0.782635508E+01  0.151983919E+00 -0.224617861E+00
   C  0.783502832E+01 -0.445009430E+00  0.216950579E+00
   H -0.390805666E+02 -0.781904485E+00  0.488501462E+01
   H  0.384753359E+02  0.422434730E+01 -0.441687561E+01
     4
 # iter = 69500  time[fs]=69.50000
   C -0.791299810E+01  0.153839849E+00 -0.227216690E+00
   C  0.792106702E+01 -0.450029653E+00  0.220056499E+00
   H -0.394812796E+02 -0.790216023E+00  0.493557474E+01
   H  0.388700137E+02  0.426845876E+01 -0.446235071E+01
     4
 # iter = 70000  time[fs]=70.00000
   C -0.799969112E+01  0.155697736E+00 -0.229817653E+00
   C  0.800715475E+01 -0.455052914E+00  0.223164641E+00
   H -0.398820984E+02 -0.798530072E+00  0.498614953E+01
   H  0.392648087E+02  0.431258570E+01 -0.450784157E+01
     4
 # iter = 70500  time[fs]=70.50000
   C -0.808643305E+01  0.157557540E+00 -0.232420707E+00
   C  0.809329047E+01 -0.460079151E+00  0.226274964E+00
   H -0.402830208E+02 -0.806846584E+00  0.503673872E+01
   H  0.396597184E+02  0.435672781E+01 -0.455334788E+01
     4
 # iter = 71000  time[fs]=71.00000
   C -0.817322284E+01  0.159419220E+00 -0.235025812E+00
   C  0.817947315E+01 -0.465108303E+00  0.229387425E+00
   H -0.406840447E+02 -0.815165512E+00  0.508734202E+01
   H  0.400547407E+02  0.440088480E+01 -0.459886935E+01
     4
 # iter = 71500  time[fs]=71.50000
   C -0.826005949E+01  0.161282738E+00 -0.237632928E+00
   C  0.826570179E+01 -0.470140313E+00  0.232501983E+00
   H -0.410851682E+02 -0.823486811E+00  0.513795915E+01
   H  0.404498732E+02  0.444505640E+01 -0.464440569E+01
     4
 # iter = 72000  time[fs]=72.00000
   C -0.834694202E+01  0.163148058E+00 -0.240242019E+00
   C  0.835197542E+01 -0.475175123E+00  0.235618598E+00
   H -0.414863894E+02 -0.831810437E+00  0.518858987E+01
   H  0.408451139E+02  0.448924231E+01 -0.468995660E+01
     4
 # iter = 72500  time[fs]=72.50000
   C -0.843386946E+01  0.165015142E+00 -0.242853046E+00
   C  0.843829311E+01 -0.480212679E+00  0.238737233E+00
   H -0.418877063E+02 -0.840136346E+00  0.523923390E+01
   H  0.412404608E+02  0.453344228E+01 -0.473552183E+01
     4
 # iter = 73000  time[fs]=73.00000
   C -0.852084089E+01  0.166883956E+00 -0.245465973E+00
   C  0.852465394E+01 -0.485252927E+00  0.241857849E+00
   H -0.422891173E+02 -0.848464498E+00  0.528989099E+01
   H  0.416359117E+02  0.457765605E+01 -0.478110109E+01
     4
 # iter = 73500  time[fs]=73.50000
   C -0.860785542E+01  0.168754465E+00 -0.248080767E+00
   C  0.861105705E+01 -0.490295815E+00  0.244980410E+00
   H -0.426906204E+02 -0.856794850E+00  0.534056092E+01
   H  0.420314648E+02  0.462188336E+01 -0.482669414E+01
     4
 # iter = 74000  time[fs]=74.00000
   C -0.869491219E+01  0.170626636E+00 -0.250697392E+00
   C  0.869750158E+01 -0.495341293E+00  0.248104882E+00
   H -0.430922140E+02 -0.865127364E+00  0.539124344E+01
   H  0.424271181E+02  0.466612395E+01 -0.487230071E+01
     4
 # iter = 74500  time[fs]=74.50000
   C -0.878201034E+01  0.172500437E+00 -0.253315815E+00
   C  0.878398670E+01 -0.500389312E+00  0.251231228E+00
   H -0.434938965E+02 -0.873462000E+00  0.544193832E+01
   H  0.428228698E+02  0.471037760E+01 -0.491792057E+01
     4
 # iter = 75000  time[fs]=75.00000
   C -0.886914905E+01  0.174375837E+00 -0.255936004E+00
   C  0.887051159E+01 -0.505439824E+00  0.254359416E+00
   H -0.438956662E+02 -0.881798722E+00  0.549264534E+01
   H  0.432187182E+02  0.475464407E+01 -0.496355348E+01
     4
 # iter = 75500  time[fs]=75.50000
   C -0.895632754E+01  0.176252806E+00 -0.258557928E+00
   C  0.895707549E+01 -0.510492784E+00  0.257489413E+00
   H -0.442975214E+02 -0.890137493E+00  0.554336428E+01
   H  0.436146614E+02  0.479892313E+01 -0.500919920E+01
     4
 # iter = 76000  time[fs]=76.00000
   C -0.904354502E+01  0.178131313E+00 -0.261181556E+00
   C  0.904367764E+01 -0.515548145E+00  0.260621186E+00
   H -0.446994608E+02 -0.898478277E+00  0.559409494E+01
   H  0.440106977E+02  0.484321456E+01 -0.505485750E+01
     4
 # iter = 76500  time[fs]=76.50000
   C -0.913080076E+01  0.180011330E+00 -0.263806858E+00
   C  0.913031729E+01 -0.520605864E+00  0.263754706E+00
   H -0.451014828E+02 -0.906821040E+00  0.564483709E+01
   H  0.444068255E+02  0.488751815E+01 -0.510052817E+01
     4
 # iter = 77000  time[fs]=77.00000
   C -0.921809401E+01  0.181892830E+00 -0.266433806E+00
   C  0.921699373E+01 -0.525665898E+00  0.266889942E+00
   H -0.455035859E+02 -0.915165748E+00  0.569559056E+01
   H  0.448030432E+02  0.493183367E+01 -0.514621099E+01
     4
 # iter = 77500  time[fs]=77.50000
   C -0.930542407E+01  0.183775785E+00 -0.269062370E+00
   C  0.930370626E+01 -0.530728206E+00  0.270026863E+00
   H -0.459057688E+02 -0.923512367E+00  0.574635513E+01
   H  0.451993492E+02  0.497616093E+01 -0.519190576E+01
     4
 # iter = 78000  time[fs]=78.00000
   C -0.939279025E+01  0.185660168E+00 -0.271692523E+00
   C  0.939045421E+01 -0.535792748E+00  0.273165442E+00
   H -0.463080299E+02 -0.931860866E+00  0.579713062E+01
   H  0.455957420E+02  0.502049974E+01 -0.523761226E+01
     4
 # iter = 78500  time[fs]=78.50000
   C -0.948019187E+01  0.187545954E+00 -0.274324239E+00
   C  0.947723692E+01 -0.540859483E+00  0.276305651E+00
   H -0.467103681E+02 -0.940211214E+00  0.584791684E+01
   H  0.459922201E+02  0.506484988E+01 -0.528333030E+01
     4
 # iter = 79000  time[fs]=79.00000
   C -0.956762830E+01  0.189433118E+00 -0.276957490E+00
   C  0.956405375E+01 -0.545928375E+00  0.279447462E+00
   H -0.471127819E+02 -0.948563379E+00  0.589871362E+01
   H  0.463887819E+02  0.510921118E+01 -0.532905969E+01
     4
 # iter = 79500  time[fs]=79.50000
   C -0.965509888E+01  0.191321635E+00 -0.279592252E+00
   C  0.965090407E+01 -0.550999384E+00  0.282590848E+00
   H -0.475152702E+02 -0.956917333E+00  0.594952078E+01
   H  0.467854262E+02  0.515358344E+01 -0.537480024E+01
     4
 # iter = 80000  time[fs]=80.00000
   C -0.974260301E+01  0.193211481E+00 -0.282228500E+00
   C  0.973778727E+01 -0.556072476E+00  0.285735783E+00
   H -0.479178316E+02 -0.965273046E+00  0.600033813E+01
   H  0.471821516E+02  0.519796650E+01 -0.542055175E+01
