     4
 # iter = 25000  time[fs]=25.00000
   C -0.990159249E+00 -0.504441695E-01  0.244621779E-02
   C  0.990209300E+00  0.479170749E-02  0.171470995E-02
   H -0.525466033E+01  0.384243290E+00 -0.516137670E-01
   H  0.538362629E+01  0.263159208E+00  0.438786623E+00
     4
 # iter = 25500  time[fs]=25.50000
   C -0.103614081E+01 -0.541262000E-01  0.267894084E-02
   C  0.103363686E+01  0.314176987E-02 -0.364993895E-03
   H -0.558974446E+01  0.407509740E+00 -0.563543680E-01
   H  0.570135562E+01  0.275882507E+00  0.462802049E+00
     4
 # iter = 26000  time[fs]=26.00000
   C -0.108576240E+01 -0.579280553E-01  0.291450214E-02
   C  0.108071386E+01  0.158299319E-02 -0.246246392E-02
   H -0.592753724E+01  0.430994678E+00 -0.611355025E-01
   H  0.602168081E+01  0.288731285E+00  0.487037144E+00
     4
 # iter = 26500  time[fs]=26.50000
   C -0.113870982E+01 -0.618381127E-01  0.315614113E-02
   C  0.113112363E+01  0.107014350E-03 -0.457931696E-02
   H -0.626773462E+01  0.454672911E+00 -0.659529513E-01
   H  0.634432727E+01  0.301691618E+00  0.511468217E+00
     4
 # iter = 27000  time[fs]=27.00000
   C -0.119468935E+01 -0.658458884E-01  0.340622191E-02
   C  0.118457058E+01 -0.129392315E-02 -0.671654889E-02
   H -0.661008035E+01  0.478523441E+00 -0.708031162E-01
   H  0.666906118E+01  0.314751777E+00  0.536075251E+00
     4
 # iter = 27500  time[fs]=27.50000
   C -0.125342989E+01 -0.699419747E-01  0.366640001E-02
   C  0.124078220E+01 -0.262692113E-02 -0.887465040E-02
   H -0.695435660E+01  0.502528570E+00 -0.756829065E-01
   H  0.699568191E+01  0.327901791E+00  0.560841178E+00
     4
 # iter = 28000  time[fs]=28.00000
   C -0.131468365E+01 -0.741179616E-01  0.393777076E-02
   C  0.129950955E+01 -0.389842177E-02 -0.110537166E-01
   H -0.730037667E+01  0.526673235E+00 -0.805896486E-01
   H  0.732401605E+01  0.341133109E+00  0.585751321E+00
     4
 # iter = 28500  time[fs]=28.50000
   C -0.137822563E+01 -0.783663507E-01  0.422099560E-02
   C  0.136052681E+01 -0.511423050E-02 -0.132535436E-01
   H -0.764797942E+01  0.550944504E+00 -0.855210155E-01
   H  0.765391278E+01  0.354438346E+00  0.610792969E+00
     4
 # iter = 29000  time[fs]=29.00000
   C -0.144385258E+01 -0.826804664E-01  0.451640631E-02
   C  0.142363003E+01 -0.627955544E-02 -0.154737091E-01
   H -0.799702480E+01  0.575331191E+00 -0.904749698E-01
   H  0.798524010E+01  0.367811079E+00  0.635955037E+00
     4
 # iter = 29500  time[fs]=29.50000
   C -0.151138145E+01 -0.870543693E-01  0.482408865E-02
   C  0.148863567E+01 -0.739905532E-02 -0.177136378E-01
   H -0.834739038E+01  0.599823547E+00 -0.954497178E-01
   H  0.831788189E+01  0.381245687E+00  0.661227797E+00
     4
 # iter = 30000  time[fs]=30.00000
   C -0.158064776E+01 -0.914827746E-01  0.514394852E-02
   C  0.155537880E+01 -0.847689057E-02 -0.199726528E-01
   H -0.869896853E+01  0.624413028E+00 -0.100443672E+00
   H  0.865173546E+01  0.394737224E+00  0.686602668E+00
     4
 # iter = 30500  time[fs]=30.50000
   C -0.165150383E+01 -0.959609768E-01  0.547576328E-02
   C  0.162371143E+01 -0.951677402E-02 -0.222500146E-01
   H -0.905166414E+01  0.649092096E+00 -0.105455422E+00
   H  0.898670960E+01  0.408281315E+00  0.712072037E+00
     4
 # iter = 31000  time[fs]=31.00000
   C -0.172381713E+01 -0.100484781E+00  0.581922116E-02
   C  0.169350078E+01 -0.105220192E-01 -0.245449512E-01
   H -0.940539277E+01  0.673854069E+00 -0.110483706E+00
   H  0.932272290E+01  0.421874070E+00  0.737629122E+00
     4
 # iter = 31500  time[fs]=31.50000
   C -0.179746868E+01 -0.105050444E+00  0.617395116E-02
   C  0.176462766E+01 -0.114955849E-01 -0.268566799E-01
   H -0.976007910E+01  0.698692995E+00 -0.115527395E+00
   H  0.965970244E+01  0.435512015E+00  0.763267851E+00
     4
 # iter = 32000  time[fs]=32.00000
   C -0.187235158E+01 -0.109654616E+00  0.653954548E-02
   C  0.183698505E+01 -0.124401162E-01 -0.291844230E-01
   H -0.101156557E+02  0.723603548E+00 -0.120585471E+00
   H  0.999758263E+01  0.449192036E+00  0.788982768E+00
     4
 # iter = 32500  time[fs]=32.50000
   C -0.194836972E+01 -0.114294298E+00  0.691557614E-02
   C  0.191047667E+01 -0.133579805E-01 -0.315274188E-01
   H -0.104720620E+02  0.748580942E+00 -0.125657016E+00
   H  0.103363043E+02  0.462911331E+00  0.814768950E+00
     4
 # iter = 33000  time[fs]=33.00000
   C -0.202543650E+01 -0.118966797E+00  0.730160726E-02
   C  0.198501587E+01 -0.142513005E-01 -0.338849296E-01
   H -0.108292433E+02  0.773620859E+00 -0.130741196E+00
   H  0.106758139E+02  0.476667368E+00  0.840621942E+00
     4
 # iter = 33500  time[fs]=33.50000
   C -0.210347385E+01 -0.123669689E+00  0.769720380E-02
   C  0.206052449E+01 -0.151219822E-01 -0.362562461E-01
   H -0.111871500E+02  0.798719392E+00 -0.135837254E+00
   H  0.110160627E+02  0.490457853E+00  0.866537695E+00
     4
 # iter = 34000  time[fs]=34.00000
   C -0.218241122E+01 -0.128400790E+00  0.810193789E-02
   C  0.213693193E+01 -0.159717410E-01 -0.386406909E-01
   H -0.115457374E+02  0.823872993E+00 -0.140944499E+00
   H  0.113570064E+02  0.504280699E+00  0.892512524E+00
     4
 # iter = 34500  time[fs]=34.50000
   C -0.226218476E+01 -0.133158125E+00  0.851539311E-02
   C  0.221417432E+01 -0.168021230E-01 -0.410376193E-01
   H -0.119049644E+02  0.849078427E+00 -0.146062299E+00
   H  0.116986046E+02  0.518134004E+00  0.918543057E+00
     4
 # iter = 35000  time[fs]=35.00000
   C -0.234273659E+01 -0.137939907E+00  0.893716739E-02
   C  0.229219374E+01 -0.176145252E-01 -0.434464204E-01
   H -0.122647938E+02  0.874332741E+00 -0.151190074E+00
   H  0.120408200E+02  0.532016030E+00  0.944626210E+00
     4
 # iter = 35500  time[fs]=35.50000
   C -0.242401411E+01 -0.142744513E+00  0.936687482E-02
   C  0.237093759E+01 -0.184102118E-01 -0.458665163E-01
   H -0.126251912E+02  0.899633227E+00 -0.156327293E+00
   H  0.123836188E+02  0.545925183E+00  0.970759146E+00
     4
 # iter = 36000  time[fs]=36.00000
   C -0.250596947E+01 -0.147570466E+00  0.980414666E-02
   C  0.245035801E+01 -0.191903296E-01 -0.482973617E-01
   H -0.129861254E+02  0.924977401E+00 -0.161473463E+00
   H  0.127269696E+02  0.559859997E+00  0.996939255E+00
     4
 # iter = 36500  time[fs]=36.50000
   C -0.258855903E+01 -0.152416422E+00  0.102486317E-01
   C  0.253041136E+01 -0.199559208E-01 -0.507384425E-01
   H -0.133475675E+02  0.950362973E+00 -0.166628133E+00
   H  0.130708435E+02  0.573819122E+00  0.102316413E+01
     4
 # iter = 37000  time[fs]=37.00000
   C -0.267174294E+01 -0.157281151E+00  0.106999966E-01
   C  0.261105778E+01 -0.207079346E-01 -0.531892743E-01
   H -0.137094907E+02  0.975787831E+00 -0.171790883E+00
   H  0.134152138E+02  0.587801314E+00  0.104943154E+01
     4
 # iter = 37500  time[fs]=37.50000
   C -0.275548470E+01 -0.162163530E+00  0.111579250E-01
   C  0.269226081E+01 -0.214472368E-01 -0.556494016E-01
   H -0.140718707E+02  0.100125002E+01 -0.176961323E+00
   H  0.137600559E+02  0.601805419E+00  0.107573942E+01
     4
 # iter = 38000  time[fs]=38.00000
   C -0.283975088E+01 -0.167062525E+00  0.116221178E-01
   C  0.277398702E+01 -0.221746191E-01 -0.581183952E-01
   H -0.144346845E+02  0.102674773E+01 -0.182139092E+00
   H  0.141053467E+02  0.615830370E+00  0.110208585E+01
     4
 # iter = 38500  time[fs]=38.50000
   C -0.292451076E+01 -0.171977190E+00  0.120922919E-01
   C  0.285620569E+01 -0.228908065E-01 -0.605958517E-01
   H -0.147979110E+02  0.105227929E+01 -0.187323855E+00
   H  0.144510651E+02  0.629875175E+00  0.112846906E+01
     4
 # iter = 39000  time[fs]=39.00000
   C -0.300973608E+01 -0.176906651E+00  0.125681798E-01
   C  0.293888858E+01 -0.235964644E-01 -0.630813913E-01
   H -0.151615308E+02  0.107784312E+01 -0.192515297E+00
   H  0.147971911E+02  0.643938910E+00  0.115488738E+01
     4
 # iter = 39500  time[fs]=39.50000
   C -0.309540078E+01 -0.181850105E+00  0.130495291E-01
   C  0.302200967E+01 -0.242922043E-01 -0.655746566E-01
   H -0.155255254E+02  0.110343777E+01 -0.197713126E+00
   H  0.151437062E+02  0.658020716E+00  0.118133926E+01
     4
 # iter = 40000  time[fs]=40.00000
   C -0.318148082E+01 -0.186806808E+00  0.135361010E-01
   C  0.310554493E+01 -0.249785893E-01 -0.680753109E-01
   H -0.158898778E+02  0.112906188E+01 -0.202917068E+00
   H  0.154905933E+02  0.672119790E+00  0.120782324E+01
     4
 # iter = 40500  time[fs]=40.50000
   C -0.326795397E+01 -0.191776071E+00  0.140276703E-01
   C  0.318947215E+01 -0.256561390E-01 -0.705830373E-01
   H -0.162545722E+02  0.115471418E+01 -0.208126866E+00
   H  0.158378362E+02  0.686235382E+00  0.123433798E+01
     4
 # iter = 41000  time[fs]=41.00000
   C -0.335479963E+01 -0.196757258E+00  0.145240244E-01
   C  0.327377075E+01 -0.263253331E-01 -0.730975370E-01
   H -0.166195937E+02  0.118039347E+01 -0.213342281E+00
   H  0.161854197E+02  0.700366789E+00  0.126088220E+01
     4
 # iter = 41500  time[fs]=41.50000
   C -0.344199871E+01 -0.201749777E+00  0.150249621E-01
   C  0.335842167E+01 -0.269866158E-01 -0.756185284E-01
   H -0.169849283E+02  0.120609865E+01 -0.218563086E+00
   H  0.165333296E+02  0.714513352E+00  0.128745470E+01
     4
 # iter = 42000  time[fs]=42.00000
   C -0.352953347E+01 -0.206753076E+00  0.155302938E-01
   C  0.344340718E+01 -0.276403988E-01 -0.781457456E-01
   H -0.173505631E+02  0.123182867E+01 -0.223789068E+00
   H  0.168815527E+02  0.728674454E+00  0.131405437E+01
     4
 # iter = 42500  time[fs]=42.50000
   C -0.361738741E+01 -0.211766643E+00  0.160398398E-01
   C  0.352871080E+01 -0.282870640E-01 -0.806789378E-01
   H -0.177164857E+02  0.125758253E+01 -0.229020028E+00
   H  0.172300763E+02  0.742849513E+00  0.134068014E+01
     4
 # iter = 43000  time[fs]=43.00000
   C -0.370554515E+01 -0.216790000E+00  0.165534306E-01
   C  0.361431719E+01 -0.289269667E-01 -0.832178680E-01
   H -0.180826846E+02  0.128335931E+01 -0.234255776E+00
   H  0.175788887E+02  0.757037982E+00  0.136733101E+01
     4
 # iter = 43500  time[fs]=43.50000
   C -0.379399236E+01 -0.221822701E+00  0.170709057E-01
   C  0.370021203E+01 -0.295604373E-01 -0.857623121E-01
   H -0.184491490E+02  0.130915814E+01 -0.239496135E+00
   H  0.179279788E+02  0.771239344E+00  0.139400606E+01
     4
 # iter = 44000  time[fs]=44.00000
   C -0.388271564E+01 -0.226864329E+00  0.175921130E-01
   C  0.378638194E+01 -0.301877841E-01 -0.883120582E-01
   H -0.188158686E+02  0.133497819E+01 -0.244740936E+00
   H  0.182773361E+02  0.785453115E+00  0.142070438E+01
     4
 # iter = 44500  time[fs]=44.50000
   C -0.397170248E+01 -0.231914492E+00  0.181169087E-01
   C  0.387281444E+01 -0.308092947E-01 -0.908669057E-01
   H -0.191828338E+02  0.136081869E+01 -0.249990020E+00
   H  0.186269507E+02  0.799678833E+00  0.144742514E+01
     4
 # iter = 45000  time[fs]=45.00000
   C -0.406094114E+01 -0.236972823E+00  0.186451566E-01
   C  0.395949780E+01 -0.314252378E-01 -0.934266646E-01
   H -0.195500354E+02  0.138667889E+01 -0.255243237E+00
   H  0.189768131E+02  0.813916066E+00  0.147416754E+01
     4
 # iter = 45500  time[fs]=45.50000
   C -0.415042063E+01 -0.242038980E+00  0.191767273E-01
   C  0.404642107E+01 -0.320358651E-01 -0.959911546E-01
   H -0.199174648E+02  0.141255809E+01 -0.260500442E+00
   H  0.193269146E+02  0.828164400E+00  0.150093084E+01
     4
 # iter = 46000  time[fs]=46.00000
   C -0.424013064E+01 -0.247112639E+00  0.197114983E-01
   C  0.413357394E+01 -0.326414121E-01 -0.985602051E-01
   H -0.202851140E+02  0.143845565E+01 -0.265761502E+00
   H  0.196772466E+02  0.842423448E+00  0.152771431E+01
     4
 # iter = 46500  time[fs]=46.50000
   C -0.433006147E+01 -0.252193496E+00  0.202493533E-01
   C  0.422094674E+01 -0.332421000E-01 -0.101133654E+00
   H -0.206529751E+02  0.146437092E+01 -0.271026287E+00
   H  0.200278013E+02  0.856692840E+00  0.155451727E+01
     4
 # iter = 47000  time[fs]=47.00000
   C -0.442020400E+01 -0.257281263E+00  0.207901816E-01
   C  0.430853037E+01 -0.338381362E-01 -0.103711347E+00
   H -0.210210407E+02  0.149030331E+01 -0.276294674E+00
   H  0.203785711E+02  0.870972224E+00  0.158133909E+01
     4
 # iter = 47500  time[fs]=47.50000
   C -0.451054965E+01 -0.262375673E+00  0.213338784E-01
   C  0.439631627E+01 -0.344297159E-01 -0.106293137E+00
   H -0.213893041E+02  0.151625227E+01 -0.281566547E+00
   H  0.207295487E+02  0.885261268E+00  0.160817914E+01
     4
 # iter = 48000  time[fs]=48.00000
   C -0.460109033E+01 -0.267476468E+00  0.218803436E-01
   C  0.448429636E+01 -0.350170226E-01 -0.108878886E+00
   H -0.217577584E+02  0.154221724E+01 -0.286841796E+00
   H  0.210807274E+02  0.899559655E+00  0.163503685E+01
     4
 # iter = 48500  time[fs]=48.50000
   C -0.469181839E+01 -0.272583410E+00  0.224294824E-01
   C  0.457246301E+01 -0.356002295E-01 -0.111468461E+00
   H -0.221263975E+02  0.156819772E+01 -0.292120315E+00
   H  0.214321006E+02  0.913867083E+00  0.166191166E+01
     4
 # iter = 49000  time[fs]=49.00000
   C -0.478272662E+01 -0.277696269E+00  0.229812043E-01
   C  0.466080905E+01 -0.361794995E-01 -0.114061735E+00
   H -0.224952154E+02  0.159419323E+01 -0.297402002E+00
   H  0.217836622E+02  0.928183266E+00  0.168880303E+01
     4
 # iter = 49500  time[fs]=49.50000
   C -0.487380821E+01 -0.282814831E+00  0.235354230E-01
   C  0.474932766E+01 -0.367549866E-01 -0.116658589E+00
   H -0.228642063E+02  0.162020328E+01 -0.302686762E+00
   H  0.221354061E+02  0.942507929E+00  0.171571047E+01
     4
 # iter = 50000  time[fs]=50.00000
   C -0.496505671E+01 -0.287938891E+00  0.240920566E-01
   C  0.483801242E+01 -0.373268363E-01 -0.119258908E+00
   H -0.232333649E+02  0.164622745E+01 -0.307974504E+00
   H  0.224873269E+02  0.956840812E+00  0.174263349E+01
     4
 # iter = 50500  time[fs]=50.50000
   C -0.505646601E+01 -0.293068256E+00  0.246510265E-01
   C  0.492685723E+01 -0.378951861E-01 -0.121862582E+00
   H -0.236026859E+02  0.167226530E+01 -0.313265138E+00
   H  0.228394190E+02  0.971181665E+00  0.176957162E+01
     4
 # iter = 51000  time[fs]=51.00000
   C -0.514803032E+01 -0.298202741E+00  0.252122581E-01
   C  0.501585632E+01 -0.384601663E-01 -0.124469506E+00
   H -0.239721644E+02  0.169831643E+01 -0.318558582E+00
   H  0.231916774E+02  0.985530251E+00  0.179652443E+01
     4
 # iter = 51500  time[fs]=51.50000
   C -0.523974414E+01 -0.303342173E+00  0.257756801E-01
   C  0.510500421E+01 -0.390219000E-01 -0.127079581E+00
   H -0.243417956E+02  0.172438046E+01 -0.323854755E+00
   H  0.235440971E+02  0.999886342E+00  0.182349150E+01
     4
 # iter = 52000  time[fs]=52.00000
   C -0.533160226E+01 -0.308486385E+00  0.263412242E-01
   C  0.519429570E+01 -0.395805044E-01 -0.129692711E+00
   H -0.247115752E+02  0.175045701E+01 -0.329153580E+00
   H  0.238966735E+02  0.101424972E+01  0.185047242E+01
     4
 # iter = 52500  time[fs]=52.50000
   C -0.542359972E+01 -0.313635220E+00  0.269088252E-01
   C  0.528372585E+01 -0.401360902E-01 -0.132308806E+00
   H -0.250814987E+02  0.177654574E+01 -0.334454983E+00
   H  0.242494020E+02  0.102862018E+01  0.187746680E+01
     4
 # iter = 53000  time[fs]=53.00000
   C -0.551573182E+01 -0.318788527E+00  0.274784209E-01
   C  0.537328996E+01 -0.406887629E-01 -0.134927777E+00
   H -0.254515619E+02  0.180264629E+01 -0.339758894E+00
   H  0.246022784E+02  0.104299751E+01  0.190447427E+01
     4
 # iter = 53500  time[fs]=53.50000
   C -0.560799407E+01 -0.323946162E+00  0.280499515E-01
   C  0.546298357E+01 -0.412386227E-01 -0.137549541E+00
   H -0.258217611E+02  0.182875834E+01 -0.345065246E+00
   H  0.249552985E+02  0.105738153E+01  0.193149448E+01
     4
 # iter = 54000  time[fs]=54.00000
   C -0.570038220E+01 -0.329107990E+00  0.286233600E-01
   C  0.555280241E+01 -0.417857647E-01 -0.140174018E+00
   H -0.261920922E+02  0.185488158E+01 -0.350373972E+00
   H  0.253084584E+02  0.107177206E+01  0.195852708E+01
     4
 # iter = 54500  time[fs]=54.50000
   C -0.579289214E+01 -0.334273881E+00  0.291985916E-01
   C  0.564274244E+01 -0.423302796E-01 -0.142801131E+00
   H -0.265625518E+02  0.188101572E+01 -0.355685010E+00
   H  0.256617542E+02  0.108616892E+01  0.198557175E+01
     4
 # iter = 55000  time[fs]=55.00000
   C -0.588552001E+01 -0.339443708E+00  0.297755939E-01
   C  0.573279978E+01 -0.428722537E-01 -0.145430806E+00
   H -0.269331364E+02  0.190716046E+01 -0.360998302E+00
   H  0.260151823E+02  0.110057194E+01  0.201262817E+01
     4
 # iter = 55500  time[fs]=55.50000
   C -0.597826210E+01 -0.344617355E+00  0.303543166E-01
   C  0.582297075E+01 -0.434117693E-01 -0.148062972E+00
   H -0.273038425E+02  0.193331553E+01 -0.366313787E+00
   H  0.263687392E+02  0.111498095E+01  0.203969603E+01
     4
 # iter = 56000  time[fs]=56.00000
   C -0.607111489E+01 -0.349794707E+00  0.309347116E-01
   C  0.591325182E+01 -0.439489050E-01 -0.150697563E+00
   H -0.276746669E+02  0.195948065E+01 -0.371631412E+00
   H  0.267224216E+02  0.112939580E+01  0.206677506E+01
     4
 # iter = 56500  time[fs]=56.50000
   C -0.616407500E+01 -0.354975655E+00  0.315167324E-01
   C  0.600363963E+01 -0.444837356E-01 -0.153334512E+00
   H -0.280456066E+02  0.198565558E+01 -0.376951123E+00
   H  0.270762261E+02  0.114381635E+01  0.209386496E+01
     4
 # iter = 57000  time[fs]=57.00000
   C -0.625713919E+01 -0.360160096E+00  0.321003346E-01
   C  0.609413095E+01 -0.450163326E-01 -0.155973756E+00
   H -0.284166586E+02  0.201184007E+01 -0.382272868E+00
   H  0.274301498E+02  0.115824245E+01  0.212096547E+01
     4
 # iter = 57500  time[fs]=57.50000
   C -0.635030437E+01 -0.365347929E+00  0.326854755E-01
   C  0.618472271E+01 -0.455467644E-01 -0.158615236E+00
   H -0.287878201E+02  0.203803388E+01 -0.387596597E+00
   H  0.277841896E+02  0.117267395E+01  0.214807632E+01
     4
 # iter = 58000  time[fs]=58.00000
   C -0.644356759E+01 -0.370539059E+00  0.332721141E-01
   C  0.627541197E+01 -0.460750964E-01 -0.161258894E+00
   H -0.291590882E+02  0.206423678E+01 -0.392922263E+00
   H  0.281383426E+02  0.118711073E+01  0.217519727E+01
     4
 # iter = 58500  time[fs]=58.50000
   C -0.653692602E+01 -0.375733395E+00  0.338602107E-01
   C  0.636619589E+01 -0.466013912E-01 -0.163904673E+00
   H -0.295304603E+02  0.209044856E+01 -0.398249821E+00
   H  0.284926060E+02  0.120155265E+01  0.220232808E+01
     4
 # iter = 59000  time[fs]=59.00000
   C -0.663037693E+01 -0.380930849E+00  0.344497276E-01
   C  0.645707178E+01 -0.471257085E-01 -0.166552520E+00
   H -0.299019339E+02  0.211666900E+01 -0.403579224E+00
   H  0.288469772E+02  0.121599959E+01  0.222946850E+01
     4
 # iter = 59500  time[fs]=59.50000
   C -0.672391773E+01 -0.386131336E+00  0.350406280E-01
   C  0.654803704E+01 -0.476481057E-01 -0.169202384E+00
   H -0.302735066E+02  0.214289789E+01 -0.408910431E+00
   H  0.292014535E+02  0.123045144E+01  0.225661833E+01
     4
 # iter = 60000  time[fs]=60.00000
   C -0.681754591E+01 -0.391334775E+00  0.356328768E-01
   C  0.663908919E+01 -0.481686378E-01 -0.171854214E+00
   H -0.306451758E+02  0.216913505E+01 -0.414243400E+00
   H  0.295560326E+02  0.124490807E+01  0.228377733E+01
     4
 # iter = 60500  time[fs]=60.50000
   C -0.691125909E+01 -0.396541089E+00  0.362264400E-01
   C  0.673022583E+01 -0.486873575E-01 -0.174507963E+00
   H -0.310169394E+02  0.219538027E+01 -0.419578091E+00
   H  0.299107119E+02  0.125936938E+01  0.231094530E+01
     4
 # iter = 61000  time[fs]=61.00000
   C -0.700505496E+01 -0.401750202E+00  0.368212850E-01
   C  0.682144468E+01 -0.492043153E-01 -0.177163584E+00
   H -0.313887952E+02  0.222163338E+01 -0.424914465E+00
   H  0.302654892E+02  0.127383526E+01  0.233812204E+01
     4
 # iter = 61500  time[fs]=61.50000
   C -0.709893131E+01 -0.406962043E+00  0.374173803E-01
   C  0.691274353E+01 -0.497195598E-01 -0.179821032E+00
   H -0.317607410E+02  0.224789419E+01 -0.430252486E+00
   H  0.306203622E+02  0.128830560E+01  0.236530735E+01
     4
 # iter = 62000  time[fs]=62.00000
   C -0.719288601E+01 -0.412176541E+00  0.380146954E-01
   C  0.700412027E+01 -0.502331376E-01 -0.182480265E+00
   H -0.321327747E+02  0.227416254E+01 -0.435592116E+00
   H  0.309753288E+02  0.130278030E+01  0.239250105E+01
     4
 # iter = 62500  time[fs]=62.50000
   C -0.728691701E+01 -0.417393632E+00  0.386132011E-01
   C  0.709557285E+01 -0.507450934E-01 -0.185141240E+00
   H -0.325048944E+02  0.230043826E+01 -0.440933321E+00
   H  0.313303868E+02  0.131725927E+01  0.241970294E+01
     4
 # iter = 63000  time[fs]=63.00000
   C -0.738102236E+01 -0.422613249E+00  0.392128690E-01
   C  0.718709932E+01 -0.512554704E-01 -0.187803917E+00
   H -0.328770981E+02  0.232672119E+01 -0.446276068E+00
   H  0.316855342E+02  0.133174241E+01  0.244691286E+01
     4
 # iter = 63500  time[fs]=63.50000
   C -0.747520015E+01 -0.427835332E+00  0.398136718E-01
   C  0.727869780E+01 -0.517643099E-01 -0.190468258E+00
   H -0.332493841E+02  0.235301116E+01 -0.451620322E+00
   H  0.320407692E+02  0.134622963E+01  0.247413062E+01
     4
 # iter = 64000  time[fs]=64.00000
   C -0.756944856E+01 -0.433059821E+00  0.404155832E-01
   C  0.737036646E+01 -0.522716518E-01 -0.193134225E+00
   H -0.336217504E+02  0.237930805E+01 -0.456966053E+00
   H  0.323960897E+02  0.136072084E+01  0.250135608E+01
     4
 # iter = 64500  time[fs]=64.50000
   C -0.766376583E+01 -0.438286657E+00  0.410185775E-01
   C  0.746210357E+01 -0.527775344E-01 -0.195801781E+00
   H -0.339941953E+02  0.240561168E+01 -0.462313231E+00
   H  0.327514940E+02  0.137521597E+01  0.252858905E+01
     4
 # iter = 65000  time[fs]=65.00000
   C -0.775815027E+01 -0.443515786E+00  0.416226302E-01
   C  0.755390742E+01 -0.532819946E-01 -0.198470892E+00
   H -0.343667172E+02  0.243192193E+01 -0.467661824E+00
   H  0.331069802E+02  0.138971492E+01  0.255582940E+01
     4
 # iter = 65500  time[fs]=65.50000
   C -0.785260025E+01 -0.448747154E+00  0.422277174E-01
   C  0.764577640E+01 -0.537850680E-01 -0.201141523E+00
   H -0.347393144E+02  0.245823867E+01 -0.473011805E+00
   H  0.334625467E+02  0.140421761E+01  0.258307696E+01
     4
 # iter = 66000  time[fs]=66.00000
   C -0.794711419E+01 -0.453980708E+00  0.428338160E-01
   C  0.773770894E+01 -0.542867891E-01 -0.203813642E+00
   H -0.351119854E+02  0.248456174E+01 -0.478363145E+00
   H  0.338181918E+02  0.141872397E+01  0.261033160E+01
     4
 # iter = 66500  time[fs]=66.50000
   C -0.804169057E+01 -0.459216400E+00  0.434409037E-01
   C  0.782970352E+01 -0.547871907E-01 -0.206487216E+00
   H -0.354847285E+02  0.251089104E+01 -0.483715817E+00
   H  0.341739139E+02  0.143323393E+01  0.263759316E+01
     4
 # iter = 67000  time[fs]=67.00000
   C -0.813632792E+01 -0.464454180E+00  0.440489590E-01
   C  0.792175868E+01 -0.552863048E-01 -0.209162215E+00
   H -0.358575424E+02  0.253722642E+01 -0.489069795E+00
   H  0.345297113E+02  0.144774740E+01  0.266486152E+01
     4
 # iter = 67500  time[fs]=67.50000
   C -0.823102483E+01 -0.469694002E+00  0.446579609E-01
   C  0.801387301E+01 -0.557841622E-01 -0.211838608E+00
   H -0.362304256E+02  0.256356778E+01 -0.494425053E+00
   H  0.348855827E+02  0.146226433E+01  0.269213653E+01
     4
 # iter = 68000  time[fs]=68.00000
   C -0.832577992E+01 -0.474935821E+00  0.452678891E-01
   C  0.810604514E+01 -0.562807927E-01 -0.214516367E+00
   H -0.366033767E+02  0.258991499E+01 -0.499781567E+00
   H  0.352415265E+02  0.147678464E+01  0.271941807E+01
     4
 # iter = 68500  time[fs]=68.50000
   C -0.842059186E+01 -0.480179592E+00  0.458787241E-01
   C  0.819827377E+01 -0.567762249E-01 -0.217195464E+00
   H -0.369763944E+02  0.261626795E+01 -0.505139312E+00
   H  0.355975412E+02  0.149130826E+01  0.274670602E+01
     4
 # iter = 69000  time[fs]=69.00000
   C -0.851545939E+01 -0.485425275E+00  0.464904468E-01
   C  0.829055761E+01 -0.572704865E-01 -0.219875872E+00
   H -0.373494772E+02  0.264262653E+01 -0.510498265E+00
   H  0.359536256E+02  0.150583514E+01  0.277400024E+01
     4
 # iter = 69500  time[fs]=69.50000
   C -0.861038125E+01 -0.490672826E+00  0.471030387E-01
   C  0.838289544E+01 -0.577636045E-01 -0.222557563E+00
   H -0.377226240E+02  0.266899063E+01 -0.515858403E+00
   H  0.363097782E+02  0.152036520E+01  0.280130063E+01
     4
 # iter = 70000  time[fs]=70.00000
   C -0.870535626E+01 -0.495922208E+00  0.477164820E-01
   C  0.847528605E+01 -0.582556046E-01 -0.225240512E+00
   H -0.380958336E+02  0.269536016E+01 -0.521219704E+00
   H  0.366659977E+02  0.153489839E+01  0.282860706E+01
     4
 # iter = 70500  time[fs]=70.50000
   C -0.880038325E+01 -0.501173381E+00  0.483307594E-01
   C  0.856772830E+01 -0.587465120E-01 -0.227924695E+00
   H -0.384691046E+02  0.272173499E+01 -0.526582146E+00
   H  0.370222829E+02  0.154943465E+01  0.285591942E+01
     4
 # iter = 71000  time[fs]=71.00000
   C -0.889546110E+01 -0.506426308E+00  0.489458540E-01
   C  0.866022107E+01 -0.592363509E-01 -0.230610087E+00
   H -0.388424360E+02  0.274811505E+01 -0.531945710E+00
   H  0.373786325E+02  0.156397392E+01  0.288323761E+01
     4
 # iter = 71500  time[fs]=71.50000
   C -0.899058873E+01 -0.511680953E+00  0.495617495E-01
   C  0.875276328E+01 -0.597251448E-01 -0.233296665E+00
   H -0.392158265E+02  0.277450023E+01 -0.537310373E+00
   H  0.377350453E+02  0.157851614E+01  0.291056151E+01
     4
 # iter = 72000  time[fs]=72.00000
   C -0.908576507E+01 -0.516937282E+00  0.501784301E-01
   C  0.884535388E+01 -0.602129163E-01 -0.235984405E+00
   H -0.395892752E+02  0.280089043E+01 -0.542676117E+00
   H  0.380915202E+02  0.159306127E+01  0.293789103E+01
     4
 # iter = 72500  time[fs]=72.50000
   C -0.918098911E+01 -0.522195259E+00  0.507958802E-01
   C  0.893799185E+01 -0.606996876E-01 -0.238673286E+00
   H -0.399627809E+02  0.282728558E+01 -0.548042923E+00
   H  0.384480560E+02  0.160760924E+01  0.296522606E+01
     4
 # iter = 73000  time[fs]=73.00000
   C -0.927625985E+01 -0.527454852E+00  0.514140851E-01
   C  0.903067620E+01 -0.611854799E-01 -0.241363286E+00
   H -0.403363426E+02  0.285368557E+01 -0.553410771E+00
   H  0.388046517E+02  0.162216001E+01  0.299256651E+01
     4
 # iter = 73500  time[fs]=73.50000
   C -0.937157635E+01 -0.532716030E+00  0.520330301E-01
   C  0.912340600E+01 -0.616703138E-01 -0.244054385E+00
   H -0.407099593E+02  0.288009032E+01 -0.558779643E+00
   H  0.391613060E+02  0.163671352E+01  0.301991228E+01
     4
 # iter = 74000  time[fs]=74.00000
   C -0.946693766E+01 -0.537978760E+00  0.526527011E-01
   C  0.921618030E+01 -0.621542095E-01 -0.246746561E+00
   H -0.410836299E+02  0.290649976E+01 -0.564149521E+00
   H  0.395180181E+02  0.165126973E+01  0.304726327E+01
     4
 # iter = 74500  time[fs]=74.50000
   C -0.956234289E+01 -0.543243014E+00  0.532730844E-01
   C  0.930899821E+01 -0.626371862E-01 -0.249439795E+00
   H -0.414573535E+02  0.293291379E+01 -0.569520389E+00
   H  0.398747868E+02  0.166582859E+01  0.307461940E+01
     4
 # iter = 75000  time[fs]=75.00000
   C -0.965779116E+01 -0.548508761E+00  0.538941666E-01
   C  0.940185886E+01 -0.631192629E-01 -0.252134068E+00
   H -0.418311293E+02  0.295933234E+01 -0.574892229E+00
   H  0.402316112E+02  0.168039006E+01  0.310198059E+01
     4
 # iter = 75500  time[fs]=75.50000
   C -0.975328161E+01 -0.553775973E+00  0.545159348E-01
   C  0.949476140E+01 -0.636004578E-01 -0.254829360E+00
   H -0.422049562E+02  0.298575533E+01 -0.580265024E+00
   H  0.405884903E+02  0.169495408E+01  0.312934673E+01
     4
 # iter = 76000  time[fs]=76.00000
   C -0.984881342E+01 -0.559044622E+00  0.551383763E-01
   C  0.958770501E+01 -0.640807887E-01 -0.257525655E+00
   H -0.425788333E+02  0.301218268E+01 -0.585638760E+00
   H  0.409454232E+02  0.170952062E+01  0.315671776E+01
     4
 # iter = 76500  time[fs]=76.50000
   C -0.994438578E+01 -0.564314682E+00  0.557614789E-01
   C  0.968068888E+01 -0.645602727E-01 -0.260222933E+00
   H -0.429527599E+02  0.303861433E+01 -0.591013419E+00
   H  0.413024089E+02  0.172408963E+01  0.318409358E+01
     4
 # iter = 77000  time[fs]=77.00000
   C -0.100399979E+02 -0.569586126E+00  0.563852306E-01
   C  0.977371226E+01 -0.650389266E-01 -0.262921177E+00
   H -0.433267350E+02  0.306505020E+01 -0.596388988E+00
   H  0.416594466E+02  0.173866107E+01  0.321147412E+01
     4
 # iter = 77500  time[fs]=77.50000
   C -0.101356491E+02 -0.574858929E+00  0.570096196E-01
   C  0.986677437E+01 -0.655167665E-01 -0.265620372E+00
   H -0.437007579E+02  0.309149022E+01 -0.601765450E+00
   H  0.420165353E+02  0.175323491E+01  0.323885930E+01
     4
 # iter = 78000  time[fs]=78.00000
   C -0.102313385E+02 -0.580133067E+00  0.576346348E-01
   C  0.995987449E+01 -0.659938084E-01 -0.268320499E+00
   H -0.440748278E+02  0.311793432E+01 -0.607142792E+00
   H  0.423736743E+02  0.176781109E+01  0.326624904E+01
     4
 # iter = 78500  time[fs]=78.50000
   C -0.103270655E+02 -0.585408514E+00  0.582602651E-01
   C  0.100530119E+02 -0.664700674E-01 -0.271021544E+00
   H -0.444489438E+02  0.314438243E+01 -0.612521000E+00
   H  0.427308627E+02  0.178238958E+01  0.329364328E+01
     4
 # iter = 79000  time[fs]=79.00000
   C -0.104228294E+02 -0.590685248E+00  0.588864996E-01
   C  0.101461859E+02 -0.669455586E-01 -0.273723491E+00
   H -0.448231052E+02  0.317083450E+01 -0.617900058E+00
   H  0.430880996E+02  0.179697035E+01  0.332104194E+01
     4
 # iter = 79500  time[fs]=79.50000
   C -0.105186295E+02 -0.595963246E+00  0.595133280E-01
   C  0.102393959E+02 -0.674202963E-01 -0.276426323E+00
   H -0.451973112E+02  0.319729045E+01 -0.623279955E+00
   H  0.434453844E+02  0.181155336E+01  0.334844494E+01
     4
 # iter = 80000  time[fs]=80.00000
   C -0.106144651E+02 -0.601242486E+00  0.601407399E-01
   C  0.103326411E+02 -0.678942947E-01 -0.279130028E+00
   H -0.455715612E+02  0.322375023E+01 -0.628660677E+00
   H  0.438027162E+02  0.182613856E+01  0.337585223E+01
