     4
 # iter = 25000  time[fs]=25.00000
   C -0.100524586E+01 -0.449102462E-01 -0.307647842E-01
   C  0.985714667E+00 -0.199247811E-01  0.110568973E-01
   H -0.521206542E+01 -0.598765147E+00  0.483504603E+00
   H  0.531237631E+01  0.597960340E+00 -0.134789620E+00
     4
 # iter = 25500  time[fs]=25.50000
   C -0.105284831E+01 -0.443992509E-01 -0.326597366E-01
   C  0.102941632E+01 -0.232134178E-01  0.119801143E-01
   H -0.554509426E+01 -0.635631315E+00  0.515729988E+00
   H  0.562807612E+01  0.633852449E+00 -0.144499919E+00
     4
 # iter = 26000  time[fs]=26.00000
   C -0.110416664E+01 -0.439154837E-01 -0.346515170E-01
   C  0.107683953E+01 -0.264761729E-01  0.129840188E-01
   H -0.588082359E+01 -0.672817778E+00  0.548232170E+00
   H  0.594640833E+01  0.670081011E+00 -0.154293330E+00
     4
 # iter = 26500  time[fs]=26.50000
   C -0.115887545E+01 -0.434493881E-01 -0.367325015E-01
   C  0.112765695E+01 -0.297226356E-01  0.140628998E-01
   H -0.621894972E+01 -0.710288204E+00  0.580979969E+00
   H  0.626709252E+01  0.706610086E+00 -0.164161626E+00
     4
 # iter = 27000  time[fs]=27.00000
   C -0.121667119E+01 -0.429933258E-01 -0.388955544E-01
   C  0.118156360E+01 -0.329604453E-01  0.152112118E-01
   H -0.655921678E+01 -0.748012144E+00  0.613947263E+00
   H  0.658989018E+01  0.743409238E+00 -0.174097768E+00
     4
 # iter = 27500  time[fs]=27.50000
   C -0.127727434E+01 -0.425412970E-01 -0.411340508E-01
   C  0.123827885E+01 -0.361955829E-01  0.164236660E-01
   H -0.690140731E+01 -0.785963823E+00  0.647111941E+00
   H  0.691459684E+01  0.780452467E+00 -0.184095679E+00
     4
 # iter = 28000  time[fs]=28.00000
   C -0.134042986E+01 -0.420886639E-01 -0.434418819E-01
   C  0.129754687E+01 -0.394326545E-01  0.176952877E-01
   H -0.724533498E+01 -0.824121230E+00  0.680455114E+00
   H  0.724103595E+01  0.817717381E+00 -0.194150079E+00
     4
 # iter = 28500  time[fs]=28.50000
   C -0.140590669E+01 -0.416318992E-01 -0.458134459E-01
   C  0.135913597E+01 -0.426751481E-01  0.190214458E-01
   H -0.759083896E+01 -0.862465417E+00  0.713960512E+00
   H  0.756905410E+01  0.855184559E+00 -0.204256345E+00
     4
 # iter = 29000  time[fs]=29.00000
   C -0.147349644E+01 -0.411683669E-01 -0.482436277E-01
   C  0.142283730E+01 -0.459256558E-01  0.203978627E-01
   H -0.793777953E+01 -0.900979955E+00  0.747614019E+00
   H  0.789851711E+01  0.892837044E+00 -0.214410411E+00
     4
 # iter = 29500  time[fs]=29.50000
   C -0.154301177E+01 -0.406961378E-01 -0.507277713E-01
   C  0.148846318E+01 -0.491860605E-01  0.218206097E-01
   H -0.828603457E+01 -0.939650501E+00  0.781403302E+00
   H  0.822930705E+01  0.930659942E+00 -0.224608676E+00
     4
 # iter = 30000  time[fs]=30.00000
   C -0.161428461E+01 -0.402138384E-01 -0.532616471E-01
   C  0.155584526E+01 -0.524576892E-01  0.232860938E-01
   H -0.863549671E+01 -0.978464465E+00  0.815317525E+00
   H  0.856131969E+01  0.968640101E+00 -0.234847937E+00
     4
 # iter = 30500  time[fs]=30.50000
   C -0.168716427E+01 -0.397205276E-01 -0.558414184E-01
   C  0.162483268E+01 -0.557414363E-01  0.247910375E-01
   H -0.898607112E+01 -0.101741073E+01  0.849347112E+00
   H  0.889446250E+01  0.100676584E+01 -0.245125332E+00
     4
 # iter = 31000  time[fs]=31.00000
   C -0.176151572E+01 -0.392155991E-01 -0.584636067E-01
   C  0.169529025E+01 -0.590378627E-01  0.263324572E-01
   H -0.933767360E+01 -0.105647943E+01  0.883483557E+00
   H  0.922865295E+01  0.104502676E+01 -0.255438294E+00
     4
 # iter = 31500  time[fs]=31.50000
   C -0.183721787E+01 -0.386987030E-01 -0.611250587E-01
   C  0.176709679E+01 -0.623472740E-01  0.279076393E-01
   H -0.969022906E+01 -0.109566176E+01  0.917719270E+00
   H  0.956381715E+01  0.108341353E+01 -0.265784506E+00
     4
 # iter = 32000  time[fs]=32.00000
   C -0.191416208E+01 -0.381696851E-01 -0.638229149E-01
   C  0.184014359E+01 -0.656697820E-01  0.295141167E-01
   H -0.100436703E+02 -0.113494987E+01  0.952047449E+00
   H  0.989988869E+01  0.112191775E+01 -0.276161878E+00
     4
 # iter = 32500  time[fs]=32.50000
   C -0.199225071E+01 -0.376285386E-01 -0.665545804E-01
   C  0.191433298E+01 -0.690053526E-01  0.311496461E-01
   H -0.103979369E+02 -0.117433666E+01  0.986461974E+00
   H  0.102368077E+02  0.116053188E+01 -0.286568510E+00
     4
 # iter = 33000  time[fs]=33.00000
   C -0.207139595E+01 -0.370753669E-01 -0.693176980E-01
   C  0.198957711E+01 -0.723538438E-01  0.328121871E-01
   H -0.107529744E+02 -0.121381574E+01  0.102095732E+01
   H  0.105745199E+02  0.119924904E+01 -0.297002673E+00
     4
 # iter = 33500  time[fs]=33.50000
   C -0.215151866E+01 -0.365103541E-01 -0.721101242E-01
   C  0.206579684E+01 -0.757150340E-01  0.344998819E-01
   H -0.111087335E+02 -0.125338135E+01  0.105552847E+01
   H  0.109129761E+02  0.123806302E+01 -0.307462789E+00
     4
 # iter = 34000  time[fs]=34.00000
   C -0.223254739E+01 -0.359337431E-01 -0.749299070E-01
   C  0.214292073E+01 -0.790886455E-01  0.362110377E-01
   H -0.114651694E+02 -0.129302821E+01  0.109017088E+01
   H  0.112521315E+02  0.127696813E+01 -0.317947414E+00
     4
 # iter = 34500  time[fs]=34.50000
   C -0.231441754E+01 -0.353458174E-01 -0.777752664E-01
   C  0.222088418E+01 -0.824743610E-01  0.379441099E-01
   H -0.118222413E+02 -0.133275155E+01  0.112488039E+01
   H  0.115919452E+02  0.131595920E+01 -0.328455220E+00
     4
 # iter = 35000  time[fs]=35.00000
   C -0.239707056E+01 -0.347468884E-01 -0.806445765E-01
   C  0.229962868E+01 -0.858718375E-01  0.396976876E-01
   H -0.121799121E+02 -0.137254700E+01  0.115965321E+01
   H  0.119323797E+02  0.135503145E+01 -0.338984989E+00
     4
 # iter = 35500  time[fs]=35.50000
   C -0.248045331E+01 -0.341372846E-01 -0.835363504E-01
   C  0.237910111E+01 -0.892807164E-01  0.414704799E-01
   H -0.125381477E+02 -0.141241053E+01  0.119448586E+01
   H  0.122734007E+02  0.139418054E+01 -0.349535592E+00
     4
 # iter = 36000  time[fs]=36.00000
   C -0.256451747E+01 -0.335173443E-01 -0.864492254E-01
   C  0.245925316E+01 -0.927006310E-01  0.432613043E-01
   H -0.128969169E+02 -0.145233849E+01  0.122937512E+01
   H  0.126149765E+02  0.143340242E+01 -0.360105992E+00
     4
 # iter = 36500  time[fs]=36.50000
   C -0.264921898E+01 -0.328874089E-01 -0.893819511E-01
   C  0.254004082E+01 -0.961312125E-01  0.450690758E-01
   H -0.132561908E+02 -0.149232746E+01  0.126431806E+01
   H  0.129570781E+02  0.147269340E+01 -0.370695222E+00
     4
 # iter = 37000  time[fs]=37.00000
   C -0.273451762E+01 -0.322478194E-01 -0.923333781E-01
   C  0.262142392E+01 -0.995720947E-01  0.468927974E-01
   H -0.136159431E+02 -0.153237434E+01  0.129931196E+01
   H  0.132996784E+02  0.151205003E+01 -0.381302389E+00
     4
 # iter = 37500  time[fs]=37.50000
   C -0.282037662E+01 -0.315989122E-01 -0.953024483E-01
   C  0.270336569E+01 -0.103022917E+00  0.487315515E-01
   H -0.139761491E+02 -0.157247622E+01  0.133435428E+01
   H  0.136427525E+02  0.155146913E+01 -0.391926661E+00
     4
 # iter = 38000  time[fs]=38.00000
   C -0.290676226E+01 -0.309410172E-01 -0.982881857E-01
   C  0.278583247E+01 -0.106483325E+00  0.505844925E-01
   H -0.143367863E+02 -0.161263043E+01  0.136944270E+01
   H  0.139862774E+02  0.159094775E+01 -0.402567263E+00
     4
 # iter = 38500  time[fs]=38.50000
   C -0.299364358E+01 -0.302744560E-01 -0.101289689E+00
   C  0.286879334E+01 -0.109952977E+00  0.524508395E-01
   H -0.146978336E+02 -0.165283448E+01  0.140457505E+01
   H  0.143302316E+02  0.163048313E+01 -0.413223471E+00
     4
 # iter = 39000  time[fs]=39.00000
   C -0.308099212E+01 -0.295995407E-01 -0.104306125E+00
   C  0.295221987E+01 -0.113431539E+00  0.543298709E-01
   H -0.150592716E+02 -0.169308606E+01  0.143974930E+01
   H  0.146745950E+02  0.167007272E+01 -0.423894611E+00
     4
 # iter = 39500  time[fs]=39.50000
   C -0.316878166E+01 -0.289165729E-01 -0.107336720E+00
   C  0.303608588E+01 -0.116918691E+00  0.562209184E-01
   H -0.154210819E+02 -0.173338301E+01  0.147496357E+01
   H  0.150193491E+02  0.170971411E+01 -0.434580049E+00
     4
 # iter = 40000  time[fs]=40.00000
   C -0.325698799E+01 -0.282258435E-01 -0.110380758E+00
   C  0.312036721E+01 -0.120414121E+00  0.581233624E-01
   H -0.157832477E+02 -0.177372331E+01  0.151021610E+01
   H  0.153644765E+02  0.174940508E+01 -0.445279192E+00
     4
 # iter = 40500  time[fs]=40.50000
   C -0.334558874E+01 -0.275276325E-01 -0.113437573E+00
   C  0.320504151E+01 -0.123917534E+00  0.600366275E-01
   H -0.161457533E+02 -0.181410510E+01  0.154550525E+01
   H  0.157099608E+02  0.178914352E+01 -0.455991485E+00
     4
 # iter = 41000  time[fs]=41.00000
   C -0.343456320E+01 -0.268222086E-01 -0.116506545E+00
   C  0.329008811E+01 -0.127428642E+00  0.619601788E-01
   H -0.165085836E+02 -0.185452660E+01  0.158082948E+01
   H  0.160557869E+02  0.182892748E+01 -0.466716403E+00
     4
 # iter = 41500  time[fs]=41.50000
   C -0.352389216E+01 -0.261098298E-01 -0.119587097E+00
   C  0.337548784E+01 -0.130947172E+00  0.638935182E-01
   H -0.168717250E+02 -0.189498618E+01  0.161618734E+01
   H  0.164019405E+02  0.186875511E+01 -0.477453455E+00
     4
 # iter = 42000  time[fs]=42.00000
   C -0.361355779E+01 -0.253907430E-01 -0.122678690E+00
   C  0.346122291E+01 -0.134472861E+00  0.658361813E-01
   H -0.172351645E+02 -0.193548227E+01  0.165157748E+01
   H  0.167484081E+02  0.190862468E+01 -0.488202175E+00
     4
 # iter = 42500  time[fs]=42.50000
   C -0.370354350E+01 -0.246651848E-01 -0.125780820E+00
   C  0.354727675E+01 -0.138005458E+00  0.677877344E-01
   H -0.175988898E+02 -0.197601342E+01  0.168699862E+01
   H  0.170951772E+02  0.194853454E+01 -0.498962128E+00
     4
 # iter = 43000  time[fs]=43.00000
   C -0.379383384E+01 -0.239333817E-01 -0.128893016E+00
   C  0.363363396E+01 -0.141544723E+00  0.697477725E-01
   H -0.179628894E+02 -0.201657827E+01  0.172244956E+01
   H  0.174422359E+02  0.198848318E+01 -0.509732898E+00
     4
 # iter = 43500  time[fs]=43.50000
   C -0.388441442E+01 -0.231955500E-01 -0.132014839E+00
   C  0.372028016E+01 -0.145090426E+00  0.717159161E-01
   H -0.183271526E+02 -0.205717552E+01  0.175792916E+01
   H  0.177895730E+02  0.202846912E+01 -0.520514096E+00
     4
 # iter = 44000  time[fs]=44.00000
   C -0.397527176E+01 -0.224518969E-01 -0.135145872E+00
   C  0.380720194E+01 -0.148642347E+00  0.736918099E-01
   H -0.186916693E+02 -0.209780395E+01  0.179343635E+01
   H  0.181371779E+02  0.206849101E+01 -0.531305350E+00
     4
 # iter = 44500  time[fs]=44.50000
   C -0.406639331E+01 -0.217026202E-01 -0.138285730E+00
   C  0.389438674E+01 -0.152200276E+00  0.756751206E-01
   H -0.190564297E+02 -0.213846241E+01  0.182897013E+01
   H  0.184850407E+02  0.210854754E+01 -0.542106311E+00
     4
 # iter = 45000  time[fs]=45.00000
   C -0.415776727E+01 -0.209479091E-01 -0.141434045E+00
   C  0.398182282E+01 -0.155764012E+00  0.776655350E-01
   H -0.194214248E+02 -0.217914981E+01  0.186452954E+01
   H  0.188331519E+02  0.214863748E+01 -0.552916646E+00
     4
 # iter = 45500  time[fs]=45.50000
   C -0.424938262E+01 -0.201879447E-01 -0.144590476E+00
   C  0.406949917E+01 -0.159333363E+00  0.796627588E-01
   H -0.197866462E+02 -0.221986513E+01  0.190011367E+01
   H  0.191815027E+02  0.218875968E+01 -0.563736039E+00
     4
 # iter = 46000  time[fs]=46.00000
   C -0.434122900E+01 -0.194228998E-01 -0.147754697E+00
   C  0.415740546E+01 -0.162908145E+00  0.816665149E-01
   H -0.201520856E+02 -0.226060738E+01  0.193572167E+01
   H  0.195300846E+02  0.222891303E+01 -0.574564190E+00
     4
 # iter = 46500  time[fs]=46.50000
   C -0.443329668E+01 -0.186529399E-01 -0.150926405E+00
   C  0.424553199E+01 -0.166488183E+00  0.836765423E-01
   H -0.205177353E+02 -0.230137565E+01  0.197135272E+01
   H  0.198788895E+02  0.226909648E+01 -0.585400815E+00
     4
 # iter = 47000  time[fs]=47.00000
   C -0.452557650E+01 -0.178782231E-01 -0.154105311E+00
   C  0.433386963E+01 -0.170073309E+00  0.856925949E-01
   H -0.208835881E+02 -0.234216905E+01  0.200700605E+01
   H  0.202279099E+02  0.230930904E+01 -0.596245640E+00
     4
 # iter = 47500  time[fs]=47.50000
   C -0.461805985E+01 -0.170989007E-01 -0.157291144E+00
   C  0.442240980E+01 -0.173663363E+00  0.877144401E-01
   H -0.212496371E+02 -0.238298674E+01  0.204268093E+01
   H  0.205771385E+02  0.234954975E+01 -0.607098409E+00
     4
 # iter = 48000  time[fs]=48.00000
   C -0.471073861E+01 -0.163151177E-01 -0.160483645E+00
   C  0.451114439E+01 -0.177258189E+00  0.897418584E-01
   H -0.216158756E+02 -0.242382795E+01  0.207837665E+01
   H  0.209265685E+02  0.238981772E+01 -0.617958874E+00
     4
 # iter = 48500  time[fs]=48.50000
   C -0.480360512E+01 -0.155270126E-01 -0.163682572E+00
   C  0.460006578E+01 -0.180857642E+00  0.917746420E-01
   H -0.219822975E+02 -0.246469190E+01  0.211409256E+01
   H  0.212761933E+02  0.243011209E+01 -0.628826801E+00
     4
 # iter = 49000  time[fs]=49.00000
   C -0.489665215E+01 -0.147347181E-01 -0.166887693E+00
   C  0.468916674E+01 -0.184461580E+00  0.938125943E-01
   H -0.223488968E+02 -0.250557788E+01  0.214982801E+01
   H  0.216260067E+02  0.247043203E+01 -0.639701964E+00
     4
 # iter = 49500  time[fs]=49.50000
   C -0.498987285E+01 -0.139383614E-01 -0.170098790E+00
   C  0.477844047E+01 -0.188069867E+00  0.958555290E-01
   H -0.227156678E+02 -0.254648521E+01  0.218558240E+01
   H  0.219760028E+02  0.251077677E+01 -0.650584149E+00
     4
 # iter = 50000  time[fs]=50.00000
   C -0.508326076E+01 -0.131380642E-01 -0.173315655E+00
   C  0.486788052E+01 -0.191682376E+00  0.979032693E-01
   H -0.230826051E+02 -0.258741323E+01  0.222135516E+01
   H  0.223261758E+02  0.255114557E+01 -0.661473151E+00
     4
 # iter = 50500  time[fs]=50.50000
   C -0.517680974E+01 -0.123339433E-01 -0.176538091E+00
   C  0.495748078E+01 -0.195298980E+00  0.999556477E-01
   H -0.234497036E+02 -0.262836131E+01  0.225714573E+01
   H  0.226765205E+02  0.259153770E+01 -0.672368774E+00
     4
 # iter = 51000  time[fs]=51.00000
   C -0.527051400E+01 -0.115261107E-01 -0.179765910E+00
   C  0.504723546E+01 -0.198919563E+00  0.102012505E+00
   H -0.238169584E+02 -0.266932886E+01  0.229295360E+01
   H  0.230270316E+02  0.263195250E+01 -0.683270830E+00
     4
 # iter = 51500  time[fs]=51.50000
   C -0.536436803E+01 -0.107146738E-01 -0.182998934E+00
   C  0.513713908E+01 -0.202544008E+00  0.104073689E+00
   H -0.241843647E+02 -0.271031531E+01  0.232877825E+01
   H  0.233777042E+02  0.267238929E+01 -0.694179139E+00
     4
 # iter = 52000  time[fs]=52.00000
   C -0.545836660E+01 -0.989973547E-02 -0.186236994E+00
   C  0.522718643E+01 -0.206172207E+00  0.106139056E+00
   H -0.245519181E+02 -0.275132012E+01  0.236461920E+01
   H  0.237285336E+02  0.271284747E+01 -0.705093529E+00
     4
 # iter = 52500  time[fs]=52.50000
   C -0.555250473E+01 -0.908139474E-02 -0.189479927E+00
   C  0.531737256E+01 -0.209804055E+00  0.108208470E+00
   H -0.249196143E+02 -0.279234275E+01  0.240047600E+01
   H  0.240795153E+02  0.275332644E+01 -0.716013833E+00
     4
 # iter = 53000  time[fs]=53.00000
   C -0.564677772E+01 -0.825974657E-02 -0.192727579E+00
   C  0.540769276E+01 -0.213439450E+00  0.110281799E+00
   H -0.252874491E+02 -0.283338272E+01  0.243634820E+01
   H  0.244306450E+02  0.279382561E+01 -0.726939894E+00
     4
 # iter = 53500  time[fs]=53.50000
   C -0.574118105E+01 -0.743488219E-02 -0.195979803E+00
   C  0.549814256E+01 -0.217078296E+00  0.112358918E+00
   H -0.256554187E+02 -0.287443953E+01  0.247223538E+01
   H  0.247819184E+02  0.283434444E+01 -0.737871558E+00
     4
 # iter = 54000  time[fs]=54.00000
   C -0.583571046E+01 -0.660688930E-02 -0.199236458E+00
   C  0.558871770E+01 -0.220720498E+00  0.114439710E+00
   H -0.260235193E+02 -0.291551274E+01  0.250813713E+01
   H  0.251333318E+02  0.287488241E+01 -0.748808680E+00
     4
 # iter = 54500  time[fs]=54.50000
   C -0.593036186E+01 -0.577585223E-02 -0.202497411E+00
   C  0.567941411E+01 -0.224365968E+00  0.116524060E+00
   H -0.263917473E+02 -0.295660189E+01  0.254405306E+01
   H  0.254848811E+02  0.291543900E+01 -0.759751119E+00
     4
 # iter = 55000  time[fs]=55.00000
   C -0.602513137E+01 -0.494185205E-02 -0.205762532E+00
   C  0.577022791E+01 -0.228014619E+00  0.118611860E+00
   H -0.267600992E+02 -0.299770657E+01  0.257998280E+01
   H  0.258365628E+02  0.295601373E+01 -0.770698738E+00
     4
 # iter = 55500  time[fs]=55.50000
   C -0.612001528E+01 -0.410496680E-02 -0.209031700E+00
   C  0.586115543E+01 -0.231666367E+00  0.120703006E+00
   H -0.271285716E+02 -0.303882637E+01  0.261592598E+01
   H  0.261883734E+02  0.299660613E+01 -0.781651408E+00
     4
 # iter = 56000  time[fs]=56.00000
   C -0.621501004E+01 -0.326527159E-02 -0.212304796E+00
   C  0.595219312E+01 -0.235321134E+00  0.122797400E+00
   H -0.274971614E+02 -0.307996090E+01  0.265188227E+01
   H  0.265403095E+02  0.303721576E+01 -0.792609004E+00
     4
 # iter = 56500  time[fs]=56.50000
   C -0.631011226E+01 -0.242283872E-02 -0.215581708E+00
   C  0.604333761E+01 -0.238978841E+00  0.124894946E+00
   H -0.278658656E+02 -0.312110978E+01  0.268785133E+01
   H  0.268923678E+02  0.307784217E+01 -0.803571404E+00
     4
 # iter = 57000  time[fs]=57.00000
   C -0.640531872E+01 -0.157773787E-02 -0.218862329E+00
   C  0.613458569E+01 -0.242639414E+00  0.126995554E+00
   H -0.282346810E+02 -0.316227265E+01  0.272383283E+01
   H  0.272445453E+02  0.311848495E+01 -0.814538493E+00
     4
 # iter = 57500  time[fs]=57.50000
   C -0.650062631E+01 -0.730036170E-03 -0.222146555E+00
   C  0.622593427E+01 -0.246302782E+00  0.129099136E+00
   H -0.286036050E+02 -0.320344916E+01  0.275982648E+01
   H  0.275968388E+02  0.315914370E+01 -0.825510158E+00
     4
 # iter = 58000  time[fs]=58.00000
   C -0.659603208E+01  0.120201668E-03 -0.225434286E+00
   C  0.631738040E+01 -0.249968877E+00  0.131205609E+00
   H -0.289726348E+02 -0.324463897E+01  0.279583196E+01
   H  0.279492456E+02  0.319981804E+01 -0.836486290E+00
     4
 # iter = 58500  time[fs]=58.50000
   C -0.669153318E+01  0.972913235E-03 -0.228725428E+00
   C  0.640892126E+01 -0.253637630E+00  0.133314894E+00
   H -0.293417677E+02 -0.328584177E+01  0.283184901E+01
   H  0.283017629E+02  0.324050759E+01 -0.847466786E+00
     4
 # iter = 59000  time[fs]=59.00000
   C -0.678712689E+01  0.182803832E-02 -0.232019889E+00
   C  0.650055413E+01 -0.257308979E+00  0.135426912E+00
   H -0.297110013E+02 -0.332705723E+01  0.286787733E+01
   H  0.286543879E+02  0.328121198E+01 -0.858451544E+00
     4
 # iter = 59500  time[fs]=59.50000
   C -0.688281061E+01  0.268551883E-02 -0.235317581E+00
   C  0.659227643E+01 -0.260982861E+00  0.137541592E+00
   H -0.300803330E+02 -0.336828507E+01  0.290391667E+01
   H  0.290071181E+02  0.332193088E+01 -0.869440467E+00
     4
 # iter = 60000  time[fs]=60.00000
   C -0.697858183E+01  0.354529867E-02 -0.238618420E+00
   C  0.668408566E+01 -0.264659217E+00  0.139658860E+00
   H -0.304497605E+02 -0.340952498E+01  0.293996677E+01
   H  0.293599509E+02  0.336266394E+01 -0.880433461E+00
     4
 # iter = 60500  time[fs]=60.50000
   C -0.707443815E+01  0.440732367E-02 -0.241922324E+00
   C  0.677597943E+01 -0.268337987E+00  0.141778650E+00
   H -0.308192816E+02 -0.345077670E+01  0.297602738E+01
   H  0.297128840E+02  0.340341085E+01 -0.891430436E+00
     4
 # iter = 61000  time[fs]=61.00000
   C -0.717037727E+01  0.527154150E-02 -0.245229216E+00
   C  0.686795545E+01 -0.272019118E+00  0.143900896E+00
   H -0.311888940E+02 -0.349203994E+01  0.301209826E+01
   H  0.300659151E+02  0.344417129E+01 -0.902431302E+00
     4
 # iter = 61500  time[fs]=61.50000
   C -0.726639698E+01  0.613790158E-02 -0.248539021E+00
   C  0.696001152E+01 -0.275702554E+00  0.146025535E+00
   H -0.315585957E+02 -0.353331445E+01  0.304817918E+01
   H  0.304190418E+02  0.348494496E+01 -0.913435976E+00
     4
 # iter = 62000  time[fs]=62.00000
   C -0.736249513E+01  0.700635504E-02 -0.251851664E+00
   C  0.705214551E+01 -0.279388244E+00  0.148152506E+00
   H -0.319283845E+02 -0.357459998E+01  0.308426991E+01
   H  0.307722621E+02  0.352573157E+01 -0.924444376E+00
     4
 # iter = 62500  time[fs]=62.50000
   C -0.745866969E+01  0.787685459E-02 -0.255167078E+00
   C  0.714435538E+01 -0.283076136E+00  0.150281751E+00
   H -0.322982586E+02 -0.361589628E+01  0.312037025E+01
   H  0.311255738E+02  0.356653083E+01 -0.935456420E+00
     4
 # iter = 63000  time[fs]=63.00000
   C -0.755491868E+01  0.874935449E-02 -0.258485194E+00
   C  0.723663918E+01 -0.286766182E+00  0.152413213E+00
   H -0.326682160E+02 -0.365720312E+01  0.315647997E+01
   H  0.314789749E+02  0.360734247E+01 -0.946472033E+00
     4
 # iter = 63500  time[fs]=63.50000
   C -0.765124021E+01  0.962381051E-02 -0.261805948E+00
   C  0.732899502E+01 -0.290458336E+00  0.154546838E+00
   H -0.330382548E+02 -0.369852026E+01  0.319259888E+01
   H  0.318324635E+02  0.364816622E+01 -0.957491139E+00
     4
 # iter = 64000  time[fs]=64.00000
   C -0.774763245E+01  0.105001798E-01 -0.265129277E+00
   C  0.742142108E+01 -0.294152550E+00  0.156682574E+00
   H -0.334083733E+02 -0.373984750E+01  0.322872678E+01
   H  0.321860376E+02  0.368900184E+01 -0.968513667E+00
     4
 # iter = 64500  time[fs]=64.50000
   C -0.784409364E+01  0.113784209E-01 -0.268455121E+00
   C  0.751391561E+01 -0.297848781E+00  0.158820371E+00
   H -0.337785698E+02 -0.378118460E+01  0.326486349E+01
   H  0.325396954E+02  0.372984906E+01 -0.979539546E+00
     4
 # iter = 65000  time[fs]=65.00000
   C -0.794062208E+01  0.122584936E-01 -0.271783420E+00
   C  0.760647692E+01 -0.301546986E+00  0.160960179E+00
   H -0.341488425E+02 -0.382253137E+01  0.330100881E+01
   H  0.328934351E+02  0.377070766E+01 -0.990568708E+00
     4
 # iter = 65500  time[fs]=65.50000
   C -0.803721613E+01  0.131403590E-01 -0.275114120E+00
   C  0.769910338E+01 -0.305247123E+00  0.163101951E+00
   H -0.345191899E+02 -0.386388760E+01  0.333716257E+01
   H  0.332472550E+02  0.381157740E+01 -0.100160109E+01
     4
 # iter = 66000  time[fs]=66.00000
   C -0.813387423E+01  0.140239793E-01 -0.278447165E+00
   C  0.779179343E+01 -0.308949151E+00  0.165245643E+00
   H -0.348896104E+02 -0.390525311E+01  0.337332460E+01
   H  0.336011535E+02  0.385245804E+01 -0.101263662E+01
     4
 # iter = 66500  time[fs]=66.50000
   C -0.823059484E+01  0.149093181E-01 -0.281782502E+00
   C  0.788454555E+01 -0.312653032E+00  0.167391210E+00
   H -0.352601025E+02 -0.394662770E+01  0.340949473E+01
   H  0.339551289E+02  0.389334938E+01 -0.102367524E+01
     4
 # iter = 67000  time[fs]=67.00000
   C -0.832737649E+01  0.157963399E-01 -0.285120081E+00
   C  0.797735828E+01 -0.316358728E+00  0.169538610E+00
   H -0.356306647E+02 -0.398801118E+01  0.344567280E+01
   H  0.343091796E+02  0.393425120E+01 -0.103471690E+01
     4
 # iter = 67500  time[fs]=67.50000
   C -0.842421778E+01  0.166850101E-01 -0.288459853E+00
   C  0.807023020E+01 -0.320066202E+00  0.171687802E+00
   H -0.360012955E+02 -0.402940339E+01  0.348185865E+01
   H  0.346633041E+02  0.397516329E+01 -0.104576153E+01
     4
 # iter = 68000  time[fs]=68.00000
   C -0.852111731E+01  0.175752956E-01 -0.291801769E+00
   C  0.816315996E+01 -0.323775417E+00  0.173838746E+00
   H -0.363719936E+02 -0.407080415E+01  0.351805212E+01
   H  0.350175011E+02  0.401608546E+01 -0.105680907E+01
     4
 # iter = 68500  time[fs]=68.50000
   C -0.861807377E+01  0.184671639E-01 -0.295145784E+00
   C  0.825614623E+01 -0.327486341E+00  0.175991403E+00
   H -0.367427577E+02 -0.411221329E+01  0.355425307E+01
   H  0.353717689E+02  0.405701750E+01 -0.106785947E+01
     4
 # iter = 69000  time[fs]=69.00000
   C -0.871508588E+01  0.193605836E-01 -0.298491853E+00
   C  0.834918773E+01 -0.331198938E+00  0.178145738E+00
   H -0.371135864E+02 -0.415363065E+01  0.359046136E+01
   H  0.357261062E+02  0.409795924E+01 -0.107891268E+01
     4
 # iter = 69500  time[fs]=69.50000
   C -0.881215239E+01  0.202555240E-01 -0.301839933E+00
   C  0.844228324E+01 -0.334913176E+00  0.180301712E+00
   H -0.374844785E+02 -0.419505607E+01  0.362667684E+01
   H  0.360805118E+02  0.413891048E+01 -0.108996865E+01
     4
 # iter = 70000  time[fs]=70.00000
   C -0.890927211E+01  0.211519557E-01 -0.305189981E+00
   C  0.853543156E+01 -0.338629024E+00  0.182459293E+00
   H -0.378554327E+02 -0.423648940E+01  0.366289939E+01
   H  0.364349842E+02  0.417987104E+01 -0.110102731E+01
     4
 # iter = 70500  time[fs]=70.50000
   C -0.900644388E+01  0.220498497E-01 -0.308541958E+00
   C  0.862863154E+01 -0.342346450E+00  0.184618446E+00
   H -0.382264479E+02 -0.427793049E+01  0.369912885E+01
   H  0.367895222E+02  0.422084076E+01 -0.111208864E+01
     4
 # iter = 71000  time[fs]=71.00000
   C -0.910366656E+01  0.229491781E-01 -0.311895823E+00
   C  0.872188206E+01 -0.346065424E+00  0.186779138E+00
   H -0.385975229E+02 -0.431937920E+01  0.373536512E+01
   H  0.371441246E+02  0.426181947E+01 -0.112315257E+01
     4
 # iter = 71500  time[fs]=71.50000
   C -0.920093907E+01  0.238499136E-01 -0.315251538E+00
   C  0.881518204E+01 -0.349785918E+00  0.188941337E+00
   H -0.389686565E+02 -0.436083539E+01  0.377160806E+01
   H  0.374987901E+02  0.430280699E+01 -0.113421906E+01
     4
 # iter = 72000  time[fs]=72.00000
   C -0.929826037E+01  0.247520298E-01 -0.318609067E+00
   C  0.890853043E+01 -0.353507903E+00  0.191105014E+00
   H -0.393398477E+02 -0.440229891E+01  0.380785755E+01
   H  0.378535176E+02  0.434380318E+01 -0.114528806E+01
     4
 # iter = 72500  time[fs]=72.50000
   C -0.939562941E+01  0.256555010E-01 -0.321968372E+00
   C  0.900192620E+01 -0.357231351E+00  0.193270137E+00
   H -0.397110954E+02 -0.444376964E+01  0.384411347E+01
   H  0.382083060E+02  0.438480788E+01 -0.115635953E+01
     4
 # iter = 73000  time[fs]=73.00000
   C -0.949304522E+01  0.265603022E-01 -0.325329420E+00
   C  0.909536839E+01 -0.360956235E+00  0.195436679E+00
   H -0.400823986E+02 -0.448524744E+01  0.388037571E+01
   H  0.385631541E+02  0.442582093E+01 -0.116743343E+01
     4
 # iter = 73500  time[fs]=73.50000
   C -0.959050683E+01  0.274664089E-01 -0.328692177E+00
   C  0.918885603E+01 -0.364682530E+00  0.197604610E+00
   H -0.404537562E+02 -0.452673219E+01  0.391664416E+01
   H  0.389180608E+02  0.446684218E+01 -0.117850972E+01
     4
 # iter = 74000  time[fs]=74.00000
   C -0.968801332E+01  0.283737975E-01 -0.332056609E+00
   C  0.928238819E+01 -0.368410210E+00  0.199773904E+00
   H -0.408251673E+02 -0.456822377E+01  0.395291870E+01
   H  0.392730252E+02  0.450787151E+01 -0.118958835E+01
     4
 # iter = 74500  time[fs]=74.50000
   C -0.978556376E+01  0.292824449E-01 -0.335422684E+00
   C  0.937596398E+01 -0.372139251E+00  0.201944534E+00
   H -0.411966310E+02 -0.460972206E+01  0.398919924E+01
   H  0.396280462E+02  0.454890875E+01 -0.120066928E+01
     4
 # iter = 75000  time[fs]=75.00000
   C -0.988315730E+01  0.301923286E-01 -0.338790372E+00
   C  0.946958252E+01 -0.375869627E+00  0.204116475E+00
   H -0.415681462E+02 -0.465122694E+01  0.402548566E+01
   H  0.399831227E+02  0.458995379E+01 -0.121175248E+01
     4
 # iter = 75500  time[fs]=75.50000
   C -0.998079307E+01  0.311034268E-01 -0.342159641E+00
   C  0.956324297E+01 -0.379601316E+00  0.206289701E+00
   H -0.419397121E+02 -0.469273830E+01  0.406177787E+01
   H  0.403382539E+02  0.463100648E+01 -0.122283790E+01
     4
 # iter = 76000  time[fs]=76.00000
   C -0.100784703E+02  0.320157182E-01 -0.345530463E+00
   C  0.965694451E+01 -0.383334295E+00  0.208464188E+00
   H -0.423113279E+02 -0.473425603E+01  0.409807577E+01
   H  0.406934388E+02  0.467206670E+01 -0.123392552E+01
     4
 # iter = 76500  time[fs]=76.50000
   C -0.101761880E+02  0.329291820E-01 -0.348902809E+00
   C  0.975068633E+01 -0.387068541E+00  0.210639913E+00
   H -0.426829925E+02 -0.477578001E+01  0.413437925E+01
   H  0.410486765E+02  0.471313432E+01 -0.124501529E+01
     4
 # iter = 77000  time[fs]=77.00000
   C -0.102739456E+02  0.338437979E-01 -0.352276651E+00
   C  0.984446766E+01 -0.390804033E+00  0.212816852E+00
   H -0.430547053E+02 -0.481731016E+01  0.417068824E+01
   H  0.414039660E+02  0.475420922E+01 -0.125610718E+01
     4
 # iter = 77500  time[fs]=77.50000
   C -0.103717423E+02  0.347595463E-01 -0.355651963E+00
   C  0.993828775E+01 -0.394540750E+00  0.214994983E+00
   H -0.434264654E+02 -0.485884635E+01  0.420700264E+01
   H  0.417593066E+02  0.479529128E+01 -0.126720116E+01
     4
 # iter = 78000  time[fs]=78.00000
   C -0.104695773E+02  0.356764080E-01 -0.359028716E+00
   C  0.100321459E+02 -0.398278671E+00  0.217174285E+00
   H -0.437982721E+02 -0.490038850E+01  0.424332235E+01
   H  0.421146973E+02  0.483638038E+01 -0.127829718E+01
     4
 # iter = 78500  time[fs]=78.50000
   C -0.105674499E+02  0.365943641E-01 -0.362406887E+00
   C  0.101260413E+02 -0.402017775E+00  0.219354735E+00
   H -0.441701244E+02 -0.494193650E+01  0.427964730E+01
   H  0.424701373E+02  0.487747641E+01 -0.128939523E+01
     4
 # iter = 79000  time[fs]=79.00000
   C -0.106653594E+02  0.375133965E-01 -0.365786450E+00
   C  0.102199733E+02 -0.405758044E+00  0.221536315E+00
   H -0.445420217E+02 -0.498349027E+01  0.431597739E+01
   H  0.428256259E+02  0.491857925E+01 -0.130049526E+01
     4
 # iter = 79500  time[fs]=79.50000
   C -0.107633052E+02  0.384334872E-01 -0.369167381E+00
   C  0.103139413E+02 -0.409499458E+00  0.223719003E+00
   H -0.449139632E+02 -0.502504970E+01  0.435231256E+01
   H  0.431811621E+02  0.495968881E+01 -0.131159725E+01
     4
 # iter = 80000  time[fs]=80.00000
   C -0.108612865E+02  0.393546189E-01 -0.372549655E+00
   C  0.104079446E+02 -0.413241998E+00  0.225902780E+00
   H -0.452859483E+02 -0.506661471E+01  0.438865270E+01
   H  0.435367453E+02  0.500080496E+01 -0.132270117E+01
