     4
 # iter = 25000  time[fs]=25.00000
   C -0.100524586E+01 -0.449102462E-01 -0.307647842E-01
   C  0.985714667E+00 -0.199247811E-01  0.110568973E-01
   H -0.521206542E+01 -0.598765147E+00  0.483504603E+00
   H  0.531237631E+01  0.597960340E+00 -0.134789620E+00
     4
 # iter = 25500  time[fs]=25.50000
   C -0.105245885E+01 -0.443890118E-01 -0.326605884E-01
   C  0.102901539E+01 -0.232271601E-01  0.119723189E-01
   H -0.554654802E+01 -0.635800147E+00  0.515880672E+00
   H  0.562966749E+01  0.634063319E+00 -0.144546837E+00
     4
 # iter = 26000  time[fs]=26.00000
   C -0.110265902E+01 -0.438771059E-01 -0.346542508E-01
   C  0.107528687E+01 -0.265281605E-01  0.129536280E-01
   H -0.588640683E+01 -0.673465737E+00  0.548810710E+00
   H  0.595253202E+01  0.670892287E+00 -0.154474375E+00
     4
 # iter = 26500  time[fs]=26.50000
   C -0.115559422E+01 -0.433682813E-01 -0.367374597E-01
   C  0.112427629E+01 -0.298335044E-01  0.139963533E-01
   H -0.623103007E+01 -0.711689341E+00  0.582231477E+00
   H  0.628036612E+01  0.708368367E+00 -0.164555077E+00
     4
 # iter = 27000  time[fs]=27.00000
   C -0.121102999E+01 -0.428575506E-01 -0.389027133E-01
   C  0.117574901E+01 -0.331476799E-01  0.150962062E-01
   H -0.657989940E+01 -0.750409754E+00  0.616089623E+00
   H  0.661265354E+01  0.746424362E+00 -0.174774155E+00
     4
 # iter = 27500  time[fs]=27.50000
   C -0.126875052E+01 -0.423410160E-01 -0.411432340E-01
   C  0.122948936E+01 -0.364741174E-01  0.162491213E-01
   H -0.693257258E+01 -0.789574957E+00  0.650339783E+00
   H  0.694895027E+01  0.785002644E+00 -0.185118786E+00
     4
 # iter = 28000  time[fs]=28.00000
   C -0.132855866E+01 -0.418156956E-01 -0.434528972E-01
   C  0.128530056E+01 -0.398153642E-01  0.174512807E-01
   H -0.728866994E+01 -0.829140426E+00  0.684943095E+00
   H  0.728887229E+01  0.824053473E+00 -0.195577792E+00
     4
 # iter = 28500  time[fs]=28.50000
   C -0.139027526E+01 -0.412793618E-01 -0.458261667E-01
   C  0.134300396E+01 -0.431732464E-01  0.186991250E-01
   H -0.764786352E+01 -0.869067796E+00  0.719866044E+00
   H  0.763208566E+01  0.863533668E+00 -0.206141379E+00
     4
 # iter = 29000  time[fs]=29.00000
   C -0.145373815E+01 -0.407303983E-01 -0.482580376E-01
   C  0.140243797E+01 -0.465490109E-01  0.199893544E-01
   H -0.800986841E+01 -0.909323803E+00  0.755079545E+00
   H  0.797829856E+01  0.903405531E+00 -0.216800920E+00
     4
 # iter = 29500  time[fs]=29.50000
   C -0.151880085E+01 -0.401676775E-01 -0.507439840E-01
   C  0.146345673E+01 -0.499434453E-01  0.213189224E-01
   H -0.837443581E+01 -0.949879445E+00  0.790558213E+00
   H  0.832725471E+01  0.943635981E+00 -0.227548786E+00
     4
 # iter = 30000  time[fs]=30.00000
   C -0.158533130E+01 -0.395904584E-01 -0.532799104E-01
   C  0.152592881E+01 -0.533569788E-01  0.226850254E-01
   H -0.874134736E+01 -0.990709295E+00  0.826279769E+00
   H  0.867872804E+01  0.984195846E+00 -0.238378200E+00
     4
 # iter = 30500  time[fs]=30.50000
   C -0.165321044E+01 -0.389983023E-01 -0.558621088E-01
   C  0.158973581E+01 -0.567897631E-01  0.240850886E-01
   H -0.911041048E+01 -0.103179095E+01  0.862224567E+00
   H  0.903251828E+01  0.102505929E+01 -0.249283115E+00
     4
 # iter = 31000  time[fs]=31.00000
   C -0.172233099E+01 -0.383910051E-01 -0.584872183E-01
   C  0.165477108E+01 -0.602417394E-01  0.255167507E-01
   H -0.948145462E+01 -0.107310459E+01  0.898375200E+00
   H  0.938844729E+01  0.106620331E+01 -0.260258119E+00
     4
 # iter = 31500  time[fs]=31.50000
   C -0.179259622E+01 -0.377685425E-01 -0.611521898E-01
   C  0.172093849E+01 -0.637126898E-01  0.269778481E-01
   H -0.985432810E+01 -0.111463257E+01  0.934716178E+00
   H  0.974635601E+01  0.110760740E+01 -0.271298347E+00
     4
 # iter = 32000  time[fs]=32.00000
   C -0.186391883E+01 -0.371310261E-01 -0.638542534E-01
   C  0.178815134E+01 -0.672022800E-01  0.284663985E-01
   H -0.102288955E+02 -0.115635917E+01  0.971233662E+00
   H  0.101061019E+02  0.114925313E+01 -0.282399413E+00
     4
 # iter = 32500  time[fs]=32.50000
   C -0.193621996E+01 -0.364786695E-01 -0.665908893E-01
   C  0.185633134E+01 -0.707100910E-01  0.299805861E-01
   H -0.106050354E+02 -0.119827029E+01  0.100791524E+01
   H  0.104675568E+02  0.119112395E+01 -0.293557351E+00
     4
 # iter = 33000  time[fs]=33.00000
   C -0.200942827E+01 -0.358117608E-01 -0.693598022E-01
   C  0.192540769E+01 -0.742356457E-01  0.315187467E-01
   H -0.109826387E+02 -0.124035326E+01  0.104474974E+01
   H  0.108306051E+02  0.123320490E+01 -0.304768561E+00
     4
 # iter = 33500  time[fs]=33.50000
   C -0.208347916E+01 -0.351306414E-01 -0.721588983E-01
   C  0.199531629E+01 -0.777784277E-01  0.330793541E-01
   H -0.113616070E+02 -0.128259662E+01  0.108172708E+01
   H  0.111951423E+02  0.127548246E+01 -0.316029771E+00
     4
 # iter = 34000  time[fs]=34.00000
   C -0.215831399E+01 -0.344356894E-01 -0.749862640E-01
   C  0.206599900E+01 -0.813378975E-01  0.346610075E-01
   H -0.117418511E+02 -0.132499003E+01  0.111883811E+01
   H  0.115610733E+02  0.131794433E+01 -0.327337992E+00
     4
 # iter = 34500  time[fs]=34.50000
   C -0.223387947E+01 -0.337273065E-01 -0.778401482E-01
   C  0.213740298E+01 -0.849135033E-01  0.362624201E-01
   H -0.121232902E+02 -0.136752408E+01  0.115607453E+01
   H  0.119283118E+02  0.136057930E+01 -0.338690493E+00
     4
 # iter = 35000  time[fs]=35.00000
   C -0.231012710E+01 -0.330059087E-01 -0.807189458E-01
   C  0.220948016E+01 -0.885046906E-01  0.378824085E-01
   H -0.125058506E+02 -0.141019023E+01  0.119342877E+01
   H  0.122967791E+02  0.140337716E+01 -0.350084769E+00
     4
 # iter = 35500  time[fs]=35.50000
   C -0.238701265E+01 -0.322719177E-01 -0.836211827E-01
   C  0.228218672E+01 -0.921109085E-01  0.395198830E-01
   H -0.128894653E+02 -0.145298064E+01  0.123089393E+01
   H  0.126664030E+02  0.144632855E+01 -0.361518520E+00
     4
 # iter = 36000  time[fs]=36.00000
   C -0.246449569E+01 -0.315257562E-01 -0.865455038E-01
   C  0.235548262E+01 -0.957316146E-01  0.411738392E-01
   H -0.132740727E+02 -0.149588818E+01  0.126846368E+01
   H  0.130371175E+02  0.148942486E+01 -0.372989625E+00
     4
 # iter = 36500  time[fs]=36.50000
   C -0.254253927E+01 -0.307678425E-01 -0.894906606E-01
   C  0.242933126E+01 -0.993662788E-01  0.428433499E-01
   H -0.136596165E+02 -0.153890628E+01  0.130613220E+01
   H  0.134088619E+02  0.153265822E+01 -0.384496129E+00
     4
 # iter = 37000  time[fs]=37.00000
   C -0.262110946E+01 -0.299985882E-01 -0.924555013E-01
   C  0.250369908E+01 -0.103014385E+00  0.445275582E-01
   H -0.140460449E+02 -0.158202892E+01  0.134389414E+01
   H  0.137815803E+02  0.157602132E+01 -0.396036223E+00
     4
 # iter = 37500  time[fs]=37.50000
   C -0.270017516E+01 -0.292183951E-01 -0.954389619E-01
   C  0.257855528E+01 -0.106675436E+00  0.462256713E-01
   H -0.144333103E+02 -0.162525052E+01  0.138174458E+01
   H  0.141552211E+02  0.161950746E+01 -0.407608231E+00
     4
 # iter = 38000  time[fs]=38.00000
   C -0.277970772E+01 -0.284276540E-01 -0.984400575E-01
   C  0.265387151E+01 -0.110348947E+00  0.479369543E-01
   H -0.148213687E+02 -0.166856597E+01  0.141967896E+01
   H  0.145297368E+02  0.166311040E+01 -0.419210599E+00
     4
 # iter = 38500  time[fs]=38.50000
   C -0.285968077E+01 -0.276267436E-01 -0.101457876E+00
   C  0.272962171E+01 -0.114034457E+00  0.496607256E-01
   H -0.152101793E+02 -0.171197050E+01  0.145769306E+01
   H  0.149050831E+02  0.170682437E+01 -0.430841880E+00
     4
 # iter = 39000  time[fs]=39.00000
   C -0.294006997E+01 -0.268160293E-01 -0.104491569E+00
   C  0.280578178E+01 -0.117731520E+00  0.513963518E-01
   H -0.155997044E+02 -0.175545973E+01  0.149578298E+01
   H  0.152812192E+02  0.175064402E+01 -0.442500730E+00
     4
 # iter = 39500  time[fs]=39.50000
   C -0.302085281E+01 -0.259958634E-01 -0.107540351E+00
   C  0.288232950E+01 -0.121439709E+00  0.531432438E-01
   H -0.159899092E+02 -0.179902955E+01  0.153394508E+01
   H  0.156581069E+02  0.179456436E+01 -0.454185891E+00
     4
 # iter = 40000  time[fs]=40.00000
   C -0.310200848E+01 -0.251665845E-01 -0.110603487E+00
   C  0.295924427E+01 -0.125158615E+00  0.549008529E-01
   H -0.163807609E+02 -0.184267617E+01  0.157217597E+01
   H  0.160357108E+02  0.183858075E+01 -0.465896191E+00
     4
 # iter = 40500  time[fs]=40.50000
   C -0.318351766E+01 -0.243285179E-01 -0.113680297E+00
   C  0.303650702E+01 -0.128887847E+00  0.566686674E-01
   H -0.167722294E+02 -0.188639605E+01  0.161047251E+01
   H  0.164139979E+02  0.188268885E+01 -0.477630532E+00
     4
 # iter = 41000  time[fs]=41.00000
   C -0.326536242E+01 -0.234819754E-01 -0.116770141E+00
   C  0.311410003E+01 -0.132627030E+00  0.584462096E-01
   H -0.171642864E+02 -0.193018587E+01  0.164883175E+01
   H  0.167929373E+02  0.192688461E+01 -0.489387888E+00
     4
 # iter = 41500  time[fs]=41.50000
   C -0.334752611E+01 -0.226272560E-01 -0.119872425E+00
   C  0.319200684E+01 -0.136375808E+00  0.602330328E-01
   H -0.175569055E+02 -0.197404255E+01  0.168725094E+01
   H  0.171725003E+02  0.197116423E+01 -0.501167293E+00
     4
 # iter = 42000  time[fs]=42.00000
   C -0.342999319E+01 -0.217646458E-01 -0.122986590E+00
   C  0.327021213E+01 -0.140133838E+00  0.620287191E-01
   H -0.179500620E+02 -0.201796320E+01  0.172572751E+01
   H  0.175526598E+02  0.201552416E+01 -0.512967843E+00
     4
 # iter = 42500  time[fs]=42.50000
   C -0.351274920E+01 -0.208944188E-01 -0.126112117E+00
   C  0.334870161E+01 -0.143900795E+00  0.638328768E-01
   H -0.183437329E+02 -0.206194510E+01  0.176425903E+01
   H  0.179333905E+02  0.205996107E+01 -0.524788685E+00
     4
 # iter = 43000  time[fs]=43.00000
   C -0.359578064E+01 -0.200168369E-01 -0.129248513E+00
   C  0.342746195E+01 -0.147676367E+00  0.656451385E-01
   H -0.187378965E+02 -0.210598572E+01  0.180284324E+01
   H  0.183146687E+02  0.210447182E+01 -0.536629018E+00
     4
 # iter = 43500  time[fs]=43.50000
   C -0.367907488E+01 -0.191321509E-01 -0.132395321E+00
   C  0.350648069E+01 -0.151460258E+00  0.674651593E-01
   H -0.191325323E+02 -0.215008265E+01  0.184147802E+01
   H  0.186964719E+02  0.214905345E+01 -0.548488086E+00
     4
 # iter = 44000  time[fs]=44.00000
   C -0.376262011E+01 -0.182406006E-01 -0.135552108E+00
   C  0.358574618E+01 -0.155252183E+00  0.692926149E-01
   H -0.195276214E+02 -0.219423366E+01  0.188016134E+01
   H  0.190787793E+02  0.219370320E+01 -0.560365176E+00
     4
 # iter = 44500  time[fs]=44.50000
   C -0.384640525E+01 -0.173424152E-01 -0.138718467E+00
   C  0.366524749E+01 -0.159051870E+00  0.711271999E-01
   H -0.199231455E+02 -0.223843663E+01  0.191889133E+01
   H  0.194615709E+02  0.223841843E+01 -0.572259615E+00
     4
 # iter = 45000  time[fs]=45.00000
   C -0.393041992E+01 -0.164378140E-01 -0.141894015E+00
   C  0.374497437E+01 -0.162859062E+00  0.729686271E-01
   H -0.203190879E+02 -0.228268955E+01  0.195766620E+01
   H  0.198448281E+02  0.228319669E+01 -0.584170765E+00
     4
 # iter = 45500  time[fs]=45.50000
   C -0.401465437E+01 -0.155270067E-01 -0.145078392E+00
   C  0.382491722E+01 -0.166673510E+00  0.748166252E-01
   H -0.207154324E+02 -0.232699055E+01  0.199648426E+01
   H  0.202285333E+02  0.232803562E+01 -0.596098025E+00
     4
 # iter = 46000  time[fs]=46.00000
   C -0.409909943E+01 -0.146101941E-01 -0.148271255E+00
   C  0.390506698E+01 -0.170494978E+00  0.766709385E-01
   H -0.211121640E+02 -0.237133784E+01  0.203534392E+01
   H  0.206126698E+02  0.237293301E+01 -0.608040822E+00
     4
 # iter = 46500  time[fs]=46.50000
   C -0.418374647E+01 -0.136875682E-01 -0.151472284E+00
   C  0.398541516E+01 -0.174323240E+00  0.785313252E-01
   H -0.215092683E+02 -0.241572973E+01  0.207424368E+01
   H  0.209972219E+02  0.241788679E+01 -0.619998615E+00
     4
 # iter = 47000  time[fs]=47.00000
   C -0.426858736E+01 -0.127593127E-01 -0.154681174E+00
   C  0.406595374E+01 -0.178158080E+00  0.803975568E-01
   H -0.219067318E+02 -0.246016464E+01  0.211318211E+01
   H  0.213821745E+02  0.246289495E+01 -0.631970889E+00
     4
 # iter = 47500  time[fs]=47.50000
   C -0.435361442E+01 -0.118256035E-01 -0.157897635E+00
   C  0.414667516E+01 -0.181999290E+00  0.822694170E-01
   H -0.223045417E+02 -0.250464105E+01  0.215215785E+01
   H  0.217675136E+02  0.250795562E+01 -0.643957158E+00
     4
 # iter = 48000  time[fs]=48.00000
   C -0.443882043E+01 -0.108866091E-01 -0.161121396E+00
   C  0.422757229E+01 -0.185846674E+00  0.841467008E-01
   H -0.227026858E+02 -0.254915751E+01  0.219116964E+01
   H  0.221532257E+02  0.255306700E+01 -0.655956956E+00
     4
 # iter = 48500  time[fs]=48.50000
   C -0.452419855E+01 -0.994249082E-02 -0.164352197E+00
   C  0.430863839E+01 -0.189700042E+00  0.860292140E-01
   H -0.231011526E+02 -0.259371268E+01  0.223021623E+01
   H  0.225392981E+02  0.259822741E+01 -0.667969841E+00
     4
 # iter = 49000  time[fs]=49.00000
   C -0.460974230E+01 -0.899340334E-02 -0.167589792E+00
   C  0.438986710E+01 -0.193559212E+00  0.879167724E-01
   H -0.234999312E+02 -0.263830526E+01  0.226929648E+01
   H  0.229257186E+02  0.264343522E+01 -0.679995393E+00
     4
 # iter = 49500  time[fs]=49.50000
   C -0.469544556E+01 -0.803949481E-02 -0.170833948E+00
   C  0.447125237E+01 -0.197424011E+00  0.898092008E-01
   H -0.238990111E+02 -0.268293401E+01  0.230840929E+01
   H  0.233124758E+02  0.268868890E+01 -0.692033211E+00
     4
 # iter = 50000  time[fs]=50.00000
   C -0.478130253E+01 -0.708090736E-02 -0.174084442E+00
   C  0.455278851E+01 -0.201294272E+00  0.917063330E-01
   H -0.242983824E+02 -0.272759776E+01  0.234755360E+01
   H  0.236995586E+02  0.273398698E+01 -0.704082912E+00
     4
 # iter = 50500  time[fs]=50.50000
   C -0.486730772E+01 -0.611777726E-02 -0.177341065E+00
   C  0.463447009E+01 -0.205169835E+00  0.936080107E-01
   H -0.246980358E+02 -0.277229541E+01  0.238672842E+01
   H  0.240869566E+02  0.277932806E+01 -0.716144132E+00
     4
 # iter = 51000  time[fs]=51.00000
   C -0.495345589E+01 -0.515023532E-02 -0.180603614E+00
   C  0.471629197E+01 -0.209050548E+00  0.955140835E-01
   H -0.250979621E+02 -0.281702587E+01  0.242593279E+01
   H  0.244746600E+02  0.282471082E+01 -0.728216521E+00
     4
 # iter = 51500  time[fs]=51.50000
   C -0.503974210E+01 -0.417840708E-02 -0.183871899E+00
   C  0.479824927E+01 -0.212936263E+00  0.974244078E-01
   H -0.254981529E+02 -0.286178814E+01  0.246516580E+01
   H  0.248626590E+02  0.287013398E+01 -0.740299748E+00
     4
 # iter = 52000  time[fs]=52.00000
   C -0.512616163E+01 -0.320241308E-02 -0.187145736E+00
   C  0.488033737E+01 -0.216826840E+00  0.993388472E-01
   H -0.258986000E+02 -0.290658125E+01  0.250442658E+01
   H  0.252509448E+02  0.291559633E+01 -0.752393493E+00
     4
 # iter = 52500  time[fs]=52.50000
   C -0.521271000E+01 -0.222236914E-02 -0.190424953E+00
   C  0.496255184E+01 -0.220722142E+00  0.101257271E+00
   H -0.262992955E+02 -0.295140428E+01  0.254371431E+01
   H  0.256395086E+02  0.296109670E+01 -0.764497451E+00
     4
 # iter = 53000  time[fs]=53.00000
   C -0.529938295E+01 -0.123838654E-02 -0.193709381E+00
   C  0.504488848E+01 -0.224622040E+00  0.103179555E+00
   H -0.267002321E+02 -0.299625633E+01  0.258302819E+01
   H  0.260283421E+02  0.300663398E+01 -0.776611331E+00
     4
 # iter = 53500  time[fs]=53.50000
   C -0.538617640E+01 -0.250572270E-03 -0.196998864E+00
   C  0.512734331E+01 -0.228526409E+00  0.105105581E+00
   H -0.271014025E+02 -0.304113656E+01  0.262236745E+01
   H  0.264174374E+02  0.305220711E+01 -0.788734853E+00
     4
 # iter = 54000  time[fs]=54.00000
   C -0.547308648E+01  0.740970778E-03 -0.200293249E+00
   C  0.520991251E+01 -0.232435129E+00  0.107035235E+00
   H -0.275028000E+02 -0.308604416E+01  0.266173138E+01
   H  0.268067870E+02  0.309781508E+01 -0.800867749E+00
     4
 # iter = 54500  time[fs]=54.50000
   C -0.556010950E+01  0.173614362E-02 -0.203592390E+00
   C  0.529259243E+01 -0.236348084E+00  0.108968407E+00
   H -0.279044180E+02 -0.313097835E+01  0.270111928E+01
   H  0.271963836E+02  0.314345689E+01 -0.813009762E+00
     4
 # iter = 55000  time[fs]=55.00000
   C -0.564724194E+01  0.273485097E-02 -0.206896149E+00
   C  0.537537963E+01 -0.240265162E+00  0.110904996E+00
   H -0.283062503E+02 -0.317593840E+01  0.274053047E+01
   H  0.275862202E+02  0.318913163E+01 -0.825160645E+00
     4
 # iter = 55500  time[fs]=55.50000
   C -0.573448041E+01  0.373700112E-02 -0.210204393E+00
   C  0.545827077E+01 -0.244186256E+00  0.112844900E+00
   H -0.287082909E+02 -0.322092358E+01  0.277996433E+01
   H  0.279762901E+02  0.323483839E+01 -0.837320161E+00
     4
 # iter = 56000  time[fs]=56.00000
   C -0.582182170E+01  0.474250571E-02 -0.213516995E+00
   C  0.554126269E+01 -0.248111264E+00  0.114788025E+00
   H -0.291105339E+02 -0.326593321E+01  0.281942023E+01
   H  0.283665870E+02  0.328057631E+01 -0.849488081E+00
     4
 # iter = 56500  time[fs]=56.50000
   C -0.590926273E+01  0.575127962E-02 -0.216833832E+00
   C  0.562435238E+01 -0.252040086E+00  0.116734280E+00
   H -0.295129740E+02 -0.331096664E+01  0.285889758E+01
   H  0.287571047E+02  0.332634456E+01 -0.861664189E+00
     4
 # iter = 57000  time[fs]=57.00000
   C -0.599680056E+01  0.676324079E-02 -0.220154786E+00
   C  0.570753692E+01 -0.255972627E+00  0.118683577E+00
   H -0.299156058E+02 -0.335602323E+01  0.289839582E+01
   H  0.291478372E+02  0.337214234E+01 -0.873848272E+00
     4
 # iter = 57500  time[fs]=57.50000
   C -0.608443235E+01  0.777831012E-02 -0.223479746E+00
   C  0.579081355E+01 -0.259908793E+00  0.120635831E+00
   H -0.303184242E+02 -0.340110237E+01  0.293791440E+01
   H  0.295387791E+02  0.341796889E+01 -0.886040129E+00
     4
 # iter = 58000  time[fs]=58.00000
   C -0.617215542E+01  0.879641130E-02 -0.226808603E+00
   C  0.587417961E+01 -0.263848496E+00  0.122590963E+00
   H -0.307214243E+02 -0.344620349E+01  0.297745280E+01
   H  0.299299247E+02  0.346382348E+01 -0.898239564E+00
     4
 # iter = 58500  time[fs]=58.50000
   C -0.625996716E+01  0.981747069E-02 -0.230141254E+00
   C  0.595763255E+01 -0.267791650E+00  0.124548895E+00
   H -0.311246014E+02 -0.349132603E+01  0.301701052E+01
   H  0.303212688E+02  0.350970539E+01 -0.910446390E+00
     4
 # iter = 59000  time[fs]=59.00000
   C -0.634786509E+01  0.108414172E-01 -0.233477599E+00
   C  0.604116994E+01 -0.271738172E+00  0.126509552E+00
   H -0.315279510E+02 -0.353646943E+01  0.305658706E+01
   H  0.307128064E+02  0.355561394E+01 -0.922660425E+00
     4
 # iter = 59500  time[fs]=59.50000
   C -0.643584683E+01  0.118681823E-01 -0.236817542E+00
   C  0.612478942E+01 -0.275687982E+00  0.128472863E+00
   H -0.319314688E+02 -0.358163319E+01  0.309618197E+01
   H  0.311045327E+02  0.360154849E+01 -0.934881495E+00
     4
 # iter = 60000  time[fs]=60.00000
   C -0.652391010E+01  0.128976996E-01 -0.240160990E+00
   C  0.620848876E+01 -0.279641003E+00  0.130438760E+00
   H -0.323351505E+02 -0.362681680E+01  0.313579479E+01
   H  0.314964430E+02  0.364750838E+01 -0.947109433E+00
     4
 # iter = 60500  time[fs]=60.50000
   C -0.661205268E+01  0.139299050E-01 -0.243507855E+00
   C  0.629226579E+01 -0.283597159E+00  0.132407175E+00
   H -0.327389922E+02 -0.367201978E+01  0.317542509E+01
   H  0.318885326E+02  0.369349302E+01 -0.959344075E+00
     4
 # iter = 61000  time[fs]=61.00000
   C -0.670027246E+01  0.149647368E-01 -0.246858051E+00
   C  0.637611843E+01 -0.287556380E+00  0.134378045E+00
   H -0.331429898E+02 -0.371724166E+01  0.321507245E+01
   H  0.322807974E+02  0.373950181E+01 -0.971585265E+00
     4
 # iter = 61500  time[fs]=61.50000
   C -0.678856742E+01  0.160021350E-01 -0.250211495E+00
   C  0.646004469E+01 -0.291518594E+00  0.136351309E+00
   H -0.335471397E+02 -0.376248200E+01  0.325473646E+01
   H  0.326732332E+02  0.378553419E+01 -0.983832852E+00
     4
 # iter = 62000  time[fs]=62.00000
   C -0.687693561E+01  0.170420417E-01 -0.253568109E+00
   C  0.654404266E+01 -0.295483735E+00  0.138326908E+00
   H -0.339514382E+02 -0.380774036E+01  0.329441674E+01
   H  0.330658357E+02  0.383158961E+01 -0.996086690E+00
     4
 # iter = 62500  time[fs]=62.50000
   C -0.696537513E+01  0.180844009E-01 -0.256927816E+00
   C  0.662811048E+01 -0.299451738E+00  0.140304784E+00
   H -0.343558819E+02 -0.385301632E+01  0.333411292E+01
   H  0.334586013E+02  0.387766753E+01 -0.100834664E+01
     4
 # iter = 63000  time[fs]=63.00000
   C -0.705388418E+01  0.191291585E-01 -0.260290541E+00
   C  0.671224637E+01 -0.303422538E+00  0.142284883E+00
   H -0.347604674E+02 -0.389830949E+01  0.337382462E+01
   H  0.338515260E+02  0.392376745E+01 -0.102061256E+01
     4
 # iter = 63500  time[fs]=63.50000
   C -0.714246102E+01  0.201762620E-01 -0.263656214E+00
   C  0.679644863E+01 -0.307396075E+00  0.144267151E+00
   H -0.351651913E+02 -0.394361946E+01  0.341355149E+01
   H  0.342446063E+02  0.396988887E+01 -0.103288432E+01
     4
 # iter = 64000  time[fs]=64.00000
   C -0.723110396E+01  0.212256604E-01 -0.267024765E+00
   C  0.688071561E+01 -0.311372290E+00  0.146251537E+00
   H -0.355700506E+02 -0.398894586E+01  0.345329321E+01
   H  0.346378387E+02  0.401603131E+01 -0.104516179E+01
     4
 # iter = 64500  time[fs]=64.50000
   C -0.731981139E+01  0.222773047E-01 -0.270396128E+00
   C  0.696504571E+01 -0.315351125E+00  0.148237992E+00
   H -0.359750423E+02 -0.403428833E+01  0.349304943E+01
   H  0.350312196E+02  0.406219431E+01 -0.105744486E+01
     4
 # iter = 65000  time[fs]=65.00000
   C -0.740858173E+01  0.233311472E-01 -0.273770239E+00
   C  0.704943740E+01 -0.319332524E+00  0.150226468E+00
   H -0.363801633E+02 -0.407964652E+01  0.353281984E+01
   H  0.354247460E+02  0.410837743E+01 -0.106973339E+01
     4
 # iter = 65500  time[fs]=65.50000
   C -0.749741349E+01  0.243871415E-01 -0.277147035E+00
   C  0.713388920E+01 -0.323316435E+00  0.152216919E+00
   H -0.367854108E+02 -0.412502007E+01  0.357260414E+01
   H  0.358184144E+02  0.415458022E+01 -0.108202728E+01
     4
 # iter = 66000  time[fs]=66.00000
   C -0.758630521E+01  0.254452429E-01 -0.280526457E+00
   C  0.721839968E+01 -0.327302804E+00  0.154209300E+00
   H -0.371907821E+02 -0.417040867E+01  0.361240202E+01
   H  0.362122220E+02  0.420080228E+01 -0.109432641E+01
     4
 # iter = 66500  time[fs]=66.50000
   C -0.767525548E+01  0.265054079E-01 -0.283908446E+00
   C  0.730296747E+01 -0.331291580E+00  0.156203568E+00
   H -0.375962745E+02 -0.421581200E+01  0.365221320E+01
   H  0.366061656E+02  0.424704318E+01 -0.110663067E+01
     4
 # iter = 67000  time[fs]=67.00000
   C -0.776426295E+01  0.275675944E-01 -0.287292947E+00
   C  0.738759123E+01 -0.335282716E+00  0.158199681E+00
   H -0.380018855E+02 -0.426122973E+01  0.369203740E+01
   H  0.370002425E+02  0.429330255E+01 -0.111893996E+01
     4
 # iter = 67500  time[fs]=67.50000
   C -0.785332631E+01  0.286317613E-01 -0.290679905E+00
   C  0.747226968E+01 -0.339276162E+00  0.160197599E+00
   H -0.384076124E+02 -0.430666158E+01  0.373187435E+01
   H  0.373944498E+02  0.433958000E+01 -0.113125417E+01
     4
 # iter = 68000  time[fs]=68.00000
   C -0.794244428E+01  0.296978691E-01 -0.294069266E+00
   C  0.755700157E+01 -0.343271874E+00  0.162197283E+00
   H -0.388134530E+02 -0.435210725E+01  0.377172379E+01
   H  0.377887847E+02  0.438587515E+01 -0.114357322E+01
     4
 # iter = 68500  time[fs]=68.50000
   C -0.803161564E+01  0.307658792E-01 -0.297460981E+00
   C  0.764178570E+01 -0.347269804E+00  0.164198695E+00
   H -0.392194048E+02 -0.439756646E+01  0.381158546E+01
   H  0.381832448E+02  0.443218765E+01 -0.115589699E+01
     4
 # iter = 69000  time[fs]=69.00000
   C -0.812083920E+01  0.318357541E-01 -0.300855000E+00
   C  0.772662090E+01 -0.351269912E+00  0.166201798E+00
   H -0.396254656E+02 -0.444303893E+01  0.385145911E+01
   H  0.385778273E+02  0.447851716E+01 -0.116822540E+01
     4
 # iter = 69500  time[fs]=69.50000
   C -0.821011383E+01  0.329074574E-01 -0.304251274E+00
   C  0.781150606E+01 -0.355272152E+00  0.168206557E+00
   H -0.400316332E+02 -0.448852440E+01  0.389134451E+01
   H  0.389725299E+02  0.452486332E+01 -0.118055835E+01
     4
 # iter = 70000  time[fs]=70.00000
   C -0.829943840E+01  0.339809539E-01 -0.307649758E+00
   C  0.789644007E+01 -0.359276486E+00  0.170212937E+00
   H -0.404379054E+02 -0.453402262E+01  0.393124143E+01
   H  0.393673502E+02  0.457122583E+01 -0.119289576E+01
     4
 # iter = 70500  time[fs]=70.50000
   C -0.838881184E+01  0.350562091E-01 -0.311050406E+00
   C  0.798142190E+01 -0.363282872E+00  0.172220905E+00
   H -0.408442801E+02 -0.457953333E+01  0.397114964E+01
   H  0.397622857E+02  0.461760435E+01 -0.120523754E+01
     4
 # iter = 71000  time[fs]=71.00000
   C -0.847823311E+01  0.361331897E-01 -0.314453175E+00
   C  0.806645051E+01 -0.367291272E+00  0.174230428E+00
   H -0.412507554E+02 -0.462505628E+01  0.401106892E+01
   H  0.401573343E+02  0.466399858E+01 -0.121758362E+01
     4
 # iter = 71500  time[fs]=71.50000
   C -0.856770120E+01  0.372118633E-01 -0.317858022E+00
   C  0.815152491E+01 -0.371301647E+00  0.176241475E+00
   H -0.416573292E+02 -0.467059125E+01  0.405099905E+01
   H  0.405524938E+02  0.471040822E+01 -0.122993390E+01
     4
 # iter = 72000  time[fs]=72.00000
   C -0.865721513E+01  0.382921982E-01 -0.321264906E+00
   C  0.823664416E+01 -0.375313962E+00  0.178254017E+00
   H -0.420639998E+02 -0.471613801E+01  0.409093984E+01
   H  0.409477620E+02  0.475683297E+01 -0.124228831E+01
     4
 # iter = 72500  time[fs]=72.50000
   C -0.874677395E+01  0.393741637E-01 -0.324673788E+00
   C  0.832180730E+01 -0.379328180E+00  0.180268022E+00
   H -0.424707651E+02 -0.476169632E+01  0.413089108E+01
   H  0.413431369E+02  0.480327256E+01 -0.125464677E+01
     4
 # iter = 73000  time[fs]=73.00000
   C -0.883637675E+01  0.404577301E-01 -0.328084628E+00
   C  0.840701346E+01 -0.383344266E+00  0.182283462E+00
   H -0.428776235E+02 -0.480726599E+01  0.417085258E+01
   H  0.417386164E+02  0.484972670E+01 -0.126700922E+01
     4
 # iter = 73500  time[fs]=73.50000
   C -0.892602263E+01  0.415428681E-01 -0.331497388E+00
   C  0.849226174E+01 -0.387362186E+00  0.184300310E+00
   H -0.432845731E+02 -0.485284678E+01  0.421082414E+01
   H  0.421341986E+02  0.489619514E+01 -0.127937557E+01
     4
 # iter = 74000  time[fs]=74.00000
   C -0.901571072E+01  0.426295495E-01 -0.334912032E+00
   C  0.857755130E+01 -0.391381909E+00  0.186318538E+00
   H -0.436916123E+02 -0.489843851E+01  0.425080558E+01
   H  0.425298816E+02  0.494267760E+01 -0.129174575E+01
     4
 # iter = 74500  time[fs]=74.50000
   C -0.910544019E+01  0.437177467E-01 -0.338328525E+00
   C  0.866288132E+01 -0.395403400E+00  0.188338120E+00
   H -0.440987394E+02 -0.494404096E+01  0.429079673E+01
   H  0.429256635E+02  0.498917383E+01 -0.130411971E+01
     4
 # iter = 75000  time[fs]=75.00000
   C -0.919521021E+01  0.448074329E-01 -0.341746832E+00
   C  0.874825100E+01 -0.399426630E+00  0.190359030E+00
   H -0.445059529E+02 -0.498965396E+01  0.433079740E+01
   H  0.433215426E+02  0.503568359E+01 -0.131649736E+01
     4
 # iter = 75500  time[fs]=75.50000
   C -0.928502000E+01  0.458985819E-01 -0.345166919E+00
   C  0.883365956E+01 -0.403451567E+00  0.192381244E+00
   H -0.449132511E+02 -0.503527730E+01  0.437080744E+01
   H  0.437175170E+02  0.508220663E+01 -0.132887865E+01
     4
 # iter = 76000  time[fs]=76.00000
   C -0.937486878E+01  0.469911683E-01 -0.348588753E+00
   C  0.891910624E+01 -0.407478183E+00  0.194404736E+00
   H -0.453206326E+02 -0.508091081E+01  0.441082666E+01
   H  0.441135851E+02  0.512874273E+01 -0.134126352E+01
     4
 # iter = 76500  time[fs]=76.50000
   C -0.946475582E+01  0.480851671E-01 -0.352012303E+00
   C  0.900459032E+01 -0.411506447E+00  0.196429485E+00
   H -0.457280958E+02 -0.512655430E+01  0.445085491E+01
   H  0.445097452E+02  0.517529165E+01 -0.135365190E+01
     4
 # iter = 77000  time[fs]=77.00000
   C -0.955468037E+01  0.491805543E-01 -0.355437537E+00
   C  0.909011108E+01 -0.415536332E+00  0.198455466E+00
   H -0.461356393E+02 -0.517220760E+01  0.449089204E+01
   H  0.449059957E+02  0.522185318E+01 -0.136604373E+01
     4
 # iter = 77500  time[fs]=77.50000
   C -0.964464174E+01  0.502773061E-01 -0.358864426E+00
   C  0.917566782E+01 -0.419567810E+00  0.200482658E+00
   H -0.465432618E+02 -0.521787055E+01  0.453093789E+01
   H  0.453023350E+02  0.526842708E+01 -0.137843895E+01
     4
 # iter = 78000  time[fs]=78.00000
   C -0.973463923E+01  0.513753997E-01 -0.362292940E+00
   C  0.926125988E+01 -0.423600855E+00  0.202511038E+00
   H -0.469509617E+02 -0.526354298E+01  0.457099231E+01
   H  0.456987616E+02  0.531501317E+01 -0.139083750E+01
     4
 # iter = 78500  time[fs]=78.50000
   C -0.982467218E+01  0.524748126E-01 -0.365723050E+00
   C  0.934688660E+01 -0.427635440E+00  0.204540587E+00
   H -0.473587379E+02 -0.530922472E+01  0.461105516E+01
   H  0.460952740E+02  0.536161122E+01 -0.140323934E+01
     4
 # iter = 79000  time[fs]=79.00000
   C -0.991473993E+01  0.535755228E-01 -0.369154729E+00
   C  0.943254734E+01 -0.431671540E+00  0.206571282E+00
   H -0.477665890E+02 -0.535491561E+01  0.465112629E+01
   H  0.464918707E+02  0.540822103E+01 -0.141564441E+01
     4
 # iter = 79500  time[fs]=79.50000
   C -0.100048419E+02  0.546775091E-01 -0.372587950E+00
   C  0.951824149E+01 -0.435709129E+00  0.208603104E+00
   H -0.481745138E+02 -0.540061552E+01  0.469120556E+01
   H  0.468885503E+02  0.545484242E+01 -0.142805265E+01
     4
 # iter = 80000  time[fs]=80.00000
   C -0.100949773E+02  0.557807505E-01 -0.376022685E+00
   C  0.960396843E+01 -0.439748185E+00  0.210636033E+00
   H -0.485825109E+02 -0.544632428E+01  0.473129285E+01
   H  0.472853114E+02  0.550147519E+01 -0.144046400E+01
