     4
 # iter = 25000  time[fs]=25.00000
   C -0.962029942E+00 -0.328464445E-01 -0.189052908E-02
   C  0.998473464E+00  0.219666188E-01  0.569496731E-02
   H -0.515926707E+01 -0.366906423E+00  0.455864813E+00
   H  0.525697793E+01  0.338364594E+00 -0.447557896E+00
     4
 # iter = 25500  time[fs]=25.50000
   C -0.100641970E+01 -0.319314471E-01 -0.387882996E-02
   C  0.104203714E+01  0.218960180E-01  0.708626598E-02
   H -0.549132588E+01 -0.387547388E+00  0.483075152E+00
   H  0.557401252E+01  0.360919834E+00 -0.478046396E+00
     4
 # iter = 26000  time[fs]=26.00000
   C -0.105385893E+01 -0.310861036E-01 -0.590537407E-02
   C  0.108863860E+01  0.218956389E-01  0.851717821E-02
   H -0.582891444E+01 -0.408593020E+00  0.510814128E+00
   H  0.589671710E+01  0.383872928E+00 -0.509079978E+00
     4
 # iter = 26500  time[fs]=26.50000
   C -0.110409304E+01 -0.303005495E-01 -0.796997192E-02
   C  0.113802241E+01  0.219551398E-01  0.998791286E-02
   H -0.617140156E+01 -0.429995479E+00  0.539019488E+00
   H  0.622447062E+01  0.407181761E+00 -0.540601168E+00
     4
 # iter = 27000  time[fs]=27.00000
   C -0.115688427E+01 -0.295662329E-01 -0.100720833E-01
   C  0.118995044E+01  0.220656304E-01  0.114981804E-01
   H -0.651825269E+01 -0.451714591E+00  0.567638991E+00
   H  0.655674294E+01  0.430810220E+00 -0.572560731E+00
     4
 # iter = 27500  time[fs]=27.50000
   C -0.121201299E+01 -0.288758016E-01 -0.122108742E-01
   C  0.124420301E+01  0.222195198E-01  0.130472943E-01
   H -0.686901200E+01 -0.473716353E+00  0.596628430E+00
   H  0.689307884E+01  0.454727169E+00 -0.604916235E+00
     4
 # iter = 28000  time[fs]=28.00000
   C -0.126927806E+01 -0.282229704E-01 -0.143852822E-01
   C  0.130057915E+01  0.224103559E-01  0.146342681E-01
   H -0.722328831E+01 -0.495971770E+00  0.625950112E+00
   H  0.723308516E+01  0.478905612E+00 -0.637630896E+00
     4
 # iter = 28500  time[fs]=28.50000
   C -0.132849632E+01 -0.276023850E-01 -0.165940798E-01
   C  0.135889599E+01  0.226326707E-01  0.162579001E-01
   H -0.758074385E+01 -0.518455945E+00  0.655571667E+00
   H  0.757642053E+01  0.503322019E+00 -0.670672651E+00
     4
 # iter = 29000  time[fs]=29.00000
   C -0.138950173E+01 -0.270094938E-01 -0.188359307E-01
   C  0.141898789E+01  0.228818367E-01  0.179168448E-01
   H -0.794108534E+01 -0.541147363E+00  0.685465112E+00
   H  0.792278697E+01  0.527955783E+00 -0.704013411E+00
     4
 # iter = 29500  time[fs]=29.50000
   C -0.145214414E+01 -0.264404298E-01 -0.211094360E-01
   C  0.148070513E+01  0.231539401E-01  0.196096707E-01
   H -0.830405674E+01 -0.564027322E+00  0.715606111E+00
   H  0.827192314E+01  0.552788768E+00 -0.737628443E+00
     4
 # iter = 30000  time[fs]=30.00000
   C -0.151628805E+01 -0.258919076E-01 -0.234131717E-01
   C  0.154391269E+01  0.234456689E-01  0.213349046E-01
   H -0.866943338E+01 -0.587079472E+00  0.745973379E+00
   H  0.862359877E+01  0.577804940E+00 -0.771495878E+00
     4
 # iter = 30500  time[fs]=30.50000
   C -0.158181126E+01 -0.253611331E-01 -0.257457165E-01
   C  0.160848885E+01  0.237542178E-01  0.230910657E-01
   H -0.903701725E+01 -0.610289448E+00  0.776548203E+00
   H  0.897761006E+01  0.602990070E+00 -0.805596286E+00
     4
 # iter = 31000  time[fs]=31.00000
   C -0.164860362E+01 -0.248457269E-01 -0.281056733E-01
   C  0.167432393E+01  0.240772074E-01  0.248766910E-01
   H -0.940663299E+01 -0.633644567E+00  0.807314051E+00
   H  0.933377594E+01  0.628331473E+00 -0.839912343E+00
     4
 # iter = 31500  time[fs]=31.50000
   C -0.171656578E+01 -0.243436587E-01 -0.304916844E-01
   C  0.174131906E+01  0.244126157E-01  0.266903529E-01
   H -0.977812469E+01 -0.657133578E+00  0.838256251E+00
   H  0.969193487E+01  0.653817801E+00 -0.874428541E+00
     4
 # iter = 32000  time[fs]=32.00000
   C -0.178560809E+01 -0.238531928E-01 -0.329024413E-01
   C  0.180938503E+01  0.247587208E-01  0.285306715E-01
   H -0.101513532E+02 -0.680746463E+00  0.869361726E+00
   H  0.100519422E+02  0.679438869E+00 -0.909130944E+00
     4
 # iter = 32500  time[fs]=32.50000
   C -0.185564957E+01 -0.233728418E-01 -0.353366917E-01
   C  0.187844130E+01  0.251140535E-01  0.303963229E-01
   H -0.105261938E+02 -0.704474263E+00  0.900618775E+00
   H  0.104136681E+02  0.705185498E+00 -0.944006994E+00
     4
 # iter = 33000  time[fs]=33.00000
   C -0.192661696E+01 -0.229013278E-01 -0.377932427E-01
   C  0.194841504E+01  0.254773569E-01  0.322860435E-01
   H -0.109025345E+02 -0.728308936E+00  0.932016890E+00
   H  0.107769954E+02  0.731049397E+00 -0.979045332E+00
     4
 # iter = 33500  time[fs]=33.50000
   C -0.199844393E+01 -0.224375503E-01 -0.402709630E-01
   C  0.201924031E+01  0.258475535E-01  0.341986326E-01
   H -0.112802741E+02 -0.752243241E+00  0.963546600E+00
   H  0.111418182E+02  0.757023047E+00 -0.101423566E+01
     4
 # iter = 34000  time[fs]=34.00000
   C -0.207107031E+01 -0.219805591E-01 -0.427687825E-01
   C  0.209085732E+01  0.262237170E-01  0.361329528E-01
   H -0.116593211E+02 -0.776270634E+00  0.995199341E+00
   H  0.115080404E+02  0.783099618E+00 -0.104956859E+01
     4
 # iter = 34500  time[fs]=34.50000
   C -0.214444144E+01 -0.215295317E-01 -0.452856913E-01
   C  0.216321176E+01  0.266050498E-01  0.380879292E-01
   H -0.120395925E+02 -0.800385185E+00  0.102696735E+01
   H  0.118755749E+02  0.809272880E+00 -0.108503560E+01
     4
 # iter = 35000  time[fs]=35.00000
   C -0.221850755E+01 -0.210837543E-01 -0.478207381E-01
   C  0.223625421E+01  0.269908628E-01  0.400625481E-01
   H -0.124210128E+02 -0.824581500E+00  0.105884355E+01
   H  0.122443419E+02  0.835537144E+00 -0.112062886E+01
     4
 # iter = 35500  time[fs]=35.50000
   C -0.229322330E+01 -0.206426057E-01 -0.503730276E-01
   C  0.230993965E+01  0.273805599E-01  0.420558542E-01
   H -0.128035132E+02 -0.848854666E+00  0.109082151E+01
   H  0.126142688E+02  0.861887196E+00 -0.115634120E+01
     4
 # iter = 36000  time[fs]=36.00000
   C -0.236854728E+01 -0.202055442E-01 -0.529417182E-01
   C  0.238422696E+01  0.277736237E-01  0.440669484E-01
   H -0.131870304E+02 -0.873200190E+00  0.112289533E+01
   H  0.129852889E+02  0.888318250E+00 -0.119216605E+01
     4
 # iter = 36500  time[fs]=36.50000
   C -0.244444159E+01 -0.197720962E-01 -0.555260187E-01
   C  0.245907853E+01  0.281696048E-01  0.460949850E-01
   H -0.135715067E+02 -0.897613958E+00  0.115505960E+01
   H  0.133573409E+02  0.914825904E+00 -0.122809735E+01
     4
 # iter = 37000  time[fs]=37.00000
   C -0.252087154E+01 -0.193418467E-01 -0.581251859E-01
   C  0.253445994E+01  0.285681115E-01  0.481391684E-01
   H -0.139568891E+02 -0.922092189E+00  0.118730937E+01
   H  0.137303685E+02  0.941406094E+00 -0.126412950E+01
     4
 # iter = 37500  time[fs]=37.50000
   C -0.259780524E+01 -0.189144312E-01 -0.607385217E-01
   C  0.261033956E+01  0.289688022E-01  0.501987508E-01
   H -0.143431286E+02 -0.946631405E+00  0.121964006E+01
   H  0.141043199E+02  0.968055070E+00 -0.130025734E+01
     4
 # iter = 38000  time[fs]=38.00000
   C -0.267521341E+01 -0.184895287E-01 -0.633653698E-01
   C  0.268668833E+01  0.293713779E-01  0.522730287E-01
   H -0.147301801E+02 -0.971228398E+00  0.125204745E+01
   H  0.144791469E+02  0.994769359E+00 -0.133647607E+01
     4
 # iter = 38500  time[fs]=38.50000
   C -0.275306907E+01 -0.180668562E-01 -0.660051138E-01
   C  0.276347951E+01  0.297755770E-01  0.543613405E-01
   H -0.151180019E+02 -0.995880202E+00  0.128452764E+01
   H  0.148548052E+02  0.102154574E+01 -0.137278126E+01
     4
 # iter = 39000  time[fs]=39.00000
   C -0.283134734E+01 -0.176461634E-01 -0.686571739E-01
   C  0.284068843E+01  0.301811697E-01  0.564630636E-01
   H -0.155065552E+02 -0.102058407E+01  0.131707701E+01
   H  0.152312535E+02  0.104838122E+01 -0.140916878E+01
     4
 # iter = 39500  time[fs]=39.50000
   C -0.291002521E+01 -0.172272289E-01 -0.713210050E-01
   C  0.291829228E+01  0.305879543E-01  0.585776119E-01
   H -0.158958043E+02 -0.104533746E+01  0.134969221E+01
   H  0.156084537E+02  0.107527301E+01 -0.144563477E+01
     4
 # iter = 40000  time[fs]=40.00000
   C -0.298908141E+01 -0.168098560E-01 -0.739960938E-01
   C  0.299626998E+01  0.309957532E-01  0.607044337E-01
   H -0.162857158E+02 -0.107013800E+01  0.138237012E+01
   H  0.159863700E+02  0.110221852E+01 -0.148217566E+01
     4
 # iter = 40500  time[fs]=40.50000
   C -0.306849623E+01 -0.163938700E-01 -0.766819574E-01
   C  0.307460199E+01  0.314044099E-01  0.628430088E-01
   H -0.166762586E+02 -0.109498349E+01  0.141510783E+01
   H  0.163649692E+02  0.112921533E+01 -0.151878810E+01
     4
 # iter = 41000  time[fs]=41.00000
   C -0.314825136E+01 -0.159791152E-01 -0.793781405E-01
   C  0.315327019E+01  0.318137864E-01  0.649928470E-01
   H -0.170674039E+02 -0.111987187E+01  0.144790263E+01
   H  0.167442205E+02  0.115626117E+01 -0.155546895E+01
     4
 # iter = 41500  time[fs]=41.50000
   C -0.322832981E+01 -0.155654530E-01 -0.820842141E-01
   C  0.323225773E+01  0.322237607E-01  0.671534858E-01
   H -0.174591245E+02 -0.114480122E+01  0.148075199E+01
   H  0.171240948E+02  0.118335392E+01 -0.159221527E+01
     4
 # iter = 42000  time[fs]=42.00000
   C -0.330871573E+01 -0.151527594E-01 -0.847997734E-01
   C  0.331154892E+01  0.326342250E-01  0.693244886E-01
   H -0.178513952E+02 -0.116976975E+01  0.151365353E+01
   H  0.175045651E+02  0.121049159E+01 -0.162902433E+01
     4
 # iter = 42500  time[fs]=42.50000
   C -0.338939438E+01 -0.147409236E-01 -0.875244363E-01
   C  0.339112917E+01  0.330450839E-01  0.715054428E-01
   H -0.182441923E+02 -0.119477579E+01  0.154660505E+01
   H  0.178856058E+02  0.123767232E+01 -0.166589353E+01
     4
 # iter = 43000  time[fs]=43.00000
   C -0.347035200E+01 -0.143298462E-01 -0.902578417E-01
   C  0.347098485E+01  0.334562529E-01  0.736959587E-01
   H -0.186374937E+02 -0.121981774E+01  0.157960445E+01
   H  0.182671933E+02  0.126489436E+01 -0.170282044E+01
     4
 # iter = 43500  time[fs]=43.50000
   C -0.355157572E+01 -0.139194383E-01 -0.929996485E-01
   C  0.355110321E+01  0.338676573E-01  0.758956675E-01
   H -0.190312784E+02 -0.124489415E+01  0.161264978E+01
   H  0.186493050E+02  0.129215605E+01 -0.173980279E+01
     4
 # iter = 44000  time[fs]=44.00000
   C -0.363305350E+01 -0.135096198E-01 -0.957495339E-01
   C  0.363147235E+01  0.342792306E-01  0.781042200E-01
   H -0.194255268E+02 -0.127000360E+01  0.164573920E+01
   H  0.190319199E+02  0.131945584E+01 -0.177683840E+01
     4
 # iter = 44500  time[fs]=44.50000
   C -0.371477407E+01 -0.131003189E-01 -0.985071921E-01
   C  0.371208111E+01  0.346909140E-01  0.803212857E-01
   H -0.198202205E+02 -0.129514481E+01  0.167887098E+01
   H  0.194150182E+02  0.134679226E+01 -0.181392526E+01
     4
 # iter = 45000  time[fs]=45.00000
   C -0.379672687E+01 -0.126914709E-01 -0.101272334E+00
   C  0.379291904E+01  0.351026553E-01  0.825465510E-01
   H -0.202153422E+02 -0.132031652E+01  0.171204348E+01
   H  0.197985811E+02  0.137416394E+01 -0.185106143E+01
     4
 # iter = 45500  time[fs]=45.50000
   C -0.387890196E+01 -0.122830174E-01 -0.104044685E+00
   C  0.387397631E+01  0.355144082E-01  0.847797187E-01
   H -0.206108753E+02 -0.134551758E+01  0.174525517E+01
   H  0.201825909E+02  0.140156955E+01 -0.188824511E+01
     4
 # iter = 46000  time[fs]=46.00000
   C -0.396129003E+01 -0.118749060E-01 -0.106823984E+00
   C  0.395524370E+01  0.359261316E-01  0.870205067E-01
   H -0.210068045E+02 -0.137074689E+01  0.177850458E+01
   H  0.205670310E+02  0.142900788E+01 -0.192547457E+01
     4
 # iter = 46500  time[fs]=46.50000
   C -0.404388229E+01 -0.114670891E-01 -0.109609985E+00
   C  0.403671253E+01  0.363377892E-01  0.892686468E-01
   H -0.214031150E+02 -0.139600340E+01  0.181179033E+01
   H  0.209518856E+02  0.145647773E+01 -0.196274819E+01
     4
 # iter = 47000  time[fs]=47.00000
   C -0.412667048E+01 -0.110595240E-01 -0.112402452E+00
   C  0.411837462E+01  0.367493487E-01  0.915238842E-01
   H -0.217997931E+02 -0.142128614E+01  0.184511114E+01
   H  0.213371396E+02  0.148397801E+01 -0.200006442E+01
     4
 # iter = 47500  time[fs]=47.50000
   C -0.420964681E+01 -0.106521719E-01 -0.115201163E+00
   C  0.420022226E+01  0.371607814E-01  0.937859768E-01
   H -0.221968255E+02 -0.144659418E+01  0.187846575E+01
   H  0.217227791E+02  0.151150766E+01 -0.203742180E+01
     4
 # iter = 48000  time[fs]=48.00000
   C -0.429280393E+01 -0.102449977E-01 -0.118005905E+00
   C  0.428224820E+01  0.375720622E-01  0.960546938E-01
   H -0.225941999E+02 -0.147192662E+01  0.191185299E+01
   H  0.221087904E+02  0.153906568E+01 -0.207481894E+01
     4
 # iter = 48500  time[fs]=48.50000
   C -0.437613488E+01 -0.983796984E-02 -0.120816476E+00
   C  0.436444555E+01  0.379831687E-01  0.983298156E-01
   H -0.229919044E+02 -0.149728264E+01  0.194527177E+01
   H  0.224951609E+02  0.156665112E+01 -0.211225451E+01
     4
 # iter = 49000  time[fs]=49.00000
   C -0.445963310E+01 -0.943105950E-02 -0.123632683E+00
   C  0.444680783E+01  0.383940811E-01  0.100611133E+00
   H -0.233899278E+02 -0.152266143E+01  0.197872100E+01
   H  0.228818784E+02  0.159426307E+01 -0.214972725E+01
     4
 # iter = 49500  time[fs]=49.50000
   C -0.454329237E+01 -0.902424072E-02 -0.126454343E+00
   C  0.452932890E+01  0.388047822E-01  0.102898446E+00
   H -0.237882595E+02 -0.154806224E+01  0.201219970E+01
   H  0.232689314E+02  0.162190068E+01 -0.218723598E+01
     4
 # iter = 50000  time[fs]=50.00000
   C -0.462710681E+01 -0.861748992E-02 -0.129281281E+00
   C  0.461200292E+01  0.392152567E-01  0.105191565E+00
   H -0.241868893E+02 -0.157348435E+01  0.204570691E+01
   H  0.236563089E+02  0.164956312E+01 -0.222477954E+01
     4
 # iter = 50500  time[fs]=50.50000
   C -0.471107083E+01 -0.821078577E-02 -0.132113330E+00
   C  0.469482440E+01  0.396254912E-01  0.107490307E+00
   H -0.245858076E+02 -0.159892707E+01  0.207924170E+01
   H  0.240440005E+02  0.167724961E+01 -0.226235684E+01
     4
 # iter = 51000  time[fs]=51.00000
   C -0.479517914E+01 -0.780410889E-02 -0.134950330E+00
   C  0.477778809E+01  0.400354741E-01  0.109794499E+00
   H -0.249850051E+02 -0.162438975E+01  0.211280322E+01
   H  0.244319962E+02  0.170495941E+01 -0.229996686E+01
     4
 # iter = 51500  time[fs]=51.50000
   C -0.487942671E+01 -0.739744174E-02 -0.137792129E+00
   C  0.486088903E+01  0.404451951E-01  0.112103976E+00
   H -0.253844731E+02 -0.164987177E+01  0.214639064E+01
   H  0.248202866E+02  0.173269181E+01 -0.233760859E+01
     4
 # iter = 52000  time[fs]=52.00000
   C -0.496380877E+01 -0.699076841E-02 -0.140638581E+00
   C  0.494412250E+01  0.408546456E-01  0.114418577E+00
   H -0.257842033E+02 -0.167537253E+01  0.218000317E+01
   H  0.252088626E+02  0.176044612E+01 -0.237528109E+01
     4
 # iter = 52500  time[fs]=52.50000
   C -0.504832076E+01 -0.658407447E-02 -0.143489548E+00
   C  0.502748401E+01  0.412638180E-01  0.116738152E+00
   H -0.261841876E+02 -0.170089147E+01  0.221364004E+01
   H  0.255977154E+02  0.178822169E+01 -0.241298345E+01
     4
 # iter = 53000  time[fs]=53.00000
   C -0.513295836E+01 -0.617734685E-02 -0.146344895E+00
   C  0.511096930E+01  0.416727057E-01  0.119062554E+00
   H -0.265844184E+02 -0.172642804E+01  0.224730054E+01
   H  0.259868369E+02  0.181601791E+01 -0.245071480E+01
     4
 # iter = 53500  time[fs]=53.50000
   C -0.521771746E+01 -0.577057371E-02 -0.149204495E+00
   C  0.519457428E+01  0.420813034E-01  0.121391644E+00
   H -0.269848884E+02 -0.175198172E+01  0.228098398E+01
   H  0.263762191E+02  0.184383417E+01 -0.248847431E+01
     4
 # iter = 54000  time[fs]=54.00000
   C -0.530259414E+01 -0.536374432E-02 -0.152068225E+00
   C  0.527829509E+01  0.424896064E-01  0.123725289E+00
   H -0.273855906E+02 -0.177755201E+01  0.231468969E+01
   H  0.267658544E+02  0.187166991E+01 -0.252626120E+01
     4
 # iter = 54500  time[fs]=54.50000
   C -0.538758463E+01 -0.495684898E-02 -0.154935968E+00
   C  0.536212804E+01  0.428976110E-01  0.126063361E+00
   H -0.277865184E+02 -0.180313845E+01  0.234841705E+01
   H  0.271557357E+02  0.189952459E+01 -0.256407468E+01
     4
 # iter = 55000  time[fs]=55.00000
   C -0.547268539E+01 -0.454987891E-02 -0.157807613E+00
   C  0.544606958E+01  0.433053141E-01  0.128405736E+00
   H -0.281876653E+02 -0.182874057E+01  0.238216545E+01
   H  0.275458558E+02  0.192739767E+01 -0.260191404E+01
     4
 # iter = 55500  time[fs]=55.50000
   C -0.555789298E+01 -0.414282617E-02 -0.160683049E+00
   C  0.553011637E+01  0.437127133E-01  0.130752297E+00
   H -0.285890252E+02 -0.185435795E+01  0.241593430E+01
   H  0.279362083E+02  0.195528865E+01 -0.263977857E+01
     4
 # iter = 56000  time[fs]=56.00000
   C -0.564320416E+01 -0.373568360E-02 -0.163562175E+00
   C  0.561426517E+01  0.441198067E-01  0.133102930E+00
   H -0.289905922E+02 -0.187999015E+01  0.244972304E+01
   H  0.283267867E+02  0.198319706E+01 -0.267766759E+01
     4
 # iter = 56500  time[fs]=56.50000
   C -0.572861581E+01 -0.332844476E-02 -0.166444890E+00
   C  0.569851291E+01  0.445265930E-01  0.135457527E+00
   H -0.293923607E+02 -0.190563679E+01  0.248353115E+01
   H  0.287175848E+02  0.201112242E+01 -0.271558046E+01
     4
 # iter = 57000  time[fs]=57.00000
   C -0.581412494E+01 -0.292110381E-02 -0.169331099E+00
   C  0.578285665E+01  0.449330713E-01  0.137815982E+00
   H -0.297943252E+02 -0.193129746E+01  0.251735811E+01
   H  0.291085968E+02  0.203906430E+01 -0.275351656E+01
     4
 # iter = 57500  time[fs]=57.50000
   C -0.589972870E+01 -0.251365555E-02 -0.172220709E+00
   C  0.586729358E+01  0.453392413E-01  0.140178195E+00
   H -0.301964806E+02 -0.195697181E+01  0.255120341E+01
   H  0.294998170E+02  0.206702227E+01 -0.279147529E+01
     4
 # iter = 58000  time[fs]=58.00000
   C -0.598542436E+01 -0.210609529E-02 -0.175113633E+00
   C  0.595182098E+01  0.457451030E-01  0.142544069E+00
   H -0.305988218E+02 -0.198265948E+01  0.258506660E+01
   H  0.298912400E+02  0.209499590E+01 -0.282945607E+01
     4
 # iter = 58500  time[fs]=58.50000
   C -0.607120929E+01 -0.169841883E-02 -0.178009784E+00
   C  0.603643629E+01  0.461506565E-01  0.144913511E+00
   H -0.310013440E+02 -0.200836011E+01  0.261894720E+01
   H  0.302828605E+02  0.212298482E+01 -0.286745834E+01
     4
 # iter = 59000  time[fs]=59.00000
   C -0.615708099E+01 -0.129062243E-02 -0.180909082E+00
   C  0.612113702E+01  0.465559024E-01  0.147286430E+00
   H -0.314040426E+02 -0.203407340E+01  0.265284479E+01
   H  0.306746735E+02  0.215098863E+01 -0.290548158E+01
     4
 # iter = 59500  time[fs]=59.50000
   C -0.624303703E+01 -0.882702763E-03 -0.183811446E+00
   C  0.620592078E+01  0.469608417E-01  0.149662741E+00
   H -0.318069132E+02 -0.205979901E+01  0.268675893E+01
   H  0.310666742E+02  0.217900696E+01 -0.294352526E+01
     4
 # iter = 60000  time[fs]=60.00000
   C -0.632907512E+01 -0.474656881E-03 -0.186716801E+00
   C  0.629078531E+01  0.473654755E-01  0.152042360E+00
   H -0.322099513E+02 -0.208553664E+01  0.272068922E+01
   H  0.314588579E+02  0.220703947E+01 -0.298158890E+01
     4
 # iter = 60500  time[fs]=60.50000
   C -0.641519302E+01 -0.664821773E-04 -0.189625074E+00
   C  0.637572840E+01  0.477698051E-01  0.154425206E+00
   H -0.326131530E+02 -0.211128600E+01  0.275463526E+01
   H  0.318512201E+02  0.223508581E+01 -0.301967202E+01
     4
 # iter = 61000  time[fs]=61.00000
   C -0.650138860E+01  0.341823633E-03 -0.192536193E+00
   C  0.646074795E+01  0.481738319E-01  0.156811202E+00
   H -0.330165143E+02 -0.213704680E+01  0.278859668E+01
   H  0.322437565E+02  0.226314565E+01 -0.305777414E+01
     4
 # iter = 61500  time[fs]=61.50000
   C -0.658765981E+01  0.750262545E-03 -0.195450091E+00
   C  0.654584193E+01  0.485775578E-01  0.159200272E+00
   H -0.334200312E+02 -0.216281877E+01  0.282257311E+01
   H  0.326364629E+02  0.229121868E+01 -0.309589484E+01
     4
 # iter = 62000  time[fs]=62.00000
   C -0.667400467E+01  0.115883629E-02 -0.198366701E+00
   C  0.663100841E+01  0.489809845E-01  0.161592346E+00
   H -0.338237001E+02 -0.218860164E+01  0.285656420E+01
   H  0.330293352E+02  0.231930458E+01 -0.313403367E+01
     4
 # iter = 62500  time[fs]=62.50000
   C -0.676042129E+01  0.156754634E-02 -0.201285960E+00
   C  0.671624550E+01  0.493841140E-01  0.163987352E+00
   H -0.342275174E+02 -0.221439516E+01  0.289056961E+01
   H  0.334223696E+02  0.234740307E+01 -0.317219023E+01
     4
 # iter = 63000  time[fs]=63.00000
   C -0.684690783E+01  0.197639397E-02 -0.204207807E+00
   C  0.680155140E+01  0.497869484E-01  0.166385223E+00
   H -0.346314796E+02 -0.224019909E+01  0.292458900E+01
   H  0.338155623E+02  0.237551385E+01 -0.321036410E+01
     4
 # iter = 63500  time[fs]=63.50000
   C -0.693346253E+01  0.238538022E-02 -0.207132182E+00
   C  0.688692438E+01  0.501894900E-01  0.168785894E+00
   H -0.350355835E+02 -0.226601319E+01  0.295862207E+01
   H  0.342089097E+02  0.240363664E+01 -0.324855491E+01
     4
 # iter = 64000  time[fs]=64.00000
   C -0.702008371E+01  0.279450595E-02 -0.210059027E+00
   C  0.697236277E+01  0.505917410E-01  0.171189302E+00
   H -0.354398257E+02 -0.229183722E+01  0.299266849E+01
   H  0.346024082E+02  0.243177119E+01 -0.328676228E+01
     4
 # iter = 64500  time[fs]=64.50000
   C -0.710676971E+01  0.320377186E-02 -0.212988287E+00
   C  0.705786494E+01  0.509937037E-01  0.173595386E+00
   H -0.358442033E+02 -0.231767097E+01  0.302672798E+01
   H  0.349960546E+02  0.245991722E+01 -0.332498585E+01
     4
 # iter = 65000  time[fs]=65.00000
   C -0.719351897E+01  0.361317848E-02 -0.215919909E+00
   C  0.714342935E+01  0.513953807E-01  0.176004087E+00
   H -0.362487131E+02 -0.234351421E+01  0.306080025E+01
   H  0.353898454E+02  0.248807450E+01 -0.336322526E+01
     4
 # iter = 65500  time[fs]=65.50000
   C -0.728032996E+01  0.402272619E-02 -0.218853840E+00
   C  0.722905449E+01  0.517967745E-01  0.178415348E+00
   H -0.366533523E+02 -0.236936675E+01  0.309488503E+01
   H  0.357837775E+02  0.251624277E+01 -0.340148017E+01
     4
 # iter = 66000  time[fs]=66.00000
   C -0.736720122E+01  0.443241525E-02 -0.221790031E+00
   C  0.731473892E+01  0.521978875E-01  0.180829114E+00
   H -0.370581180E+02 -0.239522838E+01  0.312898203E+01
   H  0.361778480E+02  0.254442181E+01 -0.343975026E+01
     4
 # iter = 66500  time[fs]=66.50000
   C -0.745413132E+01  0.484224578E-02 -0.224728432E+00
   C  0.740048124E+01  0.525987225E-01  0.183245330E+00
   H -0.374630076E+02 -0.242109890E+01  0.316309100E+01
   H  0.365720537E+02  0.257261139E+01 -0.347803521E+01
     4
 # iter = 67000  time[fs]=67.00000
   C -0.754111890E+01  0.525221780E-02 -0.227668997E+00
   C  0.748628010E+01  0.529992819E-01  0.185663946E+00
   H -0.378680183E+02 -0.244697814E+01  0.319721170E+01
   H  0.369663918E+02  0.260081127E+01 -0.351633470E+01
     4
 # iter = 67500  time[fs]=67.50000
   C -0.762816263E+01  0.566233123E-02 -0.230611679E+00
   C  0.757213421E+01  0.533995686E-01  0.188084911E+00
   H -0.382731476E+02 -0.247286589E+01  0.323134386E+01
   H  0.373608595E+02  0.262902127E+01 -0.355464845E+01
     4
 # iter = 68000  time[fs]=68.00000
   C -0.771526124E+01  0.607258589E-02 -0.233556435E+00
   C  0.765804228E+01  0.537995851E-01  0.190508176E+00
   H -0.386783931E+02 -0.249876200E+01  0.326548727E+01
   H  0.377554542E+02  0.265724115E+01 -0.359297615E+01
     4
 # iter = 68500  time[fs]=68.50000
   C -0.780241349E+01  0.648298151E-02 -0.236503222E+00
   C  0.774400312E+01  0.541993341E-01  0.192933693E+00
   H -0.390837523E+02 -0.252466628E+01  0.329964168E+01
   H  0.381501731E+02  0.268547074E+01 -0.363131752E+01
     4
 # iter = 69000  time[fs]=69.00000
   C -0.788961818E+01  0.689351775E-02 -0.239451997E+00
   C  0.783001554E+01  0.545988184E-01  0.195361418E+00
   H -0.394892229E+02 -0.255057858E+01  0.333380688E+01
   H  0.385450139E+02  0.271370982E+01 -0.366967230E+01
     4
 # iter = 69500  time[fs]=69.50000
   C -0.797687416E+01  0.730419420E-02 -0.242402721E+00
   C  0.791607840E+01  0.549980407E-01  0.197791306E+00
   H -0.398948027E+02 -0.257649872E+01  0.336798265E+01
   H  0.389399739E+02  0.274195821E+01 -0.370804022E+01
     4
 # iter = 70000  time[fs]=70.00000
   C -0.806418031E+01  0.771501037E-02 -0.245355354E+00
   C  0.800219060E+01  0.553970036E-01  0.200223313E+00
   H -0.403004895E+02 -0.260242656E+01  0.340216877E+01
   H  0.393350508E+02  0.277021573E+01 -0.374642102E+01
     4
 # iter = 70500  time[fs]=70.50000
   C -0.815153554E+01  0.812596573E-02 -0.248309859E+00
   C  0.808835106E+01  0.557957100E-01  0.202657397E+00
   H -0.407062811E+02 -0.262836193E+01  0.343636505E+01
   H  0.397302423E+02  0.279848220E+01 -0.378481444E+01
     4
 # iter = 71000  time[fs]=71.00000
   C -0.823893880E+01  0.853705968E-02 -0.251266198E+00
   C  0.817455876E+01  0.561941625E-01  0.205093519E+00
   H -0.411121754E+02 -0.265430470E+01  0.347057129E+01
   H  0.401255462E+02  0.282675745E+01 -0.382322026E+01
     4
 # iter = 71500  time[fs]=71.50000
   C -0.832638908E+01  0.894829158E-02 -0.254224336E+00
   C  0.826081270E+01  0.565923639E-01  0.207531637E+00
   H -0.415181705E+02 -0.268025472E+01  0.350478730E+01
   H  0.405209602E+02  0.285504130E+01 -0.386163822E+01
     4
 # iter = 72000  time[fs]=72.00000
   C -0.841388539E+01  0.935966075E-02 -0.257184238E+00
   C  0.834711189E+01  0.569903167E-01  0.209971715E+00
   H -0.419242645E+02 -0.270621185E+01  0.353901289E+01
   H  0.409164823E+02  0.288333360E+01 -0.390006811E+01
     4
 # iter = 72500  time[fs]=72.50000
   C -0.850142677E+01  0.977116645E-02 -0.260145870E+00
   C  0.843345541E+01  0.573880238E-01  0.212413715E+00
   H -0.423304553E+02 -0.273217596E+01  0.357324787E+01
   H  0.413121103E+02  0.291163419E+01 -0.393850970E+01
     4
 # iter = 73000  time[fs]=73.00000
   C -0.858901229E+01  0.101828079E-01 -0.263109199E+00
   C  0.851984234E+01  0.577854878E-01  0.214857600E+00
   H -0.427367413E+02 -0.275814691E+01  0.360749208E+01
   H  0.417078423E+02  0.293994291E+01 -0.397696277E+01
     4
 # iter = 73500  time[fs]=73.50000
   C -0.867664107E+01  0.105945844E-01 -0.266074192E+00
   C  0.860627178E+01  0.581827113E-01  0.217303335E+00
   H -0.431431205E+02 -0.278412458E+01  0.364174534E+01
   H  0.421036763E+02  0.296825961E+01 -0.401542711E+01
     4
 # iter = 74000  time[fs]=74.00000
   C -0.876431222E+01  0.110064950E-01 -0.269040820E+00
   C  0.869274289E+01  0.585796970E-01  0.219750886E+00
   H -0.435495914E+02 -0.281010884E+01  0.367600748E+01
   H  0.424996104E+02  0.299658415E+01 -0.405390251E+01
     4
 # iter = 74500  time[fs]=74.50000
   C -0.885202490E+01  0.114185389E-01 -0.272009052E+00
   C  0.877925483E+01  0.589764475E-01  0.222200219E+00
   H -0.439561521E+02 -0.283609957E+01  0.371027835E+01
   H  0.428956429E+02  0.302491638E+01 -0.409238879E+01
     4
 # iter = 75000  time[fs]=75.00000
   C -0.893977828E+01  0.118307152E-01 -0.274978859E+00
   C  0.886580679E+01  0.593729654E-01  0.224651303E+00
   H -0.443628011E+02 -0.286209665E+01  0.374455778E+01
   H  0.432917718E+02  0.305325617E+01 -0.413088573E+01
     4
 # iter = 75500  time[fs]=75.50000
   C -0.902757158E+01  0.122430230E-01 -0.277950211E+00
   C  0.895239798E+01  0.597692533E-01  0.227104105E+00
   H -0.447695367E+02 -0.288809998E+01  0.377884562E+01
   H  0.436879954E+02  0.308160338E+01 -0.416939316E+01
     4
 # iter = 76000  time[fs]=76.00000
   C -0.911540401E+01  0.126554615E-01 -0.280923081E+00
   C  0.903902764E+01  0.601653137E-01  0.229558594E+00
   H -0.451763573E+02 -0.291410943E+01  0.381314172E+01
   H  0.440843121E+02  0.310995788E+01 -0.420791089E+01
     4
 # iter = 76500  time[fs]=76.50000
   C -0.920327482E+01  0.130680296E-01 -0.283897441E+00
   C  0.912569503E+01  0.605611491E-01  0.232014742E+00
   H -0.455832616E+02 -0.294012491E+01  0.384744594E+01
   H  0.444807201E+02  0.313831955E+01 -0.424643873E+01
     4
 # iter = 77000  time[fs]=77.00000
   C -0.929118328E+01  0.134807264E-01 -0.286873267E+00
   C  0.921239943E+01  0.609567622E-01  0.234472518E+00
   H -0.459902479E+02 -0.296614629E+01  0.388175814E+01
   H  0.448772180E+02  0.316668825E+01 -0.428497653E+01
     4
 # iter = 77500  time[fs]=77.50000
   C -0.937912867E+01  0.138935510E-01 -0.289850531E+00
   C  0.929914014E+01  0.613521553E-01  0.236931894E+00
   H -0.463973150E+02 -0.299217349E+01  0.391607817E+01
   H  0.452738040E+02  0.319506387E+01 -0.432352409E+01
     4
 # iter = 78000  time[fs]=78.00000
   C -0.946711031E+01  0.143065025E-01 -0.292829208E+00
   C  0.938591647E+01  0.617473309E-01  0.239392842E+00
   H -0.468044612E+02 -0.301820640E+01  0.395040591E+01
   H  0.456704768E+02  0.322344629E+01 -0.436208127E+01
     4
 # iter = 78500  time[fs]=78.50000
   C -0.955512752E+01  0.147195797E-01 -0.295809275E+00
   C  0.947272777E+01  0.621422914E-01  0.241855336E+00
   H -0.472116854E+02 -0.304424493E+01  0.398474121E+01
   H  0.460672347E+02  0.325183540E+01 -0.440064789E+01
     4
 # iter = 79000  time[fs]=79.00000
   C -0.964317965E+01  0.151327818E-01 -0.298790707E+00
   C  0.955957339E+01  0.625370393E-01  0.244319350E+00
   H -0.476189861E+02 -0.307028897E+01  0.401908396E+01
   H  0.464640764E+02  0.328023108E+01 -0.443922380E+01
     4
 # iter = 79500  time[fs]=79.50000
   C -0.973126606E+01  0.155461077E-01 -0.301773482E+00
   C  0.964645270E+01  0.629315769E-01  0.246784857E+00
   H -0.480263621E+02 -0.309633844E+01  0.405343403E+01
   H  0.468610004E+02  0.330863322E+01 -0.447780884E+01
     4
 # iter = 80000  time[fs]=80.00000
   C -0.981938613E+01  0.159595565E-01 -0.304757576E+00
   C  0.973336509E+01  0.633259065E-01  0.249251832E+00
   H -0.484338122E+02 -0.312239325E+01  0.408779130E+01
   H  0.472580054E+02  0.333704172E+01 -0.451640287E+01
