     4
 # iter = 25000  time[fs]=25.00000
   C -0.927342017E+00  0.580103135E-02  0.364683296E-01
   C  0.102680078E+01  0.165661285E-01  0.273333591E-01
   H -0.519295764E+01 -0.278280390E+00  0.446959824E+00
   H  0.527767575E+01  0.486934973E+00 -0.629516641E+00
     4
 # iter = 25500  time[fs]=25.50000
   C -0.968660303E+00  0.627087887E-02  0.366771683E-01
   C  0.107104911E+01  0.149334807E-01  0.304718947E-01
   H -0.552112001E+01 -0.297837359E+00  0.475113567E+00
   H  0.559347505E+01  0.515700168E+00 -0.669448441E+00
     4
 # iter = 26000  time[fs]=26.00000
   C -0.101252004E+01  0.673360900E-02  0.368879245E-01
   C  0.111784161E+01  0.133002422E-01  0.336187485E-01
   H -0.585198972E+01 -0.317561627E+00  0.503507067E+00
   H  0.591194898E+01  0.544725159E+00 -0.709742826E+00
     4
 # iter = 26500  time[fs]=26.50000
   C -0.105871291E+01  0.719243156E-02  0.370971122E-01
   C  0.116696878E+01  0.116639914E-01  0.367764140E-01
   H -0.618526437E+01 -0.337434769E+00  0.532113584E+00
   H  0.623280950E+01  0.573982061E+00 -0.750361147E+00
     4
 # iter = 27000  time[fs]=27.00000
   C -0.110704571E+01  0.764991535E-02  0.373020037E-01
   C  0.121823653E+01  0.100228340E-01  0.399467608E-01
   H -0.652068855E+01 -0.357441217E+00  0.560910587E+00
   H  0.655581170E+01  0.603447216E+00 -0.791270574E+00
     4
 # iter = 27500  time[fs]=27.50000
   C -0.115734066E+01  0.810808627E-02  0.375005107E-01
   C  0.127146645E+01  0.837532529E-02  0.431311308E-01
   H -0.685804476E+01 -0.377567708E+00  0.589878919E+00
   H  0.688074573E+01  0.633100383E+00 -0.832442995E+00
     4
 # iter = 28000  time[fs]=28.00000
   C -0.120943514E+01  0.856851872E-02  0.376910735E-01
   C  0.132649545E+01  0.672039536E-02  0.463304311E-01
   H -0.719714633E+01 -0.397802851E+00  0.619002155E+00
   H  0.720743055E+01  0.662924118E+00 -0.873854155E+00
     4
 # iter = 28500  time[fs]=28.50000
   C -0.126318107E+01  0.903241687E-02  0.378725613E-01
   C  0.138317510E+01  0.505728053E-02  0.495452188E-01
   H -0.753783197E+01 -0.418136793E+00  0.648266114E+00
   H  0.753570892E+01  0.692903283E+00 -0.915482985E+00
     4
 # iter = 29000  time[fs]=29.00000
   C -0.131844397E+01  0.950068466E-02  0.380441875E-01
   C  0.144137068E+01  0.338546366E-02  0.527757736E-01
   H -0.787996136E+01 -0.438560955E+00  0.677658468E+00
   H  0.786544349E+01  0.723024656E+00 -0.957311075E+00
     4
 # iter = 29500  time[fs]=29.50000
   C -0.137510194E+01  0.997398485E-02  0.382054382E-01
   C  0.150096013E+01  0.170462348E-02  0.560221593E-01
   H -0.822341179E+01 -0.459067823E+00  0.707168432E+00
   H  0.819651363E+01  0.753276626E+00 -0.999322241E+00
     4
 # iter = 30000  time[fs]=30.00000
   C -0.143304464E+01  0.104527878E-01  0.383560133E-01
   C  0.156183298E+01  0.145924756E-04  0.592842750E-01
   H -0.856807529E+01 -0.479650781E+00  0.736786520E+00
   H  0.852881286E+01  0.783648942E+00 -0.104150218E+01
     4
 # iter = 30500  time[fs]=30.50000
   C -0.149217221E+01  0.109374119E-01  0.384957786E-01
   C  0.162388927E+01 -0.168467765E-02  0.625618961E-01
   H -0.891385645E+01 -0.500303971E+00  0.766504347E+00
   H  0.886224671E+01  0.814132508E+00 -0.108383821E+01
     4
 # iter = 31000  time[fs]=31.00000
   C -0.155239425E+01  0.114280554E-01  0.386247271E-01
   C  0.168703857E+01 -0.339314390E-02  0.658547069E-01
   H -0.926067051E+01 -0.521022184E+00  0.796314460E+00
   H  0.919673107E+01  0.844719217E+00 -0.112631900E+01
     4
 # iter = 31500  time[fs]=31.50000
   C -0.161362894E+01  0.119248235E-01  0.387429485E-01
   C  0.175119903E+01 -0.511069438E-02  0.691623273E-01
   H -0.960844189E+01 -0.541800769E+00  0.826210211E+00
   H  0.953219068E+01  0.875401812E+00 -0.116893442E+01
     4
 # iter = 32000  time[fs]=32.00000
   C -0.167580211E+01  0.124277489E-01  0.388506042E-01
   C  0.181629646E+01 -0.683716616E-02  0.724843329E-01
   H -0.995710289E+01 -0.562635554E+00  0.856185643E+00
   H  0.986855798E+01  0.906173777E+00 -0.121167535E+01
     4
 # iter = 32500  time[fs]=32.50000
   C -0.173884649E+01  0.129368085E-01  0.389479083E-01
   C  0.188226360E+01 -0.857235935E-02  0.758202712E-01
   H -0.103065927E+02 -0.583522784E+00  0.886235397E+00
   H  0.102057721E+02  0.937029231E+00 -0.125453358E+01
     4
 # iter = 33000  time[fs]=33.00000
   C -0.180270099E+01  0.134519372E-01  0.390351123E-01
   C  0.194903937E+01 -0.103160482E-01  0.791696734E-01
   H -0.106568564E+02 -0.604459065E+00  0.916354635E+00
   H  0.105437780E+02  0.967962856E+00 -0.129750166E+01
     4
 # iter = 33500  time[fs]=33.50000
   C -0.186731005E+01  0.139730381E-01  0.391124935E-01
   C  0.201656823E+01 -0.120679897E-01  0.825320643E-01
   H -0.110078443E+02 -0.625441323E+00  0.946538978E+00
   H  0.108825257E+02  0.998969824E+00 -0.134057283E+01
     4
 # iter = 34000  time[fs]=34.00000
   C -0.193262307E+01  0.144999911E-01  0.391803454E-01
   C  0.208479960E+01 -0.138279303E-01  0.859069691E-01
   H -0.113595114E+02 -0.646466763E+00  0.976784443E+00
   H  0.112219700E+02  0.103004574E+01 -0.138374094E+01
     4
 # iter = 34500  time[fs]=34.50000
   C -0.199859388E+01  0.150326594E-01  0.392389710E-01
   C  0.215368735E+01 -0.155956113E-01  0.892939186E-01
   H -0.117118165E+02 -0.667532838E+00  0.100708741E+01
   H  0.115620693E+02  0.106118659E+01 -0.142700037E+01
     4
 # iter = 35000  time[fs]=35.00000
   C -0.206518033E+01  0.155708949E-01  0.392886772E-01
   C  0.222318936E+01 -0.173707725E-01  0.926924532E-01
   H -0.120647223E+02 -0.688637216E+00  0.103744455E+01
   H  0.119027859E+02  0.109238870E+01 -0.147034597E+01
     4
 # iter = 35500  time[fs]=35.50000
   C -0.213234384E+01  0.161145419E-01  0.393297707E-01
   C  0.229326707E+01 -0.191531551E-01  0.961021252E-01
   H -0.124181944E+02 -0.709777762E+00  0.106785284E+01
   H  0.122440850E+02  0.112364869E+01 -0.151377301E+01
     4
 # iter = 36000  time[fs]=36.00000
   C -0.220004906E+01  0.166634405E-01  0.393625548E-01
   C  0.236388517E+01 -0.209425044E-01  0.995225015E-01
   H -0.127722013E+02 -0.730952515E+00  0.109830948E+01
   H  0.125859347E+02  0.115496348E+01 -0.155727715E+01
     4
 # iter = 36500  time[fs]=36.50000
   C -0.226826351E+01  0.172174292E-01  0.393873273E-01
   C  0.243501124E+01 -0.227385712E-01  0.102953164E+00
   H -0.131267142E+02 -0.752159666E+00  0.112881192E+01
   H  0.129283056E+02  0.118633019E+01 -0.160085437E+01
     4
 # iter = 37000  time[fs]=37.00000
   C -0.233695738E+01  0.177763465E-01  0.394043788E-01
   C  0.250661547E+01 -0.245411127E-01  0.106393710E+00
   H -0.134817062E+02 -0.773397548E+00  0.115935778E+01
   H  0.132711707E+02  0.121774618E+01 -0.164450097E+01
     4
 # iter = 37500  time[fs]=37.50000
   C -0.240610318E+01  0.183400324E-01  0.394139915E-01
   C  0.257867042E+01 -0.263498938E-01  0.109843755E+00
   H -0.138371528E+02 -0.794664618E+00  0.118994487E+01
   H  0.136145048E+02  0.124920902E+01 -0.168821351E+01
     4
 # iter = 38000  time[fs]=38.00000
   C -0.247567557E+01  0.189083294E-01  0.394164383E-01
   C  0.265115079E+01 -0.281646870E-01  0.113302929E+00
   H -0.141930311E+02 -0.815959447E+00  0.122057116E+01
   H  0.139582848E+02  0.128071642E+01 -0.173198882E+01
     4
 # iter = 38500  time[fs]=38.50000
   C -0.254565114E+01  0.194810837E-01  0.394119825E-01
   C  0.272403321E+01 -0.299852734E-01  0.116770878E+00
   H -0.145493200E+02 -0.837280706E+00  0.125123478E+01
   H  0.143024891E+02  0.131226629E+01 -0.177582392E+01
     4
 # iter = 39000  time[fs]=39.00000
   C -0.261600823E+01  0.200581453E-01  0.394008778E-01
   C  0.279729604E+01 -0.318114424E-01  0.120247267E+00
   H -0.149059999E+02 -0.858627162E+00  0.128193396E+01
   H  0.146470975E+02  0.134385666E+01 -0.181971608E+01
     4
 # iter = 39500  time[fs]=39.50000
   C -0.268672680E+01  0.206393686E-01  0.393833674E-01
   C  0.287091927E+01 -0.336429916E-01  0.123731772E+00
   H -0.152630525E+02 -0.879997665E+00  0.131266709E+01
   H  0.149920916E+02  0.137548569E+01 -0.186366271E+01
     4
 # iter = 40000  time[fs]=40.00000
   C -0.275778822E+01  0.212246126E-01  0.393596849E-01
   C  0.294488432E+01 -0.354797272E-01  0.127224087E+00
   H -0.156204607E+02 -0.901391141E+00  0.134343264E+01
   H  0.153374537E+02  0.140715169E+01 -0.190766141E+01
     4
 # iter = 40500  time[fs]=40.50000
   C -0.282917520E+01  0.218137411E-01  0.393300541E-01
   C  0.301917391E+01 -0.373214635E-01  0.130723920E+00
   H -0.159782086E+02 -0.922806586E+00  0.137422918E+01
   H  0.156831677E+02  0.143885305E+01 -0.195170994E+01
     4
 # iter = 41000  time[fs]=41.00000
   C -0.290087166E+01  0.224066229E-01  0.392946892E-01
   C  0.309377200E+01 -0.391680226E-01  0.134230992E+00
   H -0.163362814E+02 -0.944243063E+00  0.140505539E+01
   H  0.160292184E+02  0.147058828E+01 -0.199580620E+01
     4
 # iter = 41500  time[fs]=41.50000
   C -0.297286259E+01  0.230031316E-01  0.392537951E-01
   C  0.316866362E+01 -0.410192344E-01  0.137745037E+00
   H -0.166946652E+02 -0.965699690E+00  0.143591003E+01
   H  0.163755913E+02  0.150235596E+01 -0.203994821E+01
     4
 # iter = 42000  time[fs]=42.00000
   C -0.304513403E+01  0.236031455E-01  0.392075677E-01
   C  0.324383482E+01 -0.428749362E-01  0.141265802E+00
   H -0.170533468E+02 -0.987175641E+00  0.146679191E+01
   H  0.167222732E+02  0.153415479E+01 -0.208413412E+01
     4
 # iter = 42500  time[fs]=42.50000
   C -0.311767292E+01  0.242065478E-01  0.391561943E-01
   C  0.331927257E+01 -0.447349727E-01  0.144793046E+00
   H -0.174123141E+02 -0.100867014E+01  0.149769996E+01
   H  0.170692515E+02  0.156598353E+01 -0.212836218E+01
     4
 # iter = 43000  time[fs]=43.00000
   C -0.319046703E+01  0.248132263E-01  0.390998539E-01
   C  0.339496469E+01 -0.465991950E-01  0.148326541E+00
   H -0.177715554E+02 -0.103018246E+01  0.152863312E+01
   H  0.174165143E+02  0.159784099E+01 -0.217263075E+01
     4
 # iter = 43500  time[fs]=43.50000
   C -0.326350494E+01  0.254230732E-01  0.390387175E-01
   C  0.347089975E+01 -0.484674611E-01  0.151866065E+00
   H -0.181310601E+02 -0.105171190E+01  0.155959043E+01
   H  0.177640505E+02  0.162972609E+01 -0.221693829E+01
     4
 # iter = 44000  time[fs]=44.00000
   C -0.333677593E+01  0.260359853E-01  0.389729486E-01
   C  0.354706708E+01 -0.503396353E-01  0.155411412E+00
   H -0.184908178E+02 -0.107325783E+01  0.159057096E+01
   H  0.181118496E+02  0.166163778E+01 -0.226128332E+01
     4
 # iter = 44500  time[fs]=44.50000
   C -0.341026995E+01  0.266518635E-01  0.389027032E-01
   C  0.362345664E+01 -0.522155877E-01  0.158962382E+00
   H -0.188508189E+02 -0.109481962E+01  0.162157386E+01
   H  0.184599017E+02  0.169357509E+01 -0.230566448E+01
     4
 # iter = 45000  time[fs]=45.00000
   C -0.348397753E+01  0.272706126E-01  0.388281307E-01
   C  0.370005899E+01 -0.540951943E-01  0.162518785E+00
   H -0.192110544E+02 -0.111639670E+01  0.165259830E+01
   H  0.188081973E+02  0.172553708E+01 -0.235008045E+01
     4
 # iter = 45500  time[fs]=45.50000
   C -0.355788980E+01  0.278921416E-01  0.387493737E-01
   C  0.377686528E+01 -0.559783362E-01  0.166080439E+00
   H -0.195715156E+02 -0.113798852E+01  0.168364351E+01
   H  0.191567277E+02  0.175752287E+01 -0.239452999E+01
     4
 # iter = 46000  time[fs]=46.00000
   C -0.363199839E+01  0.285163630E-01  0.386665686E-01
   C  0.385386716E+01 -0.578649001E-01  0.169647173E+00
   H -0.199321944E+02 -0.115959455E+01  0.171470875E+01
   H  0.195054844E+02  0.178953164E+01 -0.243901194E+01
     4
 # iter = 46500  time[fs]=46.50000
   C -0.370629541E+01  0.291431931E-01  0.385798458E-01
   C  0.393105677E+01 -0.597547774E-01  0.173218822E+00
   H -0.202930830E+02 -0.118121432E+01  0.174579333E+01
   H  0.198544595E+02  0.182156259E+01 -0.248352519E+01
     4
 # iter = 47000  time[fs]=47.00000
   C -0.378077343E+01  0.297725514E-01  0.384893301E-01
   C  0.400842668E+01 -0.616478641E-01  0.176795226E+00
   H -0.206541742E+02 -0.120284734E+01  0.177689658E+01
   H  0.202036455E+02  0.185361498E+01 -0.252806867E+01
     4
 # iter = 47500  time[fs]=47.50000
   C -0.385542543E+01  0.304043610E-01  0.383951409E-01
   C  0.408596990E+01 -0.635440607E-01  0.180376236E+00
   H -0.210154610E+02 -0.122449317E+01  0.180801788E+01
   H  0.205530351E+02  0.188568808E+01 -0.257264139E+01
     4
 # iter = 48000  time[fs]=48.00000
   C -0.393024476E+01  0.310385478E-01  0.382973923E-01
   C  0.416367980E+01 -0.654432720E-01  0.183961707E+00
   H -0.213769369E+02 -0.124615140E+01  0.183915663E+01
   H  0.209026215E+02  0.191778123E+01 -0.261724238E+01
     4
 # iter = 48500  time[fs]=48.50000
   C -0.400522515E+01  0.316750408E-01  0.381961939E-01
   C  0.424155012E+01 -0.673454068E-01  0.187551503E+00
   H -0.217385956E+02 -0.126782162E+01  0.187031227E+01
   H  0.212523984E+02  0.194989377E+01 -0.266187075E+01
     4
 # iter = 49000  time[fs]=49.00000
   C -0.408036065E+01  0.323137721E-01  0.380916504E-01
   C  0.431957494E+01 -0.692503776E-01  0.191145490E+00
   H -0.221004310E+02 -0.128950345E+01  0.190148425E+01
   H  0.216023595E+02  0.198202509E+01 -0.270652562E+01
     4
 # iter = 49500  time[fs]=49.50000
   C -0.415564564E+01  0.329546763E-01  0.379838622E-01
   C  0.439774864E+01 -0.711581005E-01  0.194743542E+00
   H -0.224624376E+02 -0.131119652E+01  0.193267207E+01
   H  0.219524989E+02  0.201417461E+01 -0.275120617E+01
     4
 # iter = 50000  time[fs]=50.00000
   C -0.423107476E+01  0.335976905E-01  0.378729255E-01
   C  0.447606589E+01 -0.730684953E-01  0.198345539E+00
   H -0.228246100E+02 -0.133290049E+01  0.196387523E+01
   H  0.223028111E+02  0.204634177E+01 -0.279591161E+01
     4
 # iter = 50500  time[fs]=50.50000
   C -0.430664295E+01  0.342427545E-01  0.377589326E-01
   C  0.455452164E+01 -0.749814848E-01  0.201951364E+00
   H -0.231869429E+02 -0.135461502E+01  0.199509325E+01
   H  0.226532908E+02  0.207852603E+01 -0.284064119E+01
     4
 # iter = 51000  time[fs]=51.00000
   C -0.438234539E+01  0.348898103E-01  0.376419720E-01
   C  0.463311108E+01 -0.768969950E-01  0.205560907E+00
   H -0.235494314E+02 -0.137633980E+01  0.202632571E+01
   H  0.230039328E+02  0.211072689E+01 -0.288539420E+01
     4
 # iter = 51500  time[fs]=51.50000
   C -0.445817750E+01  0.355388024E-01  0.375221287E-01
   C  0.471182965E+01 -0.788149548E-01  0.209174061E+00
   H -0.239120710E+02 -0.139807453E+01  0.205757216E+01
   H  0.233547322E+02  0.214294385E+01 -0.293016994E+01
     4
 # iter = 52000  time[fs]=52.00000
   C -0.453413492E+01  0.361896771E-01  0.373994842E-01
   C  0.479067301E+01 -0.807352961E-01  0.212790723E+00
   H -0.242748570E+02 -0.141981891E+01  0.208883220E+01
   H  0.237056845E+02  0.217517645E+01 -0.297496776E+01
     4
 # iter = 52500  time[fs]=52.50000
   C -0.461021352E+01  0.368423831E-01  0.372741168E-01
   C  0.486963702E+01 -0.826579532E-01  0.216410796E+00
   H -0.246377851E+02 -0.144157267E+01  0.212010543E+01
   H  0.240567851E+02  0.220742425E+01 -0.301978703E+01
     4
 # iter = 53000  time[fs]=53.00000
   C -0.468640933E+01  0.374968707E-01  0.371461018E-01
   C  0.494871774E+01 -0.845828632E-01  0.220034185E+00
   H -0.250008514E+02 -0.146333554E+01  0.215139150E+01
   H  0.244080298E+02  0.223968681E+01 -0.306462714E+01
     4
 # iter = 53500  time[fs]=53.50000
   C -0.476271860E+01  0.381530925E-01  0.370155114E-01
   C  0.502791143E+01 -0.865099653E-01  0.223660800E+00
   H -0.253640517E+02 -0.148510727E+01  0.218269002E+01
   H  0.247594145E+02  0.227196373E+01 -0.310948753E+01
     4
 # iter = 54000  time[fs]=54.00000
   C -0.483913772E+01  0.388110025E-01  0.368824153E-01
   C  0.510721449E+01 -0.884392015E-01  0.227290554E+00
   H -0.257273825E+02 -0.150688762E+01  0.221400067E+01
   H  0.251109353E+02  0.230425461E+01 -0.315436763E+01
     4
 # iter = 54500  time[fs]=54.50000
   C -0.491566326E+01  0.394705565E-01  0.367468801E-01
   C  0.518662352E+01 -0.903705155E-01  0.230923362E+00
   H -0.260908399E+02 -0.152867635E+01  0.224532311E+01
   H  0.254625885E+02  0.233655908E+01 -0.319926692E+01
     4
 # iter = 55000  time[fs]=55.00000
   C -0.499229196E+01  0.401317121E-01  0.366089704E-01
   C  0.526613524E+01 -0.923038533E-01  0.234559145E+00
   H -0.264544207E+02 -0.155047323E+01  0.227665702E+01
   H  0.258143705E+02  0.236887677E+01 -0.324418488E+01
     4
 # iter = 55500  time[fs]=55.50000
   C -0.506902068E+01  0.407944282E-01  0.364687480E-01
   C  0.534574653E+01 -0.942391630E-01  0.238197825E+00
   H -0.268181214E+02 -0.157227805E+01  0.230800211E+01
   H  0.261662777E+02  0.240120734E+01 -0.328912102E+01
     4
 # iter = 56000  time[fs]=56.00000
   C -0.514584642E+01  0.414586654E-01  0.363262726E-01
   C  0.542545441E+01 -0.961763944E-01  0.241839328E+00
   H -0.271819389E+02 -0.159409061E+01  0.233935807E+01
   H  0.265183069E+02  0.243355045E+01 -0.333407487E+01
     4
 # iter = 56500  time[fs]=56.50000
   C -0.522276632E+01  0.421243855E-01  0.361816017E-01
   C  0.550525602E+01 -0.981154994E-01  0.245483581E+00
   H -0.275458700E+02 -0.161591070E+01  0.237072463E+01
   H  0.268704550E+02  0.246590578E+01 -0.337904598E+01
     4
 # iter = 57000  time[fs]=57.00000
   C -0.529977763E+01  0.427915518E-01  0.360347905E-01
   C  0.558514863E+01 -0.100056431E+00  0.249130515E+00
   H -0.279099119E+02 -0.163773813E+01  0.240210152E+01
   H  0.272227187E+02  0.249827302E+01 -0.342403391E+01
     4
 # iter = 57500  time[fs]=57.50000
   C -0.537687772E+01  0.434601288E-01  0.358858926E-01
   C  0.566512961E+01 -0.101999145E+00  0.252780065E+00
   H -0.282740617E+02 -0.165957272E+01  0.243348847E+01
   H  0.275750952E+02  0.253065188E+01 -0.346903825E+01
     4
 # iter = 58000  time[fs]=58.00000
   C -0.545406407E+01  0.441300823E-01  0.357349594E-01
   C  0.574519646E+01 -0.103943598E+00  0.256432164E+00
   H -0.286383167E+02 -0.168141429E+01  0.246488524E+01
   H  0.279275817E+02  0.256304206E+01 -0.351405858E+01
     4
 # iter = 58500  time[fs]=58.50000
   C -0.553133427E+01  0.448013793E-01  0.355820405E-01
   C  0.582534676E+01 -0.105889747E+00  0.260086752E+00
   H -0.290026742E+02 -0.170326267E+01  0.249629159E+01
   H  0.282801754E+02  0.259544329E+01 -0.355909452E+01
     4
 # iter = 59000  time[fs]=59.00000
   C -0.560868599E+01  0.454739879E-01  0.354271839E-01
   C  0.590557821E+01 -0.107837553E+00  0.263743768E+00
   H -0.293671318E+02 -0.172511770E+01  0.252770728E+01
   H  0.286328736E+02  0.262785531E+01 -0.360414570E+01
     4
 # iter = 59500  time[fs]=59.50000
   C -0.568611701E+01  0.461478772E-01  0.352704359E-01
   C  0.598588858E+01 -0.109786977E+00  0.267403155E+00
   H -0.297316869E+02 -0.174697921E+01  0.255913210E+01
   H  0.289856739E+02  0.266027785E+01 -0.364921174E+01
     4
 # iter = 60000  time[fs]=60.00000
   C -0.576362519E+01  0.468230175E-01  0.351118411E-01
   C  0.606627575E+01 -0.111737980E+00  0.271064857E+00
   H -0.300963372E+02 -0.176884705E+01  0.259056581E+01
   H  0.293385738E+02  0.269271067E+01 -0.369429231E+01
     4
 # iter = 60500  time[fs]=60.50000
   C -0.584120846E+01  0.474993799E-01  0.349514427E-01
   C  0.614673766E+01 -0.113690527E+00  0.274728820E+00
   H -0.304610805E+02 -0.179072108E+01  0.262200823E+01
   H  0.296915709E+02  0.272515354E+01 -0.373938706E+01
     4
 # iter = 61000  time[fs]=61.00000
   C -0.591886486E+01  0.481769366E-01  0.347892825E-01
   C  0.622727235E+01 -0.115644582E+00  0.278394991E+00
   H -0.308259145E+02 -0.181260114E+01  0.265345913E+01
   H  0.300446630E+02  0.275760621E+01 -0.378449566E+01
     4
 # iter = 61500  time[fs]=61.50000
   C -0.599659249E+01  0.488556606E-01  0.346254007E-01
   C  0.630787791E+01 -0.117600112E+00  0.282063321E+00
   H -0.311908372E+02 -0.183448712E+01  0.268491834E+01
   H  0.303978478E+02  0.279006847E+01 -0.382961781E+01
     4
 # iter = 62000  time[fs]=62.00000
   C -0.607438950E+01  0.495355259E-01  0.344598364E-01
   C  0.638855254E+01 -0.119557082E+00  0.285733761E+00
   H -0.315558466E+02 -0.185637886E+01  0.271638566E+01
   H  0.307511232E+02  0.282254010E+01 -0.387475320E+01
     4
 # iter = 62500  time[fs]=62.50000
   C -0.615225414E+01  0.502165072E-01  0.342926273E-01
   C  0.646929446E+01 -0.121515463E+00  0.289406263E+00
   H -0.319209405E+02 -0.187827624E+01  0.274786091E+01
   H  0.311044872E+02  0.285502089E+01 -0.391990154E+01
     4
 # iter = 63000  time[fs]=63.00000
   C -0.623018472E+01  0.508985801E-01  0.341238100E-01
   C  0.655010200E+01 -0.123475221E+00  0.293080782E+00
   H -0.322861172E+02 -0.190017914E+01  0.277934392E+01
   H  0.314579378E+02  0.288751064E+01 -0.396506253E+01
     4
 # iter = 63500  time[fs]=63.50000
   C -0.630817959E+01  0.515817209E-01  0.339534197E-01
   C  0.663097352E+01 -0.125436329E+00  0.296757275E+00
   H -0.326513748E+02 -0.192208744E+01  0.281083451E+01
   H  0.318114730E+02  0.292000916E+01 -0.401023591E+01
     4
 # iter = 64000  time[fs]=64.00000
   C -0.638623719E+01  0.522659067E-01  0.337814907E-01
   C  0.671190745E+01 -0.127398756E+00  0.300435697E+00
   H -0.330167115E+02 -0.194400102E+01  0.284233252E+01
   H  0.321650911E+02  0.295251626E+01 -0.405542141E+01
     4
 # iter = 64500  time[fs]=64.50000
   C -0.646435598E+01  0.529511153E-01  0.336080561E-01
   C  0.679290228E+01 -0.129362475E+00  0.304116008E+00
   H -0.333821256E+02 -0.196591976E+01  0.287383780E+01
   H  0.325187902E+02  0.298503175E+01 -0.410061878E+01
     4
 # iter = 65000  time[fs]=65.00000
   C -0.654253450E+01  0.536373251E-01  0.334331480E-01
   C  0.687395654E+01 -0.131327459E+00  0.307798169E+00
   H -0.337476155E+02 -0.198784356E+01  0.290535018E+01
   H  0.328725686E+02  0.301755546E+01 -0.414582775E+01
     4
 # iter = 65500  time[fs]=65.50000
   C -0.662077134E+01  0.543245152E-01  0.332567976E-01
   C  0.695506883E+01 -0.133293681E+00  0.311482139E+00
   H -0.341131794E+02 -0.200977231E+01  0.293686953E+01
   H  0.332264246E+02  0.305008722E+01 -0.419104810E+01
     4
 # iter = 66000  time[fs]=66.00000
   C -0.669906512E+01  0.550126655E-01  0.330790350E-01
   C  0.703623778E+01 -0.135261116E+00  0.315167881E+00
   H -0.344788159E+02 -0.203170591E+01  0.296839569E+01
   H  0.335803565E+02  0.308262686E+01 -0.423627958E+01
     4
 # iter = 66500  time[fs]=66.50000
   C -0.677741453E+01  0.557017562E-01  0.328998895E-01
   C  0.711746208E+01 -0.137229738E+00  0.318855359E+00
   H -0.348445234E+02 -0.205364426E+01  0.299992852E+01
   H  0.339343628E+02  0.311517421E+01 -0.428152197E+01
     4
 # iter = 67000  time[fs]=67.00000
   C -0.685581829E+01  0.563917683E-01  0.327193895E-01
   C  0.719874045E+01 -0.139199525E+00  0.322544537E+00
   H -0.352103005E+02 -0.207558727E+01  0.303146790E+01
   H  0.342884420E+02  0.314772913E+01 -0.432677505E+01
     4
 # iter = 67500  time[fs]=67.50000
   C -0.693427517E+01  0.570826833E-01  0.325375624E-01
   C  0.728007167E+01 -0.141170452E+00  0.326235381E+00
   H -0.355761458E+02 -0.209753483E+01  0.306301368E+01
   H  0.346425926E+02  0.318029147E+01 -0.437203860E+01
     4
 # iter = 68000  time[fs]=68.00000
   C -0.701278397E+01  0.577744832E-01  0.323544350E-01
   C  0.736145454E+01 -0.143142497E+00  0.329927858E+00
   H -0.359420578E+02 -0.211948687E+01  0.309456575E+01
   H  0.349968131E+02  0.321286106E+01 -0.441731242E+01
     4
 # iter = 68500  time[fs]=68.50000
   C -0.709134353E+01  0.584671505E-01  0.321700333E-01
   C  0.744288793E+01 -0.145115638E+00  0.333621934E+00
   H -0.363080352E+02 -0.214144328E+01  0.312612397E+01
   H  0.353511021E+02  0.324543778E+01 -0.446259631E+01
     4
 # iter = 69000  time[fs]=69.00000
   C -0.716995275E+01  0.591606684E-01  0.319843823E-01
   C  0.752437071E+01 -0.147089853E+00  0.337317580E+00
   H -0.366740768E+02 -0.216340399E+01  0.315768823E+01
   H  0.357054584E+02  0.327802149E+01 -0.450789006E+01
     4
 # iter = 69500  time[fs]=69.50000
   C -0.724861053E+01  0.598550203E-01  0.317975067E-01
   C  0.760590181E+01 -0.149065122E+00  0.341014763E+00
   H -0.370401813E+02 -0.218536892E+01  0.318925840E+01
   H  0.360598805E+02  0.331061204E+01 -0.455319350E+01
     4
 # iter = 70000  time[fs]=70.00000
   C -0.732731584E+01  0.605501902E-01  0.316094301E-01
   C  0.768748019E+01 -0.151041425E+00  0.344713456E+00
   H -0.374063473E+02 -0.220733797E+01  0.322083439E+01
   H  0.364143671E+02  0.334320931E+01 -0.459850643E+01
     4
 # iter = 70500  time[fs]=70.50000
   C -0.740606766E+01  0.612461625E-01  0.314201756E-01
   C  0.776910484E+01 -0.153018742E+00  0.348413627E+00
   H -0.377725739E+02 -0.222931108E+01  0.325241606E+01
   H  0.367689172E+02  0.337581317E+01 -0.464382868E+01
     4
 # iter = 71000  time[fs]=71.00000
   C -0.748486501E+01  0.619429222E-01  0.312297657E-01
   C  0.785077478E+01 -0.154997054E+00  0.352115251E+00
   H -0.381388597E+02 -0.225128817E+01  0.328400333E+01
   H  0.371235293E+02  0.340842351E+01 -0.468916008E+01
     4
 # iter = 71500  time[fs]=71.50000
   C -0.756370692E+01  0.626404545E-01  0.310382222E-01
   C  0.793248905E+01 -0.156976342E+00  0.355818298E+00
   H -0.385052037E+02 -0.227326916E+01  0.331559608E+01
   H  0.374782025E+02  0.344104019E+01 -0.473450045E+01
     4
 # iter = 72000  time[fs]=72.00000
   C -0.764259249E+01  0.633387451E-01  0.308455663E-01
   C  0.801424675E+01 -0.158956588E+00  0.359522744E+00
   H -0.388716048E+02 -0.229525398E+01  0.334719422E+01
   H  0.378329354E+02  0.347366310E+01 -0.477984962E+01
     4
 # iter = 72500  time[fs]=72.50000
   C -0.772152082E+01  0.640377801E-01  0.306518186E-01
   C  0.809604698E+01 -0.160937775E+00  0.363228561E+00
   H -0.392380620E+02 -0.231724256E+01  0.337879764E+01
   H  0.381877271E+02  0.350629213E+01 -0.482520745E+01
     4
 # iter = 73000  time[fs]=73.00000
   C -0.780049103E+01  0.647375459E-01  0.304569994E-01
   C  0.817788888E+01 -0.162919886E+00  0.366935726E+00
   H -0.396045741E+02 -0.233923484E+01  0.341040625E+01
   H  0.385425764E+02  0.353892717E+01 -0.487057376E+01
     4
 # iter = 73500  time[fs]=73.50000
   C -0.787950228E+01  0.654380293E-01  0.302611280E-01
   C  0.825977160E+01 -0.164902904E+00  0.370644213E+00
   H -0.399711402E+02 -0.236123074E+01  0.344201995E+01
   H  0.388974824E+02  0.357156811E+01 -0.491594842E+01
     4
 # iter = 74000  time[fs]=74.00000
   C -0.795855376E+01  0.661392174E-01  0.300642235E-01
   C  0.834169434E+01 -0.166886812E+00  0.374353999E+00
   H -0.403377594E+02 -0.238323021E+01  0.347363867E+01
   H  0.392524439E+02  0.360421485E+01 -0.496133127E+01
     4
 # iter = 74500  time[fs]=74.50000
   C -0.803764467E+01  0.668410978E-01  0.298663044E-01
   C  0.842365629E+01 -0.168871596E+00  0.378065060E+00
   H -0.407044306E+02 -0.240523317E+01  0.350526229E+01
   H  0.396074600E+02  0.363686728E+01 -0.500672217E+01
     4
 # iter = 75000  time[fs]=75.00000
   C -0.811677424E+01  0.675436583E-01  0.296673888E-01
   C  0.850565670E+01 -0.170857240E+00  0.381777374E+00
   H -0.410711529E+02 -0.242723958E+01  0.353689075E+01
   H  0.399625297E+02  0.366952530E+01 -0.505212098E+01
     4
 # iter = 75500  time[fs]=75.50000
   C -0.819594172E+01  0.682468869E-01  0.294674943E-01
   C  0.858769482E+01 -0.172843728E+00  0.385490920E+00
   H -0.414379255E+02 -0.244924936E+01  0.356852396E+01
   H  0.403176521E+02  0.370218882E+01 -0.509752757E+01
     4
 # iter = 76000  time[fs]=76.00000
   C -0.827514639E+01  0.689507722E-01  0.292666379E-01
   C  0.866976992E+01 -0.174831046E+00  0.389205675E+00
   H -0.418047475E+02 -0.247126247E+01  0.360016183E+01
   H  0.406728262E+02  0.373485775E+01 -0.514294179E+01
     4
 # iter = 76500  time[fs]=76.50000
   C -0.835438753E+01  0.696553027E-01  0.290648363E-01
   C  0.875188130E+01 -0.176819181E+00  0.392921620E+00
   H -0.421716179E+02 -0.249327884E+01  0.363180428E+01
   H  0.410280512E+02  0.376753199E+01 -0.518836352E+01
     4
 # iter = 77000  time[fs]=77.00000
   C -0.843366445E+01  0.703604676E-01  0.288621058E-01
   C  0.883402827E+01 -0.178808117E+00  0.396638732E+00
   H -0.425385361E+02 -0.251529842E+01  0.366345125E+01
   H  0.413833263E+02  0.380021145E+01 -0.523379264E+01
     4
 # iter = 77500  time[fs]=77.50000
   C -0.851297649E+01  0.710662561E-01  0.286584623E-01
   C  0.891621017E+01 -0.180797843E+00  0.400356994E+00
   H -0.429055011E+02 -0.253732116E+01  0.369510265E+01
   H  0.417386504E+02  0.383289605E+01 -0.527922902E+01
     4
 # iter = 78000  time[fs]=78.00000
   C -0.859232300E+01  0.717726577E-01  0.284539211E-01
   C  0.899842635E+01 -0.182788343E+00  0.404076385E+00
   H -0.432725122E+02 -0.255934700E+01  0.372675840E+01
   H  0.420940229E+02  0.386558570E+01 -0.532467254E+01
     4
 # iter = 78500  time[fs]=78.50000
   C -0.867170334E+01  0.724796623E-01  0.282484973E-01
   C  0.908067617E+01 -0.184779606E+00  0.407796886E+00
   H -0.436395686E+02 -0.258137589E+01  0.375841845E+01
   H  0.424494429E+02  0.389828032E+01 -0.537012308E+01
     4
 # iter = 79000  time[fs]=79.00000
   C -0.875111690E+01  0.731872598E-01  0.280422057E-01
   C  0.916295904E+01 -0.186771619E+00  0.411518480E+00
   H -0.440066695E+02 -0.260340779E+01  0.379008271E+01
   H  0.428049097E+02  0.393097982E+01 -0.541558053E+01
     4
 # iter = 79500  time[fs]=79.50000
   C -0.883056308E+01  0.738954407E-01  0.278350605E-01
   C  0.924527434E+01 -0.188764370E+00  0.415241148E+00
   H -0.443738143E+02 -0.262544263E+01  0.382175112E+01
   H  0.431604224E+02  0.396368413E+01 -0.546104478E+01
     4
 # iter = 80000  time[fs]=80.00000
   C -0.891004129E+01  0.746041953E-01  0.276270759E-01
   C  0.932762150E+01 -0.190757847E+00  0.418964873E+00
   H -0.447410022E+02 -0.264748039E+01  0.385342361E+01
   H  0.435159803E+02  0.399639318E+01 -0.550651572E+01
