     4
 # iter = 25000  time[fs]=25.00000
   C -0.978241315E+00  0.118907270E-02 -0.534072506E-01
   C  0.100374680E+01 -0.237296421E-01  0.322434315E-01
   H -0.518720546E+01  0.597596448E+00  0.704028305E+00
   H  0.528277462E+01 -0.598165695E+00 -0.710861079E+00
     4
 # iter = 25500  time[fs]=25.50000
   C -0.102387384E+01 -0.121650754E-02 -0.571926926E-01
   C  0.104783245E+01 -0.216910418E-01  0.356170509E-01
   H -0.551569147E+01  0.634314604E+00  0.750508416E+00
   H  0.559766725E+01 -0.633497257E+00 -0.756884902E+00
     4
 # iter = 26000  time[fs]=26.00000
   C -0.107244955E+01 -0.361431308E-02 -0.611460688E-01
   C  0.109481780E+01 -0.196547819E-01  0.391678114E-01
   H -0.584929288E+01  0.671666458E+00  0.797755256E+00
   H  0.591819708E+01 -0.669527728E+00 -0.803785937E+00
     4
 # iter = 26500  time[fs]=26.50000
   C -0.112371961E+01 -0.601116198E-02 -0.652559326E-01
   C  0.114445737E+01 -0.176143136E-01  0.428836759E-01
   H -0.618743721E+01  0.709579594E+00  0.845682888E+00
   H  0.624375137E+01 -0.706181460E+00 -0.851471159E+00
     4
 # iter = 27000  time[fs]=27.00000
   C -0.117745296E+01 -0.841244036E-02 -0.695114529E-01
   C  0.119652321E+01 -0.155645293E-01  0.467532509E-01
   H -0.652963786E+01  0.747992838E+00  0.894218539E+00
   H  0.657380633E+01 -0.743393940E+00 -0.899861050E+00
     4
 # iter = 27500  time[fs]=27.50000
   C -0.123343714E+01 -0.108223111E-01 -0.739024402E-01
   C  0.125080568E+01 -0.135015422E-01  0.507658194E-01
   H -0.687547851E+01  0.786854125E+00  0.943300117E+00
   H  0.690791159E+01 -0.781109790E+00 -0.948887184E+00
     4
 # iter = 28000  time[fs]=28.00000
   C -0.129147816E+01 -0.132439180E-01 -0.784193621E-01
   C  0.130711339E+01 -0.114224754E-01  0.549113580E-01
   H -0.722460076E+01  0.826118833E+00  0.992874276E+00
   H  0.724567775E+01 -0.819281182E+00 -0.998490325E+00
     4
 # iter = 28500  time[fs]=28.50000
   C -0.135139983E+01 -0.156795726E-01 -0.830533439E-01
   C  0.136527248E+01 -0.932527195E-02  0.591805375E-01
   H -0.757669435E+01  0.865748469E+00  0.104289489E+01
   H  0.758676631E+01 -0.857866567E+00 -0.104861889E+01
     4
 # iter = 29000  time[fs]=29.00000
   C -0.141304265E+01 -0.181309169E-01 -0.877961566E-01
   C  0.142512560E+01 -0.720853028E-02  0.635647097E-01
   H -0.793148914E+01  0.905709625E+00  0.109332183E+01
   H  0.793088156E+01 -0.896829657E+00 -0.109922773E+01
     4
 # iter = 29500  time[fs]=29.50000
   C -0.147626261E+01 -0.205990608E-01 -0.926401948E-01
   C  0.148653068E+01 -0.507136553E-02  0.680558830E-01
   H -0.828874881E+01  0.945973148E+00  0.114412001E+01
   H  0.827776389E+01 -0.936138594E+00 -0.115027711E+01
     4
 # iter = 30000  time[fs]=30.00000
   C -0.154092981E+01 -0.230846970E-01 -0.975784462E-01
   C  0.154935958E+01 -0.291329557E-02  0.726466893E-01
   H -0.864826553E+01  0.986513458E+00  0.119525857E+01
   H  0.862718439E+01 -0.975765275E+00 -0.120173192E+01
     4
 # iter = 30500  time[fs]=30.50000
   C -0.160692719E+01 -0.255881934E-01 -0.102604457E+00
   C  0.161349683E+01 -0.734148273E-03  0.773303476E-01
   H -0.900985578E+01  0.102730801E+01  0.124671026E+01
   H  0.897894033E+01 -0.101568480E+01 -0.125356096E+01
     4
 # iter = 31000  time[fs]=31.00000
   C -0.167414921E+01 -0.281096687E-01 -0.107712295E+00
   C  0.167883835E+01  0.146601288E-02  0.821006236E-01
   H -0.937335676E+01  0.106833682E+01  0.129845089E+01
   H  0.933285145E+01 -0.105587501E+01 -0.130573643E+01
     4
 # iter = 31500  time[fs]=31.50000
   C -0.174250071E+01 -0.306490522E-01 -0.112896509E+00
   C  0.174529030E+01  0.368694790E-02  0.869517894E-01
   H -0.973862350E+01  0.110958214E+01  0.135045891E+01
   H  0.968875684E+01 -0.109631611E+01 -0.135823345E+01
     4
 # iter = 32000  time[fs]=32.00000
   C -0.181189579E+01 -0.332061312E-01 -0.118152094E+00
   C  0.181276800E+01  0.592828699E-02  0.918785834E-01
   H -0.101055264E+02  0.115102810E+01  0.140271504E+01
   H  0.100465124E+02 -0.113699035E+01 -0.141102968E+01
     4
 # iter = 32500  time[fs]=32.50000
   C -0.188225682E+01 -0.357805888E-01 -0.123474453E+00
   C  0.188119493E+01  0.818956707E-02  0.968761719E-01
   H -0.104739492E+02  0.119266047E+01  0.145520198E+01
   H  0.104059885E+02 -0.117788176E+01 -0.146410495E+01
     4
 # iter = 33000  time[fs]=33.00000
   C -0.195351360E+01 -0.383720326E-01 -0.128859363E+00
   C  0.195050189E+01  0.104702603E-01  0.101940113E+00
   H -0.108437872E+02  0.123446648E+01  0.150790413E+01
   H  0.107670683E+02 -0.121897593E+01 -0.151744104E+01
     4
 # iter = 33500  time[fs]=33.50000
   C -0.202560248E+01 -0.409800184E-01 -0.134302942E+00
   C  0.202062618E+01  0.127697962E-01  0.107066320E+00
   H -0.112149459E+02  0.127643457E+01  0.156080739E+01
   H  0.111296463E+02 -0.126025978E+01 -0.157102144E+01
     4
 # iter = 34000  time[fs]=34.00000
   C -0.209846572E+01 -0.436040672E-01 -0.139801616E+00
   C  0.209151091E+01  0.150875783E-01  0.112251036E+00
   H -0.115873397E+02  0.131855429E+01  0.161389898E+01
   H  0.114936264E+02 -0.130172147E+01 -0.162483110E+01
     4
 # iter = 34500  time[fs]=34.50000
   C -0.217205083E+01 -0.462436791E-01 -0.145352099E+00
   C  0.216310437E+01  0.174229977E-01  0.117490796E+00
   H -0.119608909E+02  0.136081614E+01  0.166716729E+01
   H  0.118589214E+02 -0.134335018E+01 -0.167885632E+01
     4
 # iter = 35000  time[fs]=35.00000
   C -0.224631001E+01 -0.488983440E-01 -0.150951358E+00
   C  0.223535949E+01  0.197754422E-01  0.122782408E+00
   H -0.123355286E+02  0.140321149E+01  0.172060171E+01
   H  0.122254520E+02 -0.138513605E+01 -0.173308456E+01
     4
 # iter = 35500  time[fs]=35.50000
   C -0.232119965E+01 -0.515675491E-01 -0.156596598E+00
   C  0.230823334E+01  0.221443041E-01  0.128122925E+00
   H -0.127111881E+02  0.144573244E+01  0.177419255E+01
   H  0.125931452E+02 -0.142707004E+01 -0.178750431E+01
     4
 # iter = 36000  time[fs]=36.00000
   C -0.239667994E+01 -0.542507853E-01 -0.162285235E+00
   C  0.238168670E+01  0.245289855E-01  0.133509623E+00
   H -0.130878103E+02  0.148837177E+01  0.182793095E+01
   H  0.129619345E+02 -0.146914388E+01 -0.184210502E+01
     4
 # iter = 36500  time[fs]=36.50000
   C -0.247271439E+01 -0.569475512E-01 -0.168014881E+00
   C  0.245568370E+01  0.269289020E-01  0.138939982E+00
   H -0.134653408E+02  0.153112285E+01  0.188180874E+01
   H  0.133317586E+02 -0.151134993E+01 -0.189687696E+01
     4
 # iter = 37000  time[fs]=37.00000
   C -0.254926958E+01 -0.596573567E-01 -0.173783323E+00
   C  0.253019142E+01  0.293434860E-01  0.144411670E+00
   H -0.138437296E+02  0.157397958E+01  0.193581842E+01
   H  0.137025612E+02 -0.155368116E+01 -0.195181116E+01
     4
 # iter = 37500  time[fs]=37.50000
   C -0.262631480E+01 -0.623797251E-01 -0.179588513E+00
   C  0.260517966E+01  0.317721879E-01  0.149922520E+00
   H -0.142229309E+02  0.161693634E+01  0.198995307E+01
   H  0.140742903E+02 -0.159613109E+01 -0.200689932E+01
     4
 # iter = 38000  time[fs]=38.00000
   C -0.270382181E+01 -0.651141945E-01 -0.185428546E+00
   C  0.268062063E+01  0.342144778E-01  0.155470523E+00
   H -0.146029019E+02  0.165998795E+01  0.204420627E+01
   H  0.144468979E+02 -0.163869371E+01 -0.206213375E+01
     4
 # iter = 38500  time[fs]=38.50000
   C -0.278176457E+01 -0.678603190E-01 -0.191301655E+00
   C  0.275648874E+01  0.366698456E-01  0.161053811E+00
   H -0.149836035E+02  0.170312960E+01  0.209857212E+01
   H  0.148203394E+02 -0.168136345E+01 -0.211750732E+01
     4
 # iter = 39000  time[fs]=39.00000
   C -0.286011905E+01 -0.706176694E-01 -0.197206195E+00
   C  0.283276035E+01  0.391378020E-01  0.166670643E+00
   H -0.153649991E+02  0.174635685E+01  0.215304509E+01
   H  0.151945737E+02 -0.172413513E+01 -0.217301339E+01
     4
 # iter = 39500  time[fs]=39.50000
   C -0.293886306E+01 -0.733858330E-01 -0.203140631E+00
   C  0.290941363E+01  0.416178778E-01  0.172319399E+00
   H -0.157470550E+02  0.178966556E+01  0.220762008E+01
   H  0.155695623E+02 -0.176700395E+01 -0.222864580E+01
     4
 # iter = 40000  time[fs]=40.00000
   C -0.301797601E+01 -0.761644139E-01 -0.209103536E+00
   C  0.298642837E+01  0.441096237E-01  0.177998566E+00
   H -0.161297397E+02  0.183305189E+01  0.226229234E+01
   H  0.159452697E+02 -0.180996543E+01 -0.228439877E+01
     4
 # iter = 40500  time[fs]=40.50000
   C -0.309743885E+01 -0.789530328E-01 -0.215093575E+00
   C  0.306378583E+01  0.466126102E-01  0.183706730E+00
   H -0.165130239E+02  0.187651225E+01  0.231705741E+01
   H  0.163216625E+02 -0.185301537E+01 -0.234026694E+01
     4
 # iter = 41000  time[fs]=41.00000
   C -0.317723387E+01 -0.817513265E-01 -0.221109498E+00
   C  0.314146862E+01  0.491264268E-01  0.189442569E+00
   H -0.168968802E+02  0.192004331E+01  0.237191116E+01
   H  0.166987097E+02 -0.189614986E+01 -0.239624526E+01
     4
 # iter = 41500  time[fs]=41.50000
   C -0.325734460E+01 -0.845589475E-01 -0.227150139E+00
   C  0.321946055E+01  0.516506812E-01  0.195204846E+00
   H -0.172812831E+02  0.196364193E+01  0.242684971E+01
   H  0.170763823E+02 -0.193936525E+01 -0.245232903E+01
     4
 # iter = 42000  time[fs]=42.00000
   C -0.333775572E+01 -0.873755638E-01 -0.233214402E+00
   C  0.329774657E+01  0.541849992E-01  0.200992401E+00
   H -0.176662087E+02  0.200730520E+01  0.248186943E+01
   H  0.174546531E+02 -0.198265811E+01 -0.250851382E+01
     4
 # iter = 42500  time[fs]=42.50000
   C -0.341845292E+01 -0.902008577E-01 -0.239301262E+00
   C  0.337631265E+01  0.567290231E-01  0.206804144E+00
   H -0.180516346E+02  0.205103037E+01  0.253696691E+01
   H  0.178334967E+02 -0.202602520E+01 -0.256479549E+01
     4
 # iter = 43000  time[fs]=43.00000
   C -0.349942286E+01 -0.930345259E-01 -0.245409753E+00
   C  0.345514566E+01  0.592824117E-01  0.212639052E+00
   H -0.184375397E+02  0.209481487E+01  0.259213895E+01
   H  0.182128891E+02 -0.206946351E+01 -0.262117011E+01
     4
 # iter = 43500  time[fs]=43.50000
   C -0.358065307E+01 -0.958762786E-01 -0.251538971E+00
   C  0.353423337E+01  0.618448395E-01  0.218496164E+00
   H -0.188239044E+02  0.213865629E+01  0.264738255E+01
   H  0.185928078E+02 -0.211297020E+01 -0.267763403E+01
     4
 # iter = 44000  time[fs]=44.00000
   C -0.366213185E+01 -0.987258390E-01 -0.257688061E+00
   C  0.361356431E+01  0.644159954E-01  0.224374574E+00
   H -0.192107101E+02  0.218255235E+01  0.270269488E+01
   H  0.189732318E+02 -0.215654257E+01 -0.273418377E+01
     4
 # iter = 44500  time[fs]=44.50000
   C -0.374384828E+01 -0.101582942E+00 -0.263856221E+00
   C  0.369312774E+01  0.669955826E-01  0.230273428E+00
   H -0.195979394E+02  0.222650091E+01  0.275807326E+01
   H  0.193541411E+02 -0.220017809E+01 -0.279081606E+01
     4
 # iter = 45000  time[fs]=45.00000
   C -0.382579207E+01 -0.104447336E+00 -0.270042694E+00
   C  0.377291358E+01  0.695833176E-01  0.236191921E+00
   H -0.199855756E+02  0.227049994E+01  0.281351519E+01
   H  0.197355170E+02 -0.224387439E+01 -0.284752782E+01
     4
 # iter = 45500  time[fs]=45.50000
   C -0.390795360E+01 -0.107318778E+00 -0.276246764E+00
   C  0.385291237E+01  0.721789299E-01  0.242129293E+00
   H -0.203736034E+02  0.231454755E+01  0.286901829E+01
   H  0.201173417E+02 -0.228762921E+01 -0.290431613E+01
     4
 # iter = 46000  time[fs]=46.00000
   C -0.399032378E+01 -0.110197038E+00 -0.282467756E+00
   C  0.393311521E+01  0.747821607E-01  0.248084826E+00
   H -0.207620080E+02  0.235864193E+01  0.292458030E+01
   H  0.204995984E+02 -0.233144040E+01 -0.296117822E+01
     4
 # iter = 46500  time[fs]=46.50000
   C -0.407289408E+01 -0.113081896E+00 -0.288705032E+00
   C  0.401351374E+01  0.773927630E-01  0.254057841E+00
   H -0.211507756E+02  0.240278138E+01  0.298019910E+01
   H  0.208822713E+02 -0.237530596E+01 -0.301811147E+01
     4
 # iter = 47000  time[fs]=47.00000
   C -0.415565646E+01 -0.115973139E+00 -0.294957987E+00
   C  0.409410007E+01  0.800105004E-01  0.260047694E+00
   H -0.215398930E+02  0.244696429E+01  0.303587268E+01
   H  0.212653455E+02 -0.241922396E+01 -0.307511340E+01
     4
 # iter = 47500  time[fs]=47.50000
   C -0.423860334E+01 -0.118870566E+00 -0.301226050E+00
   C  0.417486675E+01  0.826351470E-01  0.266053776E+00
   H -0.219293477E+02  0.249118912E+01  0.309159912E+01
   H  0.216488067E+02 -0.246319258E+01 -0.313218165E+01
     4
 # iter = 48000  time[fs]=48.00000
   C -0.432172755E+01 -0.121773984E+00 -0.307508678E+00
   C  0.425580678E+01  0.852664868E-01  0.272075509E+00
   H -0.223191280E+02  0.253545442E+01  0.314737661E+01
   H  0.220326413E+02 -0.250721011E+01 -0.318931399E+01
     4
 # iter = 48500  time[fs]=48.50000
   C -0.440502234E+01 -0.124683208E+00 -0.313805355E+00
   C  0.433691350E+01  0.879043128E-01  0.278112344E+00
   H -0.227092226E+02  0.257975882E+01  0.320320344E+01
   H  0.224168367E+02 -0.255127490E+01 -0.324650828E+01
     4
 # iter = 49000  time[fs]=49.00000
   C -0.448848129E+01 -0.127598060E+00 -0.320115594E+00
   C  0.441818066E+01  0.905484272E-01  0.284163760E+00
   H -0.230996209E+02  0.262410101E+01  0.325907795E+01
   H  0.228013807E+02 -0.259538540E+01 -0.330376250E+01
     4
 # iter = 49500  time[fs]=49.50000
   C -0.457209834E+01 -0.130518371E+00 -0.326438931E+00
   C  0.449960231E+01  0.931986402E-01  0.290229263E+00
   H -0.234903128E+02  0.266847974E+01  0.331499860E+01
   H  0.231862616E+02 -0.263954012E+01 -0.336107473E+01
     4
 # iter = 50000  time[fs]=50.00000
   C -0.465586777E+01 -0.133443979E+00 -0.332774922E+00
   C  0.458117283E+01  0.958547703E-01  0.296308380E+00
   H -0.238812887E+02  0.271289383E+01  0.337096389E+01
   H  0.235714684E+02 -0.268373764E+01 -0.341844312E+01
     4
 # iter = 50500  time[fs]=50.50000
   C -0.473978411E+01 -0.136374727E+00 -0.339123149E+00
   C  0.466288688E+01  0.985166431E-01  0.302400664E+00
   H -0.242725393E+02  0.275734215E+01  0.342697243E+01
   H  0.239569908E+02 -0.272797663E+01 -0.347586593E+01
     4
 # iter = 51000  time[fs]=51.00000
   C -0.482384221E+01 -0.139310466E+00 -0.345483211E+00
   C  0.474473940E+01  0.101184092E+00  0.308505687E+00
   H -0.246640561E+02  0.280182362E+01  0.348302285E+01
   H  0.243428186E+02 -0.277225578E+01 -0.353334147E+01
     4
 # iter = 51500  time[fs]=51.50000
   C -0.490803716E+01 -0.142251052E+00 -0.351854726E+00
   C  0.482672558E+01  0.103856956E+00  0.314623043E+00
   H -0.250558305E+02  0.284633722E+01  0.353911387E+01
   H  0.247289424E+02 -0.281657388E+01 -0.359086815E+01
     4
 # iter = 52000  time[fs]=52.00000
   C -0.499236429E+01 -0.145196348E+00 -0.358237331E+00
   C  0.490884085E+01  0.106535083E+00  0.320752341E+00
   H -0.254478548E+02  0.289088197E+01  0.359524427E+01
   H  0.251153530E+02 -0.286092976E+01 -0.364844445E+01
     4
 # iter = 52500  time[fs]=52.50000
   C -0.507681917E+01 -0.148146222E+00 -0.364630679E+00
   C  0.499108088E+01  0.109218324E+00  0.326893212E+00
   H -0.258401212E+02  0.293545692E+01  0.365141286E+01
   H  0.255020417E+02 -0.290532229E+01 -0.370606890E+01
     4
 # iter = 53000  time[fs]=53.00000
   C -0.516139757E+01 -0.151100546E+00 -0.371034438E+00
   C  0.507344151E+01  0.111906537E+00  0.333045301E+00
   H -0.262326225E+02  0.298006120E+01  0.370761853E+01
   H  0.258890003E+02 -0.294975040E+01 -0.376374012E+01
     4
 # iter = 53500  time[fs]=53.50000
   C -0.524609546E+01 -0.154059198E+00 -0.377448292E+00
   C  0.515591882E+01  0.114599587E+00  0.339208270E+00
   H -0.266253519E+02  0.302469393E+01  0.376386020E+01
   H  0.262762208E+02 -0.299421306E+01 -0.382145675E+01
     4
 # iter = 54000  time[fs]=54.00000
   C -0.533090901E+01 -0.157022062E+00 -0.383871937E+00
   C  0.523850904E+01  0.117297342E+00  0.345381795E+00
   H -0.270183026E+02  0.306935431E+01  0.382013684E+01
   H  0.266636956E+02 -0.303870930E+01 -0.387921752E+01
     4
 # iter = 54500  time[fs]=54.50000
   C -0.541583456E+01 -0.159989025E+00 -0.390305084E+00
   C  0.532120859E+01  0.119999677E+00  0.351565565E+00
   H -0.274114683E+02  0.311404154E+01  0.387644746E+01
   H  0.270514174E+02 -0.308323817E+01 -0.393702121E+01
     4
 # iter = 55000  time[fs]=55.00000
   C -0.550086861E+01 -0.162959977E+00 -0.396747456E+00
   C  0.540401405E+01  0.122706471E+00  0.357759284E+00
   H -0.278048429E+02  0.315875487E+01  0.393279113E+01
   H  0.274393792E+02 -0.312779877E+01 -0.399486662E+01
     4
 # iter = 55500  time[fs]=55.50000
   C -0.558600783E+01 -0.165934815E+00 -0.403198787E+00
   C  0.548692216E+01  0.125417607E+00  0.363962667E+00
   H -0.281984206E+02  0.320349359E+01  0.398916694E+01
   H  0.278275744E+02 -0.317239022E+01 -0.405275264E+01
     4
 # iter = 56000  time[fs]=56.00000
   C -0.567124903E+01 -0.168913437E+00 -0.409658823E+00
   C  0.556992979E+01  0.128132972E+00  0.370175443E+00
   H -0.285921958E+02  0.324825700E+01  0.404557401E+01
   H  0.282159964E+02 -0.321701171E+01 -0.411067817E+01
     4
 # iter = 56500  time[fs]=56.50000
   C -0.575658915E+01 -0.171895748E+00 -0.416127319E+00
   C  0.565303396E+01  0.130852459E+00  0.376397349E+00
   H -0.289861631E+02  0.329304444E+01  0.410201151E+01
   H  0.286046393E+02 -0.326166243E+01 -0.416864217E+01
     4
 # iter = 57000  time[fs]=57.00000
   C -0.584202528E+01 -0.174881653E+00 -0.422604042E+00
   C  0.573623181E+01  0.133575963E+00  0.382628135E+00
   H -0.293803173E+02  0.333785526E+01  0.415847863E+01
   H  0.289934970E+02 -0.330634161E+01 -0.422664365E+01
     4
 # iter = 57500  time[fs]=57.50000
   C -0.592755462E+01 -0.177871063E+00 -0.429088765E+00
   C  0.581952061E+01  0.136303385E+00  0.388867560E+00
   H -0.297746536E+02  0.338268886E+01  0.421497462E+01
   H  0.293825638E+02 -0.335104851E+01 -0.428468163E+01
     4
 # iter = 58000  time[fs]=58.00000
   C -0.601317450E+01 -0.180863891E+00 -0.435581275E+00
   C  0.590289774E+01  0.139034627E+00  0.395115393E+00
   H -0.301691670E+02  0.342754465E+01  0.427149871E+01
   H  0.297718344E+02 -0.339578243E+01 -0.434275518E+01
     4
 # iter = 58500  time[fs]=58.50000
   C -0.609888234E+01 -0.183860053E+00 -0.442081363E+00
   C  0.598636068E+01  0.141769596E+00  0.401371410E+00
   H -0.305638532E+02  0.347242205E+01  0.432805021E+01
   H  0.301613034E+02 -0.344054268E+01 -0.440086342E+01
     4
 # iter = 59000  time[fs]=59.00000
   C -0.618467569E+01 -0.186859469E+00 -0.448588829E+00
   C  0.606990704E+01  0.144508201E+00  0.407635399E+00
   H -0.309587075E+02  0.351732053E+01  0.438462843E+01
   H  0.305509658E+02 -0.348532861E+01 -0.445900548E+01
     4
 # iter = 59500  time[fs]=59.50000
   C -0.627055218E+01 -0.189862060E+00 -0.455103483E+00
   C  0.615353449E+01  0.147250357E+00  0.413907153E+00
   H -0.313537259E+02  0.356223956E+01  0.444123269E+01
   H  0.309408167E+02 -0.353013957E+01 -0.451718054E+01
     4
 # iter = 60000  time[fs]=60.00000
   C -0.635650954E+01 -0.192867752E+00 -0.461625139E+00
   C  0.623724082E+01  0.149995979E+00  0.420186475E+00
   H -0.317489043E+02  0.360717863E+01  0.449786237E+01
   H  0.313308515E+02 -0.357497497E+01 -0.457538779E+01
     4
 # iter = 60500  time[fs]=60.50000
   C -0.644254559E+01 -0.195876471E+00 -0.468153620E+00
   C  0.632102390E+01  0.152744985E+00  0.426473174E+00
   H -0.321442386E+02  0.365213725E+01  0.455451685E+01
   H  0.317210656E+02 -0.361983420E+01 -0.463362647E+01
     4
 # iter = 61000  time[fs]=61.00000
   C -0.652865824E+01 -0.198888147E+00 -0.474688755E+00
   C  0.640488168E+01  0.155497298E+00  0.432767066E+00
   H -0.325397251E+02  0.369711496E+01  0.461119554E+01
   H  0.321114547E+02 -0.366471671E+01 -0.469189582E+01
     4
 # iter = 61500  time[fs]=61.50000
   C -0.661484549E+01 -0.201902713E+00 -0.481230379E+00
   C  0.648881220E+01  0.158252842E+00  0.439067975E+00
   H -0.329353601E+02  0.374211130E+01  0.466789786E+01
   H  0.325020145E+02 -0.370962195E+01 -0.475019514E+01
     4
 # iter = 62000  time[fs]=62.00000
   C -0.670110538E+01 -0.204920103E+00 -0.487778333E+00
   C  0.657281356E+01  0.161011543E+00  0.445375729E+00
   H -0.333311402E+02  0.378712583E+01  0.472462326E+01
   H  0.328927411E+02 -0.375454938E+01 -0.480852373E+01
     4
 # iter = 62500  time[fs]=62.50000
   C -0.678743605E+01 -0.207940253E+00 -0.494332463E+00
   C  0.665688394E+01  0.163773331E+00  0.451690164E+00
   H -0.337270618E+02  0.383215813E+01  0.478137122E+01
   H  0.332836304E+02 -0.379949849E+01 -0.486688092E+01
     4
 # iter = 63000  time[fs]=63.00000
   C -0.687383572E+01 -0.210963102E+00 -0.500892623E+00
   C  0.674102158E+01  0.166538137E+00  0.458011122E+00
   H -0.341231218E+02  0.387720779E+01  0.483814121E+01
   H  0.336746789E+02 -0.384446880E+01 -0.492526607E+01
     4
 # iter = 63500  time[fs]=63.50000
   C -0.696030265E+01 -0.213988591E+00 -0.507458669E+00
   C  0.682522479E+01  0.169305894E+00  0.464338448E+00
   H -0.345193169E+02  0.392227442E+01  0.489493273E+01
   H  0.340658826E+02 -0.388945982E+01 -0.498367854E+01
     4
 # iter = 64000  time[fs]=64.00000
   C -0.704683517E+01 -0.217016661E+00 -0.514030464E+00
   C  0.690949195E+01  0.172076539E+00  0.470671995E+00
   H -0.349156441E+02  0.396735763E+01  0.495174532E+01
   H  0.344572383E+02 -0.393447110E+01 -0.504211774E+01
     4
 # iter = 64500  time[fs]=64.50000
   C -0.713343168E+01 -0.220047257E+00 -0.520607875E+00
   C  0.699382149E+01  0.174850008E+00  0.477011620E+00
   H -0.353121005E+02  0.401245706E+01  0.500857849E+01
   H  0.348487424E+02 -0.397950218E+01 -0.510058307E+01
     4
 # iter = 65000  time[fs]=65.00000
   C -0.722009064E+01 -0.223080325E+00 -0.527190772E+00
   C  0.707821189E+01  0.177626243E+00  0.483357185E+00
   H -0.357086830E+02  0.405757236E+01  0.506543181E+01
   H  0.352403917E+02 -0.402455263E+01 -0.515907398E+01
     4
 # iter = 65500  time[fs]=65.50000
   C -0.730681054E+01 -0.226115813E+00 -0.533779032E+00
   C  0.716266170E+01  0.180405184E+00  0.489708556E+00
   H -0.361053890E+02  0.410270316E+01  0.512230484E+01
   H  0.356321830E+02 -0.406962205E+01 -0.521758992E+01
     4
 # iter = 66000  time[fs]=66.00000
   C -0.739358994E+01 -0.229153669E+00 -0.540372535E+00
   C  0.724716950E+01  0.183186775E+00  0.496065604E+00
   H -0.365022158E+02  0.414784916E+01  0.517919714E+01
   H  0.360241131E+02 -0.411471002E+01 -0.527613035E+01
     4
 # iter = 66500  time[fs]=66.50000
   C -0.748042745E+01 -0.232193846E+00 -0.546971164E+00
   C  0.733173393E+01  0.185970961E+00  0.502428204E+00
   H -0.368991608E+02  0.419301001E+01  0.523610833E+01
   H  0.364161792E+02 -0.415981615E+01 -0.533469476E+01
     4
 # iter = 67000  time[fs]=67.00000
   C -0.756732173E+01 -0.235236294E+00 -0.553574808E+00
   C  0.741635368E+01  0.188757689E+00  0.508796234E+00
   H -0.372962215E+02  0.423818540E+01  0.529303799E+01
   H  0.368083783E+02 -0.420494006E+01 -0.539328265E+01
     4
 # iter = 67500  time[fs]=67.50000
   C -0.765427147E+01 -0.238280968E+00 -0.560183357E+00
   C  0.750102748E+01  0.191546906E+00  0.515169578E+00
   H -0.376933954E+02  0.428337504E+01  0.534998576E+01
   H  0.372007076E+02 -0.425008138E+01 -0.545189354E+01
     4
 # iter = 68000  time[fs]=68.00000
   C -0.774127541E+01 -0.241327823E+00 -0.566796705E+00
   C  0.758575410E+01  0.194338564E+00  0.521548122E+00
   H -0.380906802E+02  0.432857863E+01  0.540695125E+01
   H  0.375931644E+02 -0.429523977E+01 -0.551052696E+01
     4
 # iter = 68500  time[fs]=68.50000
   C -0.782833235E+01 -0.244376815E+00 -0.573414751E+00
   C  0.767053235E+01  0.197132612E+00  0.527931757E+00
   H -0.384880735E+02  0.437379588E+01  0.546393410E+01
   H  0.379857460E+02 -0.434041486E+01 -0.556918246E+01
     4
 # iter = 69000  time[fs]=69.00000
   C -0.791544110E+01 -0.247427902E+00 -0.580037396E+00
   C  0.775536109E+01  0.199929005E+00  0.534320376E+00
   H -0.388855732E+02  0.441902652E+01  0.552093397E+01
   H  0.383784500E+02 -0.438560633E+01 -0.562785959E+01
     4
 # iter = 69500  time[fs]=69.50000
   C -0.800260053E+01 -0.250481043E+00 -0.586664545E+00
   C  0.784023921E+01  0.202727695E+00  0.540713875E+00
   H -0.392831771E+02  0.446427028E+01  0.557795052E+01
   H  0.387712738E+02 -0.443081385E+01 -0.568655794E+01
     4
 # iter = 70000  time[fs]=70.00000
   C -0.808980954E+01 -0.253536197E+00 -0.593296103E+00
   C  0.792516562E+01  0.205528639E+00  0.547112154E+00
   H -0.396808832E+02  0.450952689E+01  0.563498342E+01
   H  0.391642151E+02 -0.447603710E+01 -0.574527707E+01
     4
 # iter = 70500  time[fs]=70.50000
   C -0.817706705E+01 -0.256593327E+00 -0.599931981E+00
   C  0.801013929E+01  0.208331793E+00  0.553515118E+00
   H -0.400786893E+02  0.455479611E+01  0.569203234E+01
   H  0.395572715E+02 -0.452127578E+01 -0.580401660E+01
     4
 # iter = 71000  time[fs]=71.00000
   C -0.826437204E+01 -0.259652393E+00 -0.606572092E+00
   C  0.809515920E+01  0.211137115E+00  0.559922670E+00
   H -0.404765936E+02  0.460007770E+01  0.574909698E+01
   H  0.399504408E+02 -0.456652960E+01 -0.586277612E+01
     4
 # iter = 71500  time[fs]=71.50000
   C -0.835172351E+01 -0.262713361E+00 -0.613216351E+00
   C  0.818022439E+01  0.213944564E+00  0.566334720E+00
   H -0.408745941E+02  0.464537140E+01  0.580617704E+01
   H  0.403437207E+02 -0.461179825E+01 -0.592155526E+01
     4
 # iter = 72000  time[fs]=72.00000
   C -0.843912048E+01 -0.265776193E+00 -0.619864675E+00
   C  0.826533390E+01  0.216754101E+00  0.572751180E+00
   H -0.412726889E+02  0.469067700E+01  0.586327223E+01
   H  0.407371091E+02 -0.465708146E+01 -0.598035365E+01
     4
 # iter = 72500  time[fs]=72.50000
   C -0.852656201E+01 -0.268840855E+00 -0.626516985E+00
   C  0.835048682E+01  0.219565685E+00  0.579171962E+00
   H -0.416708763E+02  0.473599426E+01  0.592038225E+01
   H  0.411306040E+02 -0.470237895E+01 -0.603917092E+01
     4
 # iter = 73000  time[fs]=73.00000
   C -0.861404720E+01 -0.271907314E+00 -0.633173203E+00
   C  0.843568225E+01  0.222379281E+00  0.585596983E+00
   H -0.420691545E+02  0.478132297E+01  0.597750684E+01
   H  0.415242033E+02 -0.474769046E+01 -0.609800674E+01
     4
 # iter = 73500  time[fs]=73.50000
   C -0.870157515E+01 -0.274975537E+00 -0.639833253E+00
   C  0.852091934E+01  0.225194850E+00  0.592026163E+00
   H -0.424675218E+02  0.482666291E+01  0.603464571E+01
   H  0.419179052E+02 -0.479301574E+01 -0.615686075E+01
     4
 # iter = 74000  time[fs]=74.00000
   C -0.878914500E+01 -0.278045491E+00 -0.646497063E+00
   C  0.860619724E+01  0.228012359E+00  0.598459421E+00
   H -0.428659766E+02  0.487201388E+01  0.609179863E+01
   H  0.423117075E+02 -0.483835452E+01 -0.621573263E+01
     4
 # iter = 74500  time[fs]=74.50000
   C -0.887675593E+01 -0.281117146E+00 -0.653164560E+00
   C  0.869151513E+01  0.230831770E+00  0.604896682E+00
   H -0.432645171E+02  0.491737568E+01  0.614896531E+01
   H  0.427056087E+02 -0.488370657E+01 -0.627462205E+01
     4
 # iter = 75000  time[fs]=75.00000
   C -0.896440713E+01 -0.284190471E+00 -0.659835677E+00
   C  0.877687224E+01  0.233653052E+00  0.611337869E+00
   H -0.436631420E+02  0.496274811E+01  0.620614553E+01
   H  0.430996067E+02 -0.492907164E+01 -0.633352870E+01
     4
 # iter = 75500  time[fs]=75.50000
   C -0.905209780E+01 -0.287265437E+00 -0.666510345E+00
   C  0.886226779E+01  0.236476171E+00  0.617782912E+00
   H -0.440618496E+02  0.500813098E+01  0.626333904E+01
   H  0.434936999E+02 -0.497444951E+01 -0.639245229E+01
     4
 # iter = 76000  time[fs]=76.00000
   C -0.913982719E+01 -0.290342015E+00 -0.673188499E+00
   C  0.894770103E+01  0.239301094E+00  0.624231738E+00
   H -0.444606385E+02  0.505352411E+01  0.632054559E+01
   H  0.438878866E+02 -0.501983995E+01 -0.645139250E+01
     4
 # iter = 76500  time[fs]=76.50000
   C -0.922759455E+01 -0.293420177E+00 -0.679870075E+00
   C  0.903317125E+01  0.242127791E+00  0.630684280E+00
   H -0.448595072E+02  0.509892731E+01  0.637776498E+01
   H  0.442821650E+02 -0.506524273E+01 -0.651034905E+01
     4
 # iter = 77000  time[fs]=77.00000
   C -0.931539916E+01 -0.296499895E+00 -0.686555012E+00
   C  0.911867774E+01  0.244956231E+00  0.637140470E+00
   H -0.452584543E+02  0.514434041E+01  0.643499696E+01
   H  0.446765337E+02 -0.511065765E+01 -0.656932166E+01
     4
 # iter = 77500  time[fs]=77.50000
   C -0.940324031E+01 -0.299581144E+00 -0.693243248E+00
   C  0.920421981E+01  0.247786385E+00  0.643600244E+00
   H -0.456574784E+02  0.518976324E+01  0.649224133E+01
   H  0.450709910E+02 -0.515608450E+01 -0.662831005E+01
     4
 # iter = 78000  time[fs]=78.00000
   C -0.949111734E+01 -0.302663897E+00 -0.699934726E+00
   C  0.928979680E+01  0.250618222E+00  0.650063537E+00
   H -0.460565782E+02  0.523519562E+01  0.654949787E+01
   H  0.454655353E+02 -0.520152307E+01 -0.668731396E+01
     4
 # iter = 78500  time[fs]=78.50000
   C -0.957902957E+01 -0.305748129E+00 -0.706629388E+00
   C  0.937540807E+01  0.253451716E+00  0.656530288E+00
   H -0.464557525E+02  0.528063741E+01  0.660676638E+01
   H  0.458601652E+02 -0.524697316E+01 -0.674633312E+01
     4
 # iter = 79000  time[fs]=79.00000
   C -0.966697636E+01 -0.308833815E+00 -0.713327178E+00
   C  0.946105298E+01  0.256286838E+00  0.663000437E+00
   H -0.468549999E+02  0.532608843E+01  0.666404666E+01
   H  0.462548793E+02 -0.529243458E+01 -0.680536729E+01
     4
 # iter = 79500  time[fs]=79.50000
   C -0.975495707E+01 -0.311920932E+00 -0.720028042E+00
   C  0.954673092E+01  0.259123562E+00  0.669473925E+00
   H -0.472543191E+02  0.537154854E+01  0.672133850E+01
   H  0.466496760E+02 -0.533790715E+01 -0.686441620E+01
     4
 # iter = 80000  time[fs]=80.00000
   C -0.984297111E+01 -0.315009455E+00 -0.726731927E+00
   C  0.963244129E+01  0.261961862E+00  0.675950695E+00
   H -0.476537091E+02  0.541701759E+01  0.677864172E+01
   H  0.470445541E+02 -0.538339067E+01 -0.692347962E+01
