     4
 # iter = 25000  time[fs]=25.00000
   C -0.102284585E+01  0.350021208E-02 -0.112217279E-02
   C  0.926968346E+00  0.157388595E-01 -0.323313672E-01
   H -0.522251789E+01  0.518939782E+00  0.340119737E+00
   H  0.511849071E+01 -0.271956717E+00  0.286246748E+00
     4
 # iter = 25500  time[fs]=25.50000
   C -0.107026744E+01  0.172830607E-02 -0.174805304E-02
   C  0.965031164E+00  0.165865715E-01 -0.336490152E-01
   H -0.555506539E+01  0.551314979E+00  0.361756746E+00
   H  0.543165477E+01 -0.291683799E+00  0.305433815E+00
     4
 # iter = 26000  time[fs]=26.00000
   C -0.112065167E+01 -0.907729580E-04 -0.235107924E-02
   C  0.100599153E+01  0.174677416E-01 -0.350525689E-01
   H -0.589286612E+01  0.584238986E+00  0.383756667E+00
   H  0.575085309E+01 -0.311795112E+00  0.325014590E+00
     4
 # iter = 26500  time[fs]=26.50000
   C -0.117375532E+01 -0.195484359E-02 -0.293324899E-02
   C  0.104961305E+01  0.183819373E-01 -0.365329177E-01
   H -0.623532807E+01  0.617649489E+00  0.406078010E+00
   H  0.607541197E+01 -0.332249329E+00  0.344945207E+00
     4
 # iter = 27000  time[fs]=27.00000
   C -0.122935097E+01 -0.386174696E-02 -0.349649490E-02
   C  0.109567419E+01  0.193284477E-01 -0.380821114E-01
   H -0.658194864E+01  0.651493818E+00  0.428685734E+00
   H  0.640475794E+01 -0.353011155E+00  0.365188494E+00
     4
 # iter = 27500  time[fs]=27.50000
   C -0.128722824E+01 -0.580934573E-02 -0.404263426E-02
   C  0.114396970E+01  0.203063456E-01 -0.396932036E-01
   H -0.693229827E+01  0.685727117E+00  0.451550023E+00
   H  0.673839993E+01 -0.374050256E+00  0.385712721E+00
     4
 # iter = 28000  time[fs]=28.00000
   C -0.134719408E+01 -0.779553584E-02 -0.457334384E-02
   C  0.119431101E+01  0.213145477E-01 -0.413601150E-01
   H -0.728600762E+01  0.720310912E+00  0.474645319E+00
   H  0.707591493E+01 -0.395340407E+00  0.406490615E+00
     4
 # iter = 28500  time[fs]=28.50000
   C -0.140907236E+01 -0.981826217E-02 -0.509015100E-02
   C  0.124652589E+01  0.223518667E-01 -0.430775150E-01
   H -0.764275718E+01  0.755211988E+00  0.497949579E+00
   H  0.741693653E+01 -0.416858809E+00  0.427498577E+00
     4
 # iter = 29000  time[fs]=29.00000
   C -0.147270307E+01 -0.118755338E-01 -0.559443473E-02
   C  0.130045778E+01  0.234170547E-01 -0.448407189E-01
   H -0.800226907E+01  0.790401500E+00  0.521443672E+00
   H  0.776114564E+01 -0.438585530E+00  0.448716074E+00
     4
 # iter = 29500  time[fs]=29.50000
   C -0.153794124E+01 -0.139654365E-01 -0.608743272E-02
   C  0.135596471E+01  0.245088382E-01 -0.466455999E-01
   H -0.836430032E+01  0.825854254E+00  0.545110898E+00
   H  0.810826303E+01 -0.460503065E+00  0.470125132E+00
     4
 # iter = 30000  time[fs]=30.00000
   C -0.160465579E+01 -0.160861421E-01 -0.657025151E-02
   C  0.141291829E+01  0.256259444E-01 -0.484885131E-01
   H -0.872863747E+01  0.861548127E+00  0.568936609E+00
   H  0.845804317E+01 -0.482595961E+00  0.491709942E+00
     4
 # iter = 30500  time[fs]=30.50000
   C -0.167272826E+01 -0.182359137E-01 -0.704387800E-02
   C  0.147120242E+01  0.267671217E-01 -0.503662308E-01
   H -0.909509213E+01  0.897463607E+00  0.592907887E+00
   H  0.881026915E+01 -0.504850520E+00  0.513456531E+00
     4
 # iter = 31000  time[fs]=31.00000
   C -0.174205166E+01 -0.204131093E-01 -0.750919125E-02
   C  0.153071224E+01  0.279311529E-01 -0.522758866E-01
   H -0.946349729E+01  0.933583395E+00  0.617013293E+00
   H  0.916474863E+01 -0.527254548E+00  0.535352491E+00
     4
 # iter = 31500  time[fs]=31.50000
   C -0.181252935E+01 -0.226161820E-01 -0.796697397E-02
   C  0.159135298E+01  0.291168657E-01 -0.542149279E-01
   H -0.983370431E+01  0.969892097E+00  0.641242650E+00
   H  0.952131027E+01 -0.549797146E+00  0.557386759E+00
     4
 # iter = 32000  time[fs]=32.00000
   C -0.188407397E+01 -0.248436785E-01 -0.841792315E-02
   C  0.165303899E+01  0.303231387E-01 -0.561810753E-01
   H -0.102055804E+02  0.100637596E+01  0.665586871E+00
   H  0.987980095E+01 -0.572468539E+00  0.579549434E+00
     4
 # iter = 32500  time[fs]=32.50000
   C -0.195660647E+01 -0.270942365E-01 -0.886265990E-02
   C  0.171569274E+01  0.315489046E-01 -0.581722874E-01
   H -0.105790064E+02  0.104302264E+01  0.690037809E+00
   H  0.102400833E+02 -0.595259927E+00  0.601831619E+00
     4
 # iter = 33000  time[fs]=33.00000
   C -0.203005526E+01 -0.293665814E-01 -0.930173824E-02
   C  0.177924402E+01  0.327931519E-01 -0.601867311E-01
   H -0.109538753E+02  0.107982103E+01  0.714588135E+00
   H  0.106020336E+02 -0.618163363E+00  0.624225294E+00
     4
 # iter = 33500  time[fs]=33.50000
   C -0.210435540E+01 -0.316595215E-01 -0.973565299E-02
   C  0.184362912E+01  0.340549250E-01 -0.622227560E-01
   H -0.113300903E+02  0.111676111E+01  0.739231236E+00
   H  0.109655404E+02 -0.641171650E+00  0.646723206E+00
     4
 # iter = 34000  time[fs]=34.00000
   C -0.217944792E+01 -0.339719442E-01 -0.101648467E-01
   C  0.190879022E+01  0.353333232E-01 -0.642788719E-01
   H -0.117075639E+02  0.115383379E+01  0.763961122E+00
   H  0.113305023E+02 -0.664278247E+00  0.669318773E+00
     4
 # iter = 34500  time[fs]=34.50000
   C -0.225527917E+01 -0.363028104E-01 -0.105897160E-01
   C  0.197467468E+01  0.366274989E-01 -0.663537303E-01
   H -0.120862165E+02  0.119103081E+01  0.788772355E+00
   H  0.116968277E+02 -0.687477195E+00  0.692006010E+00
     4
 # iter = 35000  time[fs]=35.00000
   C -0.233180028E+01 -0.386511505E-01 -0.110106167E-01
   C  0.204123458E+01  0.379366557E-01 -0.684461073E-01
   H -0.124659758E+02  0.122834466E+01  0.813659981E+00
   H  0.120644328E+02 -0.710763053E+00  0.714779452E+00
     4
 # iter = 35500  time[fs]=35.50000
   C -0.240896663E+01 -0.410160593E-01 -0.114278686E-01
   C  0.210842615E+01  0.392600456E-01 -0.705548899E-01
   H -0.128467757E+02  0.126576845E+01  0.838619480E+00
   H  0.124332413E+02 -0.734130836E+00  0.737634105E+00
     4
 # iter = 36000  time[fs]=36.00000
   C -0.248673745E+01 -0.433966918E-01 -0.118417600E-01
   C  0.217620941E+01  0.405969666E-01 -0.726790634E-01
   H -0.132285557E+02  0.130329591E+01  0.863646712E+00
   H  0.128031833E+02 -0.757575971E+00  0.760565388E+00
     4
 # iter = 36500  time[fs]=36.50000
   C -0.256507542E+01 -0.457922588E-01 -0.122525506E-01
   C  0.224454776E+01  0.419467601E-01 -0.748177004E-01
   H -0.136112603E+02  0.134092126E+01  0.888737879E+00
   H  0.131741946E+02 -0.781094248E+00  0.783569090E+00
     4
 # iter = 37000  time[fs]=37.00000
   C -0.264394628E+01 -0.482020228E-01 -0.126604757E-01
   C  0.231340761E+01  0.433088082E-01 -0.769699518E-01
   H -0.139948386E+02  0.137863918E+01  0.913889489E+00
   H  0.135462164E+02 -0.804681789E+00  0.806641335E+00
     4
 # iter = 37500  time[fs]=37.50000
   C -0.272331859E+01 -0.506252945E-01 -0.130657478E-01
   C  0.238275812E+01  0.446825310E-01 -0.791350384E-01
   H -0.143792436E+02  0.141644477E+01  0.939098324E+00
   H  0.139191942E+02 -0.828335011E+00  0.829778542E+00
     4
 # iter = 38000  time[fs]=38.00000
   C -0.280316340E+01 -0.530614288E-01 -0.134685602E-01
   C  0.245257091E+01  0.460673843E-01 -0.813122436E-01
   H -0.147644319E+02  0.145433352E+01  0.964361411E+00
   H  0.142930780E+02 -0.852050595E+00  0.852977403E+00
     4
 # iter = 38500  time[fs]=38.50000
   C -0.288345404E+01 -0.555098221E-01 -0.138690883E-01
   C  0.252281984E+01  0.474628571E-01 -0.835009072E-01
   H -0.151503634E+02  0.149230122E+01  0.989676000E+00
   H  0.146678213E+02 -0.875825468E+00  0.876234851E+00
     4
 # iter = 39000  time[fs]=39.00000
   C -0.296416588E+01 -0.579699086E-01 -0.142674918E-01
   C  0.259348077E+01  0.488684693E-01 -0.857004198E-01
   H -0.155370009E+02  0.153034401E+01  0.101503954E+01
   H  0.150433811E+02 -0.899656772E+00  0.899548039E+00
     4
 # iter = 39500  time[fs]=39.50000
   C -0.304527616E+01 -0.604411580E-01 -0.146639164E-01
   C  0.266453137E+01  0.502837697E-01 -0.879102180E-01
   H -0.159243100E+02  0.156845826E+01  0.104044967E+01
   H  0.154197175E+02 -0.923541849E+00  0.922914321E+00
     4
 # iter = 40000  time[fs]=40.00000
   C -0.312676379E+01 -0.629230726E-01 -0.150584952E-01
   C  0.273595100E+01  0.517083342E-01 -0.901297796E-01
   H -0.163122586E+02  0.160664062E+01  0.106590418E+01
   H  0.157967935E+02 -0.947478221E+00  0.946331231E+00
     4
 # iter = 40500  time[fs]=40.50000
   C -0.320860925E+01 -0.654151851E-01 -0.154513500E-01
   C  0.280772050E+01  0.531417634E-01 -0.923586204E-01
   H -0.167008168E+02  0.164488796E+01  0.109140103E+01
   H  0.161745744E+02 -0.971463578E+00  0.969796470E+00
     4
 # iter = 41000  time[fs]=41.00000
   C -0.329079437E+01 -0.679170562E-01 -0.158425924E-01
   C  0.287982209E+01  0.545836815E-01 -0.945962900E-01
   H -0.170899567E+02  0.168319736E+01  0.111693829E+01
   H  0.165530280E+02 -0.995495756E+00  0.993307889E+00
     4
 # iter = 41500  time[fs]=41.50000
   C -0.337330228E+01 -0.704282726E-01 -0.162323249E-01
   C  0.295223922E+01  0.560337340E-01 -0.968423695E-01
   H -0.174796523E+02  0.172156609E+01  0.114251418E+01
   H  0.169321242E+02 -0.101957273E+01  0.101686348E+01
     4
 # iter = 42000  time[fs]=42.00000
   C -0.345611726E+01 -0.729484453E-01 -0.166206416E-01
   C  0.302495651E+01  0.574915871E-01 -0.990964681E-01
   H -0.178698792E+02  0.175999160E+01  0.116812703E+01
   H  0.173118347E+02 -0.104369261E+01  0.104046135E+01
     4
 # iter = 42500  time[fs]=42.50000
   C -0.353922466E+01 -0.754772077E-01 -0.170076294E-01
   C  0.309795960E+01  0.589569255E-01 -0.101358221E+00
   H -0.182606147E+02  0.179847147E+01  0.119377526E+01
   H  0.176921333E+02 -0.106785362E+01  0.106409975E+01
     4
 # iter = 43000  time[fs]=43.00000
   C -0.362261080E+01 -0.780142139E-01 -0.173933680E-01
   C  0.317123509E+01  0.604294515E-01 -0.103627288E+00
   H -0.186518374E+02  0.183700347E+01  0.121945740E+01
   H  0.180729951E+02 -0.109205407E+01  0.108777701E+01
     4
 # iter = 43500  time[fs]=43.50000
   C -0.370626289E+01 -0.805591377E-01 -0.177779315E-01
   C  0.324477045E+01  0.619088838E-01 -0.105903348E+00
   H -0.190435272E+02  0.187558549E+01  0.124517207E+01
   H  0.184543969E+02 -0.111629239E+01  0.111149157E+01
     4
 # iter = 44000  time[fs]=44.00000
   C -0.379016896E+01 -0.831116708E-01 -0.181613880E-01
   C  0.331855396E+01  0.633949564E-01 -0.108186104E+00
   H -0.194356651E+02  0.191421552E+01  0.127091796E+01
   H  0.188363168E+02 -0.114056711E+01  0.113524195E+01
     4
 # iter = 44500  time[fs]=44.50000
   C -0.387431780E+01 -0.856715217E-01 -0.185438008E-01
   C  0.339257465E+01  0.648874175E-01 -0.110475274E+00
   H -0.198282333E+02  0.195289169E+01  0.129669386E+01
   H  0.192187342E+02 -0.116487682E+01  0.115902678E+01
     4
 # iter = 45000  time[fs]=45.00000
   C -0.395869889E+01 -0.882384145E-01 -0.189252285E-01
   C  0.346682220E+01  0.663860286E-01 -0.112770594E+00
   H -0.202212152E+02  0.199161224E+01  0.132249860E+01
   H  0.196016298E+02 -0.118922021E+01  0.118284475E+01
     4
 # iter = 45500  time[fs]=45.50000
   C -0.404330234E+01 -0.908120882E-01 -0.193057254E-01
   C  0.354128695E+01  0.678905638E-01 -0.115071816E+00
   H -0.206145949E+02  0.203037550E+01  0.134833109E+01
   H  0.199849851E+02 -0.121359601E+01  0.120669462E+01
     4
 # iter = 46000  time[fs]=46.00000
   C -0.412811886E+01 -0.933922951E-01 -0.196853422E-01
   C  0.361595980E+01  0.694008087E-01 -0.117378706E+00
   H -0.210083575E+02  0.206917989E+01  0.137419031E+01
   H  0.203687830E+02 -0.123800307E+01  0.123057523E+01
     4
 # iter = 46500  time[fs]=46.50000
   C -0.421313971E+01 -0.959788007E-01 -0.200641257E-01
   C  0.369083220E+01  0.709165597E-01 -0.119691044E+00
   H -0.214024887E+02  0.210802391E+01  0.140007527E+01
   H  0.207530070E+02 -0.126244025E+01  0.125448546E+01
     4
 # iter = 47000  time[fs]=47.00000
   C -0.429835666E+01 -0.985713821E-01 -0.204421199E-01
   C  0.376589608E+01  0.724376237E-01 -0.122008621E+00
   H -0.217969754E+02  0.214690616E+01  0.142598506E+01
   H  0.211376418E+02 -0.128690650E+01  0.127842427E+01
     4
 # iter = 47500  time[fs]=47.50000
   C -0.438376193E+01 -0.101169828E+00 -0.208193655E-01
   C  0.384114383E+01  0.739638169E-01 -0.124331241E+00
   H -0.221918047E+02  0.218582528E+01  0.145191879E+01
   H  0.215226725E+02 -0.131140081E+01  0.130239066E+01
     4
 # iter = 48000  time[fs]=48.00000
   C -0.446934818E+01 -0.103773936E+00 -0.211959008E-01
   C  0.391656829E+01  0.754949646E-01 -0.126658719E+00
   H -0.225869647E+02  0.222478002E+01  0.147787565E+01
   H  0.219080854E+02 -0.133592223E+01  0.132638370E+01
     4
 # iter = 48500  time[fs]=48.50000
   C -0.455510851E+01 -0.106383516E+00 -0.215717614E-01
   C  0.399216268E+01  0.770309006E-01 -0.128990877E+00
   H -0.229824440E+02  0.226376916E+01  0.150385483E+01
   H  0.222938672E+02 -0.136046985E+01  0.135040248E+01
     4
 # iter = 49000  time[fs]=49.00000
   C -0.464103633E+01 -0.108998386E+00 -0.219469805E-01
   C  0.406792058E+01  0.785714665E-01 -0.131327550E+00
   H -0.233782318E+02  0.230279155E+01  0.152985559E+01
   H  0.226800055E+02 -0.138504281E+01  0.137444616E+01
     4
 # iter = 49500  time[fs]=49.50000
   C -0.472712547E+01 -0.111618372E+00 -0.223215895E-01
   C  0.414383592E+01  0.801165112E-01 -0.133668579E+00
   H -0.237743177E+02  0.234184610E+01  0.155587722E+01
   H  0.230664882E+02 -0.140964028E+01  0.139851392E+01
     4
 # iter = 50000  time[fs]=50.00000
   C -0.481337003E+01 -0.114243308E+00 -0.226956175E-01
   C  0.421990295E+01  0.816658910E-01 -0.136013814E+00
   H -0.241706920E+02  0.238093178E+01  0.158191905E+01
   H  0.234533042E+02 -0.143426149E+01  0.142260499E+01
     4
 # iter = 50500  time[fs]=50.50000
   C -0.489976445E+01 -0.116873038E+00 -0.230690922E-01
   C  0.429611623E+01  0.832194684E-01 -0.138363112E+00
   H -0.245673454E+02  0.242004759E+01  0.160798041E+01
   H  0.238404425E+02 -0.145890569E+01  0.144671864E+01
     4
 # iter = 51000  time[fs]=51.00000
   C -0.498630343E+01 -0.119507410E+00 -0.234420392E-01
   C  0.437247059E+01  0.847771123E-01 -0.140716338E+00
   H -0.249642690E+02  0.245919259E+01  0.163406071E+01
   H  0.242278929E+02 -0.148357217E+01  0.147085415E+01
     4
 # iter = 51500  time[fs]=51.50000
   C -0.507298197E+01 -0.122146280E+00 -0.238144827E-01
   C  0.444896111E+01  0.863386975E-01 -0.143073363E+00
   H -0.253614543E+02  0.249836587E+01  0.166015935E+01
   H  0.246156456E+02 -0.150826024E+01  0.149501087E+01
     4
 # iter = 52000  time[fs]=52.00000
   C -0.515979527E+01 -0.124789513E+00 -0.241864457E-01
   C  0.452558312E+01  0.879041041E-01 -0.145434064E+00
   H -0.257588932E+02  0.253756659E+01  0.168627577E+01
   H  0.250036913E+02 -0.153296926E+01  0.151918815E+01
     4
 # iter = 52500  time[fs]=52.50000
   C -0.524673881E+01 -0.127436975E+00 -0.245579495E-01
   C  0.460233219E+01  0.894732177E-01 -0.147798324E+00
   H -0.261565781E+02  0.257679390E+01  0.171240944E+01
   H  0.253920211E+02 -0.155769861E+01  0.154338538E+01
     4
 # iter = 53000  time[fs]=53.00000
   C -0.533380825E+01 -0.130088541E+00 -0.249290145E-01
   C  0.467920409E+01  0.910459285E-01 -0.150166030E+00
   H -0.265545015E+02  0.261604704E+01  0.173855984E+01
   H  0.257806263E+02 -0.158244769E+01  0.156760197E+01
     4
 # iter = 53500  time[fs]=53.50000
   C -0.542099949E+01 -0.132744092E+00 -0.252996596E-01
   C  0.475619480E+01  0.926221317E-01 -0.152537078E+00
   H -0.269526563E+02  0.265532525E+01  0.176472649E+01
   H  0.261694988E+02 -0.160721594E+01  0.159183737E+01
     4
 # iter = 54000  time[fs]=54.00000
   C -0.550830860E+01 -0.135403512E+00 -0.256699030E-01
   C  0.483330048E+01  0.942017265E-01 -0.154911364E+00
   H -0.273510359E+02  0.269462781E+01  0.179090892E+01
   H  0.265586309E+02 -0.163200281E+01  0.161609104E+01
     4
 # iter = 54500  time[fs]=54.50000
   C -0.559573184E+01 -0.138066690E+00 -0.260397616E-01
   C  0.491051748E+01  0.957846167E-01 -0.157288792E+00
   H -0.277496338E+02  0.273395402E+01  0.181710667E+01
   H  0.269480150E+02 -0.165680778E+01  0.164036246E+01
     4
 # iter = 55000  time[fs]=55.00000
   C -0.568326564E+01 -0.140733521E+00 -0.264092515E-01
   C  0.498784229E+01  0.973707097E-01 -0.159669268E+00
   H -0.281484438E+02  0.277330324E+01  0.184331932E+01
   H  0.273376440E+02 -0.168163036E+01  0.166465114E+01
     4
 # iter = 55500  time[fs]=55.50000
   C -0.577090657E+01 -0.143403903E+00 -0.267783879E-01
   C  0.506527159E+01  0.989599169E-01 -0.162052704E+00
   H -0.285474600E+02  0.281267482E+01  0.186954646E+01
   H  0.277275111E+02 -0.170647005E+01  0.168895661E+01
     4
 # iter = 56000  time[fs]=56.00000
   C -0.585865139E+01 -0.146077739E+00 -0.271471853E-01
   C  0.514280220E+01  0.100552153E+00 -0.164439015E+00
   H -0.289466766E+02  0.285206816E+01  0.189578769E+01
   H  0.281176096E+02 -0.173132641E+01  0.171327842E+01
     4
 # iter = 56500  time[fs]=56.50000
   C -0.594649697E+01 -0.148754935E+00 -0.275156573E-01
   C  0.522043105E+01  0.102147336E+00 -0.166828119E+00
   H -0.293460883E+02  0.289148267E+01  0.192204263E+01
   H  0.285079332E+02 -0.175619898E+01  0.173761613E+01
     4
 # iter = 57000  time[fs]=57.00000
   C -0.603444033E+01 -0.151435401E+00 -0.278838168E-01
   C  0.529815525E+01  0.103745388E+00 -0.169219937E+00
   H -0.297456897E+02  0.293091780E+01  0.194831091E+01
   H  0.288984759E+02 -0.178108734E+01  0.176196931E+01
     4
 # iter = 57500  time[fs]=57.50000
   C -0.612247862E+01 -0.154119050E+00 -0.282516760E-01
   C  0.537597199E+01  0.105346232E+00 -0.171614396E+00
   H -0.301454759E+02  0.297037300E+01  0.197459219E+01
   H  0.292892319E+02 -0.180599109E+01  0.178633758E+01
     4
 # iter = 58000  time[fs]=58.00000
   C -0.621060909E+01 -0.156805801E+00 -0.286192468E-01
   C  0.545387861E+01  0.106949797E+00 -0.174011421E+00
   H -0.305454420E+02  0.300984775E+01  0.200088613E+01
   H  0.296801956E+02 -0.183090983E+01  0.181072054E+01
     4
 # iter = 58500  time[fs]=58.50000
   C -0.629882912E+01 -0.159495572E+00 -0.289865400E-01
   C  0.553187253E+01  0.108556011E+00 -0.176410946E+00
   H -0.309455833E+02  0.304934157E+01  0.202719240E+01
   H  0.300713615E+02 -0.185584318E+01  0.183511782E+01
     4
 # iter = 59000  time[fs]=59.00000
   C -0.638713621E+01 -0.162188287E+00 -0.293535663E-01
   C  0.560995132E+01  0.110164809E+00 -0.178812903E+00
   H -0.313458955E+02  0.308885396E+01  0.205351069E+01
   H  0.304627245E+02 -0.188079078E+01  0.185952906E+01
     4
 # iter = 59500  time[fs]=59.50000
   C -0.647552792E+01 -0.164883871E+00 -0.297203356E-01
   C  0.568811260E+01  0.111776124E+00 -0.181217228E+00
   H -0.317463741E+02  0.312838447E+01  0.207984071E+01
   H  0.308542796E+02 -0.190575228E+01  0.188395391E+01
     4
 # iter = 60000  time[fs]=60.00000
   C -0.656400196E+01 -0.167582253E+00 -0.300868575E-01
   C  0.576635412E+01  0.113389895E+00 -0.183623860E+00
   H -0.321470150E+02  0.316793265E+01  0.210618216E+01
   H  0.312460221E+02 -0.193072733E+01  0.190839205E+01
     4
 # iter = 60500  time[fs]=60.50000
   C -0.665255609E+01 -0.170283365E+00 -0.304531409E-01
   C  0.584467369E+01  0.115006061E+00 -0.186032741E+00
   H -0.325478142E+02  0.320749807E+01  0.213253476E+01
   H  0.316379472E+02 -0.195571561E+01  0.193284315E+01
     4
 # iter = 61000  time[fs]=61.00000
   C -0.674118818E+01 -0.172987139E+00 -0.308191946E-01
   C  0.592306925E+01  0.116624564E+00 -0.188443813E+00
   H -0.329487679E+02  0.324708032E+01  0.215889825E+01
   H  0.320300506E+02 -0.198071682E+01  0.195730690E+01
     4
 # iter = 61500  time[fs]=61.50000
   C -0.682989616E+01 -0.175693513E+00 -0.311850268E-01
   C  0.600153876E+01  0.118245347E+00 -0.190857021E+00
   H -0.333498724E+02  0.328667900E+01  0.218527237E+01
   H  0.324223279E+02 -0.200573063E+01  0.198178301E+01
     4
 # iter = 62000  time[fs]=62.00000
   C -0.691867806E+01 -0.178402423E+00 -0.315506453E-01
   C  0.608008032E+01  0.119868357E+00 -0.193272313E+00
   H -0.337511241E+02  0.332629373E+01  0.221165686E+01
   H  0.328147751E+02 -0.203075677E+01  0.200627118E+01
     4
 # iter = 62500  time[fs]=62.50000
   C -0.700753198E+01 -0.181113811E+00 -0.319160575E-01
   C  0.615869205E+01  0.121493542E+00 -0.195689638E+00
   H -0.341525194E+02  0.336592412E+01  0.223805149E+01
   H  0.332073880E+02 -0.205579494E+01  0.203077114E+01
     4
 # iter = 63000  time[fs]=63.00000
   C -0.709645609E+01 -0.183827619E+00 -0.322812708E-01
   C  0.623737217E+01  0.123120851E+00 -0.198108947E+00
   H -0.345540552E+02  0.340556983E+01  0.226445601E+01
   H  0.336001629E+02 -0.208084488E+01  0.205528262E+01
     4
 # iter = 63500  time[fs]=63.50000
   C -0.718544862E+01 -0.186543791E+00 -0.326462918E-01
   C  0.631611896E+01  0.124750235E+00 -0.200530193E+00
   H -0.349557281E+02  0.344523051E+01  0.229087022E+01
   H  0.339930960E+02 -0.210590632E+01  0.207980536E+01
     4
 # iter = 64000  time[fs]=64.00000
   C -0.727450787E+01 -0.189262273E+00 -0.330111271E-01
   C  0.639493075E+01  0.126381647E+00 -0.202953331E+00
   H -0.353575350E+02  0.348490582E+01  0.231729388E+01
   H  0.343861837E+02 -0.213097900E+01  0.210433911E+01
     4
 # iter = 64500  time[fs]=64.50000
   C -0.736363220E+01 -0.191983013E+00 -0.333757829E-01
   C  0.647380595E+01  0.128015042E+00 -0.205378315E+00
   H -0.357594730E+02  0.352459543E+01  0.234372679E+01
   H  0.347794225E+02 -0.215606268E+01  0.212888362E+01
     4
 # iter = 65000  time[fs]=65.00000
   C -0.745282004E+01 -0.194705962E+00 -0.337402652E-01
   C  0.655274301E+01  0.129650375E+00 -0.207805104E+00
   H -0.361615390E+02  0.356429904E+01  0.237016874E+01
   H  0.351728092E+02 -0.218115711E+01  0.215343866E+01
     4
 # iter = 65500  time[fs]=65.50000
   C -0.754206985E+01 -0.197431070E+00 -0.341045797E-01
   C  0.663174045E+01  0.131287604E+00 -0.210233657E+00
   H -0.365637304E+02  0.360401634E+01  0.239661955E+01
   H  0.355663403E+02 -0.220626207E+01  0.217800400E+01
     4
 # iter = 66000  time[fs]=66.00000
   C -0.763138016E+01 -0.200158291E+00 -0.344687319E-01
   C  0.671079683E+01  0.132926687E+00 -0.212663934E+00
   H -0.369660443E+02  0.364374703E+01  0.242307900E+01
   H  0.359600127E+02 -0.223137733E+01  0.220257943E+01
     4
 # iter = 66500  time[fs]=66.50000
   C -0.772074956E+01 -0.202887578E+00 -0.348327270E-01
   C  0.678991075E+01  0.134567585E+00 -0.215095896E+00
   H -0.373684782E+02  0.368349084E+01  0.244954693E+01
   H  0.363538235E+02 -0.225650268E+01  0.222716472E+01
     4
 # iter = 67000  time[fs]=67.00000
   C -0.781017667E+01 -0.205618888E+00 -0.351965700E-01
   C  0.686908090E+01  0.136210259E+00 -0.217529507E+00
   H -0.377710294E+02  0.372324748E+01  0.247602316E+01
   H  0.367477696E+02 -0.228163789E+01  0.225175968E+01
     4
 # iter = 67500  time[fs]=67.50000
   C -0.789966016E+01 -0.208352177E+00 -0.355602658E-01
   C  0.694830596E+01  0.137854671E+00 -0.219964730E+00
   H -0.381736956E+02  0.376301668E+01  0.250250750E+01
   H  0.371418483E+02 -0.230678278E+01  0.227636410E+01
     4
 # iter = 68000  time[fs]=68.00000
   C -0.798919875E+01 -0.211087405E+00 -0.359238189E-01
   C  0.702758468E+01  0.139500785E+00 -0.222401530E+00
   H -0.385764742E+02  0.380279820E+01  0.252899979E+01
   H  0.375360566E+02 -0.233193714E+01  0.230097779E+01
     4
 # iter = 68500  time[fs]=68.50000
   C -0.807879121E+01 -0.213824532E+00 -0.362872337E-01
   C  0.710691587E+01  0.141148566E+00 -0.224839875E+00
   H -0.389793631E+02  0.384259178E+01  0.255549988E+01
   H  0.379303920E+02 -0.235710078E+01  0.232560055E+01
     4
 # iter = 69000  time[fs]=69.00000
   C -0.816843633E+01 -0.216563517E+00 -0.366505146E-01
   C  0.718629834E+01  0.142797979E+00 -0.227279731E+00
   H -0.393823598E+02  0.388239717E+01  0.258200759E+01
   H  0.383248518E+02 -0.238227352E+01  0.235023222E+01
     4
 # iter = 69500  time[fs]=69.50000
   C -0.825813296E+01 -0.219304324E+00 -0.370136656E-01
   C  0.726573097E+01  0.144448991E+00 -0.229721066E+00
   H -0.397854623E+02  0.392221414E+01  0.260852279E+01
   H  0.387194336E+02 -0.240745517E+01  0.237487260E+01
     4
 # iter = 70000  time[fs]=70.00000
   C -0.834787996E+01 -0.222046916E+00 -0.373766906E-01
   C  0.734521266E+01  0.146101571E+00 -0.232163851E+00
   H -0.401886684E+02  0.396204246E+01  0.263504531E+01
   H  0.391141347E+02 -0.243264556E+01  0.239952153E+01
     4
 # iter = 70500  time[fs]=70.50000
   C -0.843767626E+01 -0.224791257E+00 -0.377395933E-01
   C  0.742474235E+01  0.147755687E+00 -0.234608056E+00
   H -0.405919761E+02  0.400188190E+01  0.266157502E+01
   H  0.395089530E+02 -0.245784451E+01  0.242417884E+01
     4
 # iter = 71000  time[fs]=71.00000
   C -0.852752080E+01 -0.227537313E+00 -0.381023775E-01
   C  0.750431902E+01  0.149411308E+00 -0.237053650E+00
   H -0.409953834E+02  0.404173226E+01  0.268811177E+01
   H  0.399038860E+02 -0.248305187E+01  0.244884438E+01
     4
 # iter = 71500  time[fs]=71.50000
   C -0.861741256E+01 -0.230285050E+00 -0.384650465E-01
   C  0.758394166E+01  0.151068406E+00 -0.239500608E+00
   H -0.413988882E+02  0.408159332E+01  0.271465543E+01
   H  0.402989316E+02 -0.250826747E+01  0.247351797E+01
     4
 # iter = 72000  time[fs]=72.00000
   C -0.870735055E+01 -0.233034435E+00 -0.388276038E-01
   C  0.766360932E+01  0.152726951E+00 -0.241948901E+00
   H -0.418024889E+02  0.412146488E+01  0.274120587E+01
   H  0.406940875E+02 -0.253349116E+01  0.249819947E+01
     4
 # iter = 72500  time[fs]=72.50000
   C -0.879733381E+01 -0.235785438E+00 -0.391900525E-01
   C  0.774332105E+01  0.154386917E+00 -0.244398503E+00
   H -0.422061834E+02  0.416134673E+01  0.276776296E+01
   H  0.410893517E+02 -0.255872278E+01  0.252288873E+01
     4
 # iter = 73000  time[fs]=73.00000
   C -0.888736142E+01 -0.238538026E+00 -0.395523958E-01
   C  0.782307595E+01  0.156048275E+00 -0.246849390E+00
   H -0.426099700E+02  0.420123870E+01  0.279432658E+01
   H  0.414847220E+02 -0.258396219E+01  0.254758561E+01
     4
 # iter = 73500  time[fs]=73.50000
   C -0.897743246E+01 -0.241292171E+00 -0.399146366E-01
   C  0.790287315E+01  0.157710999E+00 -0.249301534E+00
   H -0.430138471E+02  0.424114058E+01  0.282089659E+01
   H  0.418801966E+02 -0.260920924E+01  0.257228996E+01
     4
 # iter = 74000  time[fs]=74.00000
   C -0.906754607E+01 -0.244047843E+00 -0.402767778E-01
   C  0.798271178E+01  0.159375065E+00 -0.251754914E+00
   H -0.434178129E+02  0.428105220E+01  0.284747289E+01
   H  0.422757733E+02 -0.263446380E+01  0.259700165E+01
     4
 # iter = 74500  time[fs]=74.50000
   C -0.915770139E+01 -0.246805014E+00 -0.406388222E-01
   C  0.806259103E+01  0.161040447E+00 -0.254209505E+00
   H -0.438218658E+02  0.432097337E+01  0.287405536E+01
   H  0.426714505E+02 -0.265972573E+01  0.262172054E+01
     4
 # iter = 75000  time[fs]=75.00000
   C -0.924789761E+01 -0.249563657E+00 -0.410007725E-01
   C  0.814251008E+01  0.162707122E+00 -0.256665285E+00
   H -0.442260042E+02  0.436090394E+01  0.290064389E+01
   H  0.430672261E+02 -0.268499489E+01  0.264644651E+01
     4
 # iter = 75500  time[fs]=75.50000
   C -0.933813392E+01 -0.252323744E+00 -0.413626312E-01
   C  0.822246815E+01  0.164375065E+00 -0.259122231E+00
   H -0.446302265E+02  0.440084373E+01  0.292723837E+01
   H  0.434630985E+02 -0.271027116E+01  0.267117942E+01
     4
 # iter = 76000  time[fs]=76.00000
   C -0.942840954E+01 -0.255085249E+00 -0.417244009E-01
   C  0.830246450E+01  0.166044253E+00 -0.261580322E+00
   H -0.450345313E+02  0.444079257E+01  0.295383869E+01
   H  0.438590659E+02 -0.273555441E+01  0.269591917E+01
     4
 # iter = 76500  time[fs]=76.50000
   C -0.951872372E+01 -0.257848148E+00 -0.420860838E-01
   C  0.838249837E+01  0.167714666E+00 -0.264039536E+00
   H -0.454389170E+02  0.448075031E+01  0.298044475E+01
   H  0.442551266E+02 -0.276084453E+01  0.272066561E+01
     4
 # iter = 77000  time[fs]=77.00000
   C -0.960907571E+01 -0.260612415E+00 -0.424476824E-01
   C  0.846256905E+01  0.169386280E+00 -0.266499855E+00
   H -0.458433824E+02  0.452071679E+01  0.300705645E+01
   H  0.446512790E+02 -0.278614138E+01  0.274541865E+01
     4
 # iter = 77500  time[fs]=77.50000
   C -0.969946482E+01 -0.263378027E+00 -0.428091989E-01
   C  0.854267586E+01  0.171059075E+00 -0.268961257E+00
   H -0.462479258E+02  0.456069186E+01  0.303367369E+01
   H  0.450475214E+02 -0.281144486E+01  0.277017817E+01
     4
 # iter = 78000  time[fs]=78.00000
   C -0.978989034E+01 -0.266144960E+00 -0.431706354E-01
   C  0.862281810E+01  0.172733030E+00 -0.271423723E+00
   H -0.466525461E+02  0.460067538E+01  0.306029638E+01
   H  0.454438523E+02 -0.283675486E+01  0.279494405E+01
     4
 # iter = 78500  time[fs]=78.50000
   C -0.988035160E+01 -0.268913191E+00 -0.435319941E-01
   C  0.870299513E+01  0.174408125E+00 -0.273887235E+00
   H -0.470572419E+02  0.464066719E+01  0.308692443E+01
   H  0.458402701E+02 -0.286207125E+01  0.281971619E+01
     4
 # iter = 79000  time[fs]=79.00000
   C -0.997084794E+01 -0.271682698E+00 -0.438932769E-01
   C  0.878320630E+01  0.176084340E+00 -0.276351774E+00
   H -0.474620118E+02  0.468066717E+01  0.311355774E+01
   H  0.462367734E+02 -0.288739395E+01  0.284449448E+01
     4
 # iter = 79500  time[fs]=79.50000
   C -0.100613787E+02 -0.274453460E+00 -0.442544857E-01
   C  0.886345098E+01  0.177761658E+00 -0.278817323E+00
   H -0.478668548E+02  0.472067517E+01  0.314019622E+01
   H  0.466333608E+02 -0.291272283E+01  0.286927882E+01
     4
 # iter = 80000  time[fs]=80.00000
   C -0.101519433E+02 -0.277225454E+00 -0.446156226E-01
   C  0.894372858E+01  0.179440058E+00 -0.281283864E+00
   H -0.482717694E+02  0.476069107E+01  0.316683980E+01
   H  0.470300308E+02 -0.293805781E+01  0.289406912E+01
