     4
 # iter = 25000  time[fs]=25.00000
   C -0.978549690E+00  0.225254675E-01 -0.777500718E-02
   C  0.972218100E+00  0.203118267E-01 -0.229690772E-01
   H -0.530846839E+01 -0.350319322E+00  0.558363484E+00
   H  0.524668655E+01 -0.265363470E+00 -0.426284508E+00
     4
 # iter = 25500  time[fs]=25.50000
   C -0.102251823E+01  0.254421461E-01 -0.856419852E-02
   C  0.101208845E+01  0.221389996E-01 -0.207880412E-01
   H -0.563662101E+01 -0.368853296E+00  0.595090074E+00
   H  0.556277268E+01 -0.280449551E+00 -0.450060359E+00
     4
 # iter = 26000  time[fs]=26.00000
   C -0.106946498E+01  0.283941430E-01 -0.936155132E-02
   C  0.105492175E+01  0.239883024E-01 -0.186111516E-01
   H -0.597001003E+01 -0.387770324E+00  0.632429428E+00
   H  0.588427836E+01 -0.295841956E+00 -0.474301279E+00
     4
 # iter = 26500  time[fs]=26.50000
   C -0.111914959E+01  0.313788492E-01 -0.101702474E-01
   C  0.110047878E+01  0.258557845E-01 -0.164338647E-01
   H -0.630805747E+01 -0.407025895E+00  0.670313971E+00
   H  0.621061194E+01 -0.311506483E+00 -0.498956037E+00
     4
 # iter = 27000  time[fs]=27.00000
   C -0.117134631E+01  0.343939259E-01 -0.109927638E-01
   C  0.114853489E+01  0.277382528E-01 -0.142525504E-01
   H -0.665027114E+01 -0.426582595E+00  0.708686324E+00
   H  0.654126828E+01 -0.327414160E+00 -0.523981090E+00
     4
 # iter = 27500  time[fs]=27.50000
   C -0.122584557E+01  0.374372519E-01 -0.118309488E-01
   C  0.119888149E+01  0.296331252E-01 -0.120643764E-01
   H -0.699622922E+01 -0.446408714E+00  0.747497411E+00
   H  0.687581349E+01 -0.343540259E+00 -0.549339171E+00
     4
 # iter = 28000  time[fs]=28.00000
   C -0.128245445E+01  0.405068889E-01 -0.126861118E-01
   C  0.125132660E+01  0.315383118E-01 -0.986718760E-02
   H -0.734556802E+01 -0.466477166E+00  0.786704981E+00
   H  0.721387273E+01 -0.359863528E+00 -0.574998176E+00
     4
 # iter = 28500  time[fs]=28.50000
   C -0.134099649E+01  0.436010587E-01 -0.135591145E-01
   C  0.130569461E+01  0.334521173E-01 -0.765939000E-02
   H -0.769797213E+01 -0.486764653E+00  0.826272426E+00
   H  0.755512040E+01 -0.376365580E+00 -0.600930284E+00
     4
 # iter = 29000  time[fs]=29.00000
   C -0.140131102E+01  0.467181250E-01 -0.144504563E-01
   C  0.136182563E+01  0.353731636E-01 -0.543984694E-02
   H -0.805316659E+01 -0.507251006E+00  0.866167849E+00
   H  0.789927220E+01 -0.393030417E+00 -0.627111246E+00
     4
 # iter = 29500  time[fs]=29.50000
   C -0.146325220E+01  0.498565806E-01 -0.153603485E-01
   C  0.141957453E+01  0.373003273E-01 -0.320778888E-02
   H -0.841091041E+01 -0.527918653E+00  0.906363303E+00
   H  0.824607869E+01 -0.409844038E+00 -0.653519817E+00
     4
 # iter = 30000  time[fs]=30.00000
   C -0.152668795E+01  0.530150363E-01 -0.162887781E-01
   C  0.147880986E+01  0.392326888E-01 -0.962737178E-03
   H -0.877099144E+01 -0.548752208E+00  0.946834181E+00
   H  0.859532000E+01 -0.426794127E+00 -0.680137285E+00
     4
 # iter = 30500  time[fs]=30.50000
   C -0.159149876E+01  0.561922107E-01 -0.172355612E-01
   C  0.153941269E+01  0.411694935E-01  0.129555895E-02
   H -0.913322203E+01 -0.569738120E+00  0.987558714E+00
   H  0.894680151E+01 -0.443869802E+00 -0.706947100E+00
     4
 # iter = 31000  time[fs]=31.00000
   C -0.165757658E+01  0.593869224E-01 -0.182003859E-01
   C  0.160127552E+01  0.431101188E-01  0.356717401E-02
   H -0.949743554E+01 -0.590864404E+00  0.102851756E+01
   H  0.930035018E+01 -0.461061399E+00 -0.733934555E+00
     4
 # iter = 31500  time[fs]=31.50000
   C -0.172482369E+01  0.625980812E-01 -0.191828470E-01
   C  0.166430111E+01  0.450540495E-01  0.585204778E-02
   H -0.986348336E+01 -0.612120409E+00  0.106969346E+01
   H  0.965581163E+01 -0.478360305E+00 -0.761086532E+00
     4
 # iter = 32000  time[fs]=32.00000
   C -0.179315172E+01  0.658246812E-01 -0.201824739E-01
   C  0.172840150E+01  0.470008570E-01  0.815001862E-02
   H -0.102312325E+02 -0.633496629E+00  0.111107096E+01
   H  0.100130476E+02 -0.495758811E+00 -0.788391280E+00
     4
 # iter = 32500  time[fs]=32.50000
   C -0.186248064E+01  0.690657936E-01 -0.211987522E-01
   C  0.179349709E+01  0.489501834E-01  0.104608499E-01
   H -0.106005635E+02 -0.654984551E+00  0.115263616E+01
   H  0.103719338E+02 -0.513249992E+00 -0.815838240E+00
     4
 # iter = 33000  time[fs]=33.00000
   C -0.193273792E+01  0.723205608E-01 -0.222311403E-01
   C  0.185951570E+01  0.509017283E-01  0.127842508E-01
   H -0.109713686E+02 -0.676576517E+00  0.119437652E+01
   H  0.107323582E+02 -0.530827608E+00 -0.843417887E+00
     4
 # iter = 33500  time[fs]=33.50000
   C -0.200385777E+01  0.755881900E-01 -0.232790825E-01
   C  0.192639189E+01  0.528552385E-01  0.151198927E-01
   H -0.113435507E+02 -0.698265621E+00  0.123628072E+01
   H  0.110942194E+02 -0.548486014E+00 -0.871121606E+00
     4
 # iter = 34000  time[fs]=34.00000
   C -0.207578040E+01  0.788679481E-01 -0.243420191E-01
   C  0.199406616E+01  0.548104995E-01  0.174674219E-01
   H -0.117170214E+02 -0.720045611E+00  0.127833846E+01
   H  0.114574257E+02 -0.566220091E+00 -0.898941578E+00
     4
 # iter = 34500  time[fs]=34.50000
   C -0.214845140E+01  0.821591564E-01 -0.254193933E-01
   C  0.206248440E+01  0.567673289E-01  0.198264695E-01
   H -0.120917005E+02 -0.741910810E+00  0.132054036E+01
   H  0.118218932E+02 -0.584025182E+00 -0.926870687E+00
     4
 # iter = 35000  time[fs]=35.00000
   C -0.222182121E+01  0.854611865E-01 -0.265106573E-01
   C  0.213159728E+01  0.587255705E-01  0.221966589E-01
   H -0.124675149E+02 -0.763856049E+00  0.136287788E+01
   H  0.121875459E+02 -0.601897041E+00 -0.954902440E+00
     4
 # iter = 35500  time[fs]=35.50000
   C -0.229584458E+01  0.887734554E-01 -0.276152756E-01
   C  0.220135981E+01  0.606850906E-01  0.245776119E-01
   H -0.128443978E+02 -0.785876611E+00  0.140534320E+01
   H  0.125543140E+02 -0.619831784E+00 -0.983030899E+00
     4
 # iter = 36000  time[fs]=36.00000
   C -0.237048013E+01  0.920954221E-01 -0.287327285E-01
   C  0.227173084E+01  0.626457733E-01  0.269689525E-01
   H -0.132222878E+02 -0.807968176E+00  0.144792914E+01
   H  0.129221337E+02 -0.637825849E+00 -0.101125062E+01
     4
 # iter = 36500  time[fs]=36.50000
   C -0.244568999E+01  0.954265839E-01 -0.298625133E-01
   C  0.234267267E+01  0.646075186E-01  0.293703106E-01
   H -0.136011287E+02 -0.830126781E+00  0.149062910E+01
   H  0.132909462E+02 -0.655875966E+00 -0.103955658E+01
     4
 # iter = 37000  time[fs]=37.00000
   C -0.252143942E+01  0.987664734E-01 -0.310041459E-01
   C  0.241415077E+01  0.665702392E-01  0.317813243E-01
   H -0.139808688E+02 -0.852348784E+00  0.153343701E+01
   H  0.136606975E+02 -0.673979122E+00 -0.106794419E+01
     4
 # iter = 37500  time[fs]=37.50000
   C -0.259769649E+01  0.102114655E+00 -0.321571612E-01
   C  0.248613337E+01  0.685338588E-01  0.342016414E-01
   H -0.143614604E+02 -0.874630824E+00  0.157634726E+01
   H  0.140313379E+02 -0.692132537E+00 -0.109640919E+01
     4
 # iter = 38000  time[fs]=38.00000
   C -0.267443185E+01  0.105470724E+00 -0.333211138E-01
   C  0.255859129E+01  0.704983104E-01  0.366309206E-01
   H -0.147428592E+02 -0.896969800E+00  0.161935465E+01
   H  0.144028212E+02 -0.710333641E+00 -0.112494763E+01
     4
 # iter = 38500  time[fs]=38.50000
   C -0.275161841E+01  0.108834301E+00 -0.344955772E-01
   C  0.263149759E+01  0.724635350E-01  0.390688325E-01
   H -0.151250246E+02 -0.919362841E+00  0.166245438E+01
   H  0.147751050E+02 -0.728580054E+00 -0.115355586E+01
     4
 # iter = 39000  time[fs]=39.00000
   C -0.282923119E+01  0.112205032E+00 -0.356801441E-01
   C  0.270482742E+01  0.744294801E-01  0.415150596E-01
   H -0.155079186E+02 -0.941807287E+00  0.170564198E+01
   H  0.151481496E+02 -0.746869565E+00 -0.118223051E+01
     4
 # iter = 39500  time[fs]=39.50000
   C -0.290724710E+01  0.115582588E+00 -0.368744257E-01
   C  0.277855783E+01  0.763960993E-01  0.439692970E-01
   H -0.158915060E+02 -0.964300666E+00  0.174891330E+01
   H  0.155219183E+02 -0.765200121E+00 -0.121096842E+01
     4
 # iter = 40000  time[fs]=40.00000
   C -0.298564476E+01  0.118966658E+00 -0.380780511E-01
   C  0.285266755E+01  0.783633509E-01  0.464312517E-01
   H -0.162757541E+02 -0.986840677E+00  0.179226446E+01
   H  0.158963769E+02 -0.783569809E+00 -0.123976666E+01
     4
 # iter = 40500  time[fs]=40.50000
   C -0.306440433E+01  0.122356953E+00 -0.392906671E-01
   C  0.292713687E+01  0.803311978E-01  0.489006433E-01
   H -0.166606324E+02 -0.100942518E+01  0.183569186E+01
   H  0.162714935E+02 -0.801976845E+00 -0.126862249E+01
     4
 # iter = 41000  time[fs]=41.00000
   C -0.314350740E+01  0.125753200E+00 -0.405119367E-01
   C  0.300194747E+01  0.822996063E-01  0.513772030E-01
   H -0.170461124E+02 -0.103205217E+01  0.187919212E+01
   H  0.166472384E+02 -0.820419562E+00 -0.129753335E+01
     4
 # iter = 41500  time[fs]=41.50000
   C -0.322293686E+01  0.129155145E+00 -0.417415392E-01
   C  0.307708234E+01  0.842685462E-01  0.538606737E-01
   H -0.174321675E+02 -0.105471978E+01  0.192276208E+01
   H  0.170235838E+02 -0.838896402E+00 -0.132649686E+01
     4
 # iter = 42000  time[fs]=42.00000
   C -0.330267677E+01  0.132562547E+00 -0.429791690E-01
   C  0.315252563E+01  0.862379900E-01  0.563508098E-01
   H -0.178187727E+02 -0.107742626E+01  0.196639879E+01
   H  0.174005036E+02 -0.857405905E+00 -0.135551077E+01
     4
 # iter = 42500  time[fs]=42.50000
   C -0.338271227E+01  0.135975180E+00 -0.442245349E-01
   C  0.322826257E+01  0.882079128E-01  0.588473761E-01
   H -0.182059046E+02 -0.110016997E+01  0.201009947E+01
   H  0.177779735E+02 -0.875946702E+00 -0.138457298E+01
     4
 # iter = 43000  time[fs]=43.00000
   C -0.346302948E+01  0.139392831E+00 -0.454773598E-01
   C  0.330427937E+01  0.901782918E-01  0.613501481E-01
   H -0.185935414E+02 -0.112294937E+01  0.205386151E+01
   H  0.181559704E+02 -0.894517505E+00 -0.141368151E+01
     4
 # iter = 43500  time[fs]=43.50000
   C -0.354361544E+01  0.142815301E+00 -0.467373792E-01
   C  0.338056314E+01  0.921491062E-01  0.638589113E-01
   H -0.189816624E+02 -0.114576301E+01  0.209768245E+01
   H  0.185344729E+02 -0.913117107E+00 -0.144283450E+01
     4
 # iter = 44000  time[fs]=44.00000
   C -0.362445802E+01  0.146242399E+00 -0.480043416E-01
   C  0.345710183E+01  0.941203367E-01  0.663734607E-01
   H -0.193702482E+02 -0.116860954E+01  0.214155999E+01
   H  0.189134607E+02 -0.931744367E+00 -0.147203021E+01
     4
 # iter = 44500  time[fs]=44.50000
   C -0.370554585E+01  0.149673947E+00 -0.492780068E-01
   C  0.353388412E+01  0.960919658E-01  0.688936003E-01
   H -0.197592805E+02 -0.119148766E+01  0.218549195E+01
   H  0.192929147E+02 -0.950398213E+00 -0.150126699E+01
     4
 # iter = 45000  time[fs]=45.00000
   C -0.378686826E+01  0.153109777E+00 -0.505581460E-01
   C  0.361089942E+01  0.980639772E-01  0.714191431E-01
   H -0.201487422E+02 -0.121439616E+01  0.222947627E+01
   H  0.196728169E+02 -0.969077632E+00 -0.153054327E+01
     4
 # iter = 45500  time[fs]=45.50000
   C -0.386841525E+01  0.156549727E+00 -0.518445411E-01
   C  0.368813778E+01  0.100036356E+00  0.739499101E-01
   H -0.205386168E+02 -0.123733391E+01  0.227351100E+01
   H  0.200531504E+02 -0.987781667E+00 -0.155985760E+01
     4
 # iter = 46000  time[fs]=46.00000
   C -0.395017739E+01  0.159993648E+00 -0.531369836E-01
   C  0.376558984E+01  0.102009088E+00  0.764857303E-01
   H -0.209288892E+02 -0.126029983E+01  0.231759431E+01
   H  0.204338990E+02 -0.100650941E+01 -0.158920856E+01
     4
 # iter = 46500  time[fs]=46.50000
   C -0.403214584E+01  0.163441395E+00 -0.544352748E-01
   C  0.384324681E+01  0.103982159E+00  0.790264403E-01
   H -0.213195447E+02 -0.128329289E+01  0.236172446E+01
   H  0.208150475E+02 -0.102526002E+01 -0.161859486E+01
     4
 # iter = 47000  time[fs]=47.00000
   C -0.411431225E+01  0.166892832E+00 -0.557392248E-01
   C  0.392110038E+01  0.105955559E+00  0.815718836E-01
   H -0.217105696E+02 -0.130631213E+01  0.240589980E+01
   H  0.211965817E+02 -0.104403267E+01 -0.164801524E+01
     4
 # iter = 47500  time[fs]=47.50000
   C -0.419666875E+01  0.170347831E+00 -0.570486524E-01
   C  0.399914274E+01  0.107929276E+00  0.841219107E-01
   H -0.221019507E+02 -0.132935663E+01  0.245011876E+01
   H  0.215784878E+02 -0.106282659E+01 -0.167746852E+01
     4
 # iter = 48000  time[fs]=48.00000
   C -0.427920791E+01  0.173806269E+00 -0.583633841E-01
   C  0.407736650E+01  0.109903298E+00  0.866763784E-01
   H -0.224936758E+02 -0.135242551E+01  0.249437985E+01
   H  0.219607528E+02 -0.108164106E+01 -0.170695358E+01
     4
 # iter = 48500  time[fs]=48.50000
   C -0.436192272E+01  0.177268028E+00 -0.596832543E-01
   C  0.415576470E+01  0.111877616E+00  0.892351497E-01
   H -0.228857331E+02 -0.137551796E+01  0.253868168E+01
   H  0.223433647E+02 -0.110047538E+01 -0.173646934E+01
     4
 # iter = 49000  time[fs]=49.00000
   C -0.444480654E+01  0.180732999E+00 -0.610081045E-01
   C  0.423433074E+01  0.113852221E+00  0.917980934E-01
   H -0.232781114E+02 -0.139863319E+01  0.258302288E+01
   H  0.227263115E+02 -0.111932890E+01 -0.176601479E+01
     4
 # iter = 49500  time[fs]=49.50000
   C -0.452785309E+01  0.184201075E+00 -0.623377829E-01
   C  0.431305838E+01  0.115827103E+00  0.943650837E-01
   H -0.236708001E+02 -0.142177044E+01  0.262740220E+01
   H  0.231095824E+02 -0.113820098E+01 -0.179558897E+01
     4
 # iter = 50000  time[fs]=50.00000
   C -0.461105642E+01  0.187672156E+00 -0.636721444E-01
   C  0.439194172E+01  0.117802255E+00  0.969360002E-01
   H -0.240637891E+02 -0.144492902E+01  0.267181840E+01
   H  0.234931666E+02 -0.115709103E+01 -0.182519096E+01
     4
 # iter = 50500  time[fs]=50.50000
   C -0.469441090E+01  0.191146145E+00 -0.650110497E-01
   C  0.447097514E+01  0.119777667E+00  0.995107273E-01
   H -0.244570687E+02 -0.146810823E+01  0.271627033E+01
   H  0.238770542E+02 -0.117599848E+01 -0.185481988E+01
     4
 # iter = 51000  time[fs]=51.00000
   C -0.477791118E+01  0.194622952E+00 -0.663543657E-01
   C  0.455015333E+01  0.121753334E+00  0.102089154E+00
   H -0.248506298E+02 -0.149130745E+01  0.276075688E+01
   H  0.242612356E+02 -0.119492278E+01 -0.188447488E+01
     4
 # iter = 51500  time[fs]=51.50000
   C -0.486155216E+01  0.198102489E+00 -0.677019645E-01
   C  0.462947124E+01  0.123729247E+00  0.104671175E+00
   H -0.252444636E+02 -0.151452604E+01  0.280527700E+01
   H  0.246457015E+02 -0.121386343E+01 -0.191415519E+01
     4
 # iter = 52000  time[fs]=52.00000
   C -0.494532903E+01  0.201584673E+00 -0.690537236E-01
   C  0.470892408E+01  0.125705399E+00  0.107256687E+00
   H -0.256385618E+02 -0.153776342E+01  0.284982967E+01
   H  0.250304433E+02 -0.123281991E+01 -0.194386002E+01
     4
 # iter = 52500  time[fs]=52.50000
   C -0.502923720E+01  0.205069423E+00 -0.704095253E-01
   C  0.478850728E+01  0.127681785E+00  0.109845593E+00
   H -0.260329163E+02 -0.156101903E+01  0.289441394E+01
   H  0.254154527E+02 -0.125179177E+01 -0.197358866E+01
     4
 # iter = 53000  time[fs]=53.00000
   C -0.511327228E+01  0.208556663E+00 -0.717692568E-01
   C  0.486821649E+01  0.129658398E+00  0.112437798E+00
   H -0.264275196E+02 -0.158429233E+01  0.293902887E+01
   H  0.258007216E+02 -0.127077855E+01 -0.200334041E+01
     4
 # iter = 53500  time[fs]=53.50000
   C -0.519743011E+01  0.212046320E+00 -0.731328096E-01
   C  0.494804759E+01  0.131635233E+00  0.115033212E+00
   H -0.268223644E+02 -0.160758281E+01  0.298367359E+01
   H  0.261862424E+02 -0.128977981E+01 -0.203311459E+01
     4
 # iter = 54000  time[fs]=54.00000
   C -0.528170674E+01  0.215538325E+00 -0.745000795E-01
   C  0.502799663E+01  0.133612283E+00  0.117631749E+00
   H -0.272174436E+02 -0.163088997E+01  0.302834725E+01
   H  0.265720078E+02 -0.130879515E+01 -0.206291058E+01
     4
 # iter = 54500  time[fs]=54.50000
   C -0.536609837E+01  0.219032610E+00 -0.758709665E-01
   C  0.510805986E+01  0.135589543E+00  0.120233324E+00
   H -0.276127505E+02 -0.165421334E+01  0.307304904E+01
   H  0.269580109E+02 -0.132782415E+01 -0.209272775E+01
     4
 # iter = 55000  time[fs]=55.00000
   C -0.545060140E+01  0.222529112E+00 -0.772453742E-01
   C  0.518823367E+01  0.137567008E+00  0.122837857E+00
   H -0.280082788E+02 -0.167755248E+01  0.311777818E+01
   H  0.273442450E+02 -0.134686646E+01 -0.212256552E+01
     4
 # iter = 55500  time[fs]=55.50000
   C -0.553521236E+01  0.226027767E+00 -0.786232100E-01
   C  0.526851466E+01  0.139544674E+00  0.125445271E+00
   H -0.284040223E+02 -0.170090694E+01  0.316253393E+01
   H  0.277307035E+02 -0.136592169E+01 -0.215242332E+01
     4
 # iter = 56000  time[fs]=56.00000
   C -0.561992798E+01  0.229528518E+00 -0.800043847E-01
   C  0.534889953E+01  0.141522535E+00  0.128055491E+00
   H -0.287999751E+02 -0.172427631E+01  0.320731556E+01
   H  0.281173805E+02 -0.138498950E+01 -0.218230063E+01
     4
 # iter = 56500  time[fs]=56.50000
   C -0.570474509E+01  0.233031308E+00 -0.813888126E-01
   C  0.542938517E+01  0.143500587E+00  0.130668446E+00
   H -0.291961316E+02 -0.174766019E+01  0.325212240E+01
   H  0.285042698E+02 -0.140406955E+01 -0.221219691E+01
     4
 # iter = 57000  time[fs]=57.00000
   C -0.578966069E+01  0.236536081E+00 -0.827764110E-01
   C  0.550996858E+01  0.145478826E+00  0.133284065E+00
   H -0.295924863E+02 -0.177105820E+01  0.329695378E+01
   H  0.288913660E+02 -0.142316152E+01 -0.224211167E+01
     4
 # iter = 57500  time[fs]=57.50000
   C -0.587467188E+01  0.240042786E+00 -0.841671002E-01
   C  0.559064689E+01  0.147457247E+00  0.135902284E+00
   H -0.299890339E+02 -0.179446997E+01  0.334180906E+01
   H  0.292786634E+02 -0.144226511E+01 -0.227204443E+01
     4
 # iter = 58000  time[fs]=58.00000
   C -0.595977590E+01  0.243551372E+00 -0.855608035E-01
   C  0.567141736E+01  0.149435846E+00  0.138523036E+00
   H -0.303857695E+02 -0.181789514E+01  0.338668764E+01
   H  0.296661570E+02 -0.146138000E+01 -0.230199473E+01
     4
 # iter = 58500  time[fs]=58.50000
   C -0.604497011E+01  0.247061791E+00 -0.869574467E-01
   C  0.575227735E+01  0.151414620E+00  0.141146261E+00
   H -0.307826883E+02 -0.184133337E+01  0.343158892E+01
   H  0.300538415E+02 -0.148050591E+01 -0.233196212E+01
     4
 # iter = 59000  time[fs]=59.00000
   C -0.613025195E+01  0.250573995E+00 -0.883569585E-01
   C  0.583322434E+01  0.153393565E+00  0.143771899E+00
   H -0.311797855E+02 -0.186478434E+01  0.347651235E+01
   H  0.304417122E+02 -0.149964257E+01 -0.236194617E+01
     4
 # iter = 59500  time[fs]=59.50000
   C -0.621561900E+01  0.254087941E+00 -0.897592700E-01
   C  0.591425592E+01  0.155372676E+00  0.146399891E+00
   H -0.315770568E+02 -0.188824773E+01  0.352145737E+01
   H  0.308297644E+02 -0.151878971E+01 -0.239194649E+01
     4
 # iter = 60000  time[fs]=60.00000
   C -0.630106891E+01  0.257603584E+00 -0.911643146E-01
   C  0.599536974E+01  0.157351951E+00  0.149030181E+00
   H -0.319744977E+02 -0.191172323E+01  0.356642346E+01
   H  0.312179937E+02 -0.153794707E+01 -0.242196266E+01
     4
 # iter = 60500  time[fs]=60.50000
   C -0.638659944E+01  0.261120884E+00 -0.925720281E-01
   C  0.607656359E+01  0.159331387E+00  0.151662717E+00
   H -0.323721042E+02 -0.193521055E+01  0.361141011E+01
   H  0.316063955E+02 -0.155711440E+01 -0.245199430E+01
     4
 # iter = 61000  time[fs]=61.00000
   C -0.647220843E+01  0.264639799E+00 -0.939823484E-01
   C  0.615783533E+01  0.161310979E+00  0.154297446E+00
   H -0.327698723E+02 -0.195870940E+01  0.365641684E+01
   H  0.319949658E+02 -0.157629147E+01 -0.248204105E+01
     4
 # iter = 61500  time[fs]=61.50000
   C -0.655789380E+01  0.268160291E+00 -0.953952155E-01
   C  0.623918288E+01  0.163290725E+00  0.156934317E+00
   H -0.331677980E+02 -0.198221952E+01  0.370144317E+01
   H  0.323837006E+02 -0.159547805E+01 -0.251210256E+01
     4
 # iter = 62000  time[fs]=62.00000
   C -0.664365355E+01  0.271682322E+00 -0.968105715E-01
   C  0.632060426E+01  0.165270622E+00  0.159573283E+00
   H -0.335658776E+02 -0.200574064E+01  0.374648864E+01
   H  0.327725959E+02 -0.161467391E+01 -0.254217847E+01
     4
 # iter = 62500  time[fs]=62.50000
   C -0.672948577E+01  0.275205857E+00 -0.982283601E-01
   C  0.640209758E+01  0.167250667E+00  0.162214295E+00
   H -0.339641077E+02 -0.202927250E+01  0.379155282E+01
   H  0.331616481E+02 -0.163387884E+01 -0.257226845E+01
     4
 # iter = 63000  time[fs]=63.00000
   C -0.681538860E+01  0.278730861E+00 -0.996485273E-01
   C  0.648366098E+01  0.169230857E+00  0.164857308E+00
   H -0.343624846E+02 -0.205281486E+01  0.383663528E+01
   H  0.335508533E+02 -0.165309263E+01 -0.260237219E+01
     4
 # iter = 63500  time[fs]=63.50000
   C -0.690136028E+01  0.282257299E+00 -0.101071020E+00
   C  0.656529271E+01  0.171211188E+00  0.167502279E+00
   H -0.347610050E+02 -0.207636749E+01  0.388173561E+01
   H  0.339402083E+02 -0.167231508E+01 -0.263248938E+01
     4
 # iter = 64000  time[fs]=64.00000
   C -0.698739907E+01  0.285785139E+00 -0.102495789E+00
   C  0.664699107E+01  0.173191660E+00  0.170149164E+00
   H -0.351596657E+02 -0.209993014E+01  0.392685342E+01
   H  0.343297095E+02 -0.169154600E+01 -0.266261971E+01
     4
 # iter = 64500  time[fs]=64.50000
   C -0.707350332E+01  0.289314350E+00 -0.103922783E+00
   C  0.672875439E+01  0.175172268E+00  0.172797922E+00
   H -0.355584636E+02 -0.212350261E+01  0.397198831E+01
   H  0.347193537E+02 -0.171078520E+01 -0.269276289E+01
     4
 # iter = 65000  time[fs]=65.00000
   C -0.715967145E+01  0.292844901E+00 -0.105351956E+00
   C  0.681058112E+01  0.177153010E+00  0.175448514E+00
   H -0.359573955E+02 -0.214708467E+01  0.401713992E+01
   H  0.351091378E+02 -0.173003250E+01 -0.272291866E+01
     4
 # iter = 65500  time[fs]=65.50000
   C -0.724590191E+01  0.296376762E+00 -0.106783261E+00
   C  0.689246971E+01  0.179133885E+00  0.178100900E+00
   H -0.363564587E+02 -0.217067611E+01  0.406230789E+01
   H  0.354990586E+02 -0.174928773E+01 -0.275308672E+01
     4
 # iter = 66000  time[fs]=66.00000
   C -0.733219321E+01  0.299909906E+00 -0.108216653E+00
   C  0.697441869E+01  0.181114889E+00  0.180755042E+00
   H -0.367556502E+02 -0.219427675E+01  0.410749187E+01
   H  0.358891132E+02 -0.176855070E+01 -0.278326683E+01
     4
 # iter = 66500  time[fs]=66.50000
   C -0.741854394E+01  0.303444304E+00 -0.109652089E+00
   C  0.705642664E+01  0.183096020E+00  0.183410905E+00
   H -0.371549673E+02 -0.221788637E+01  0.415269152E+01
   H  0.362792988E+02 -0.178782127E+01 -0.281345873E+01
     4
 # iter = 67000  time[fs]=67.00000
   C -0.750495269E+01  0.306979930E+00 -0.111089527E+00
   C  0.713849219E+01  0.185077276E+00  0.186068453E+00
   H -0.375544073E+02 -0.224150479E+01  0.419790651E+01
   H  0.366696125E+02 -0.180709926E+01 -0.284366217E+01
     4
 # iter = 67500  time[fs]=67.50000
   C -0.759141813E+01  0.310516758E+00 -0.112528926E+00
   C  0.722061400E+01  0.187058654E+00  0.188727651E+00
   H -0.379539677E+02 -0.226513184E+01  0.424313654E+01
   H  0.370600517E+02 -0.182638454E+01 -0.287387690E+01
     4
 # iter = 68000  time[fs]=68.00000
   C -0.767793898E+01  0.314054763E+00 -0.113970247E+00
   C  0.730279079E+01  0.189040154E+00  0.191388467E+00
   H -0.383536459E+02 -0.228876732E+01  0.428838128E+01
   H  0.374506138E+02 -0.184567693E+01 -0.290410271E+01
     4
 # iter = 68500  time[fs]=68.50000
   C -0.776451397E+01  0.317593920E+00 -0.115413451E+00
   C  0.738502133E+01  0.191021772E+00  0.194050868E+00
   H -0.387534396E+02 -0.231241108E+01  0.433364045E+01
   H  0.378412962E+02 -0.186497631E+01 -0.293433937E+01
     4
 # iter = 69000  time[fs]=69.00000
   C -0.785114191E+01  0.321134205E+00 -0.116858500E+00
   C  0.746730441E+01  0.193003506E+00  0.196714822E+00
   H -0.391533463E+02 -0.233606294E+01  0.437891375E+01
   H  0.382320965E+02 -0.188428253E+01 -0.296458665E+01
     4
 # iter = 69500  time[fs]=69.50000
   C -0.793782161E+01  0.324675597E+00 -0.118305360E+00
   C  0.754963887E+01  0.194985355E+00  0.199380300E+00
   H -0.395533639E+02 -0.235972274E+01  0.442420091E+01
   H  0.386230122E+02 -0.190359546E+01 -0.299484436E+01
     4
 # iter = 70000  time[fs]=70.00000
   C -0.802455196E+01  0.328218072E+00 -0.119753993E+00
   C  0.763202358E+01  0.196967317E+00  0.202047271E+00
   H -0.399534900E+02 -0.238339032E+01  0.446950164E+01
   H  0.390140412E+02 -0.192291495E+01 -0.302511227E+01
     4
 # iter = 70500  time[fs]=70.50000
   C -0.811133185E+01  0.331761609E+00 -0.121204366E+00
   C  0.771445747E+01  0.198949389E+00  0.204715706E+00
   H -0.403537226E+02 -0.240706554E+01  0.451481570E+01
   H  0.394051811E+02 -0.194224089E+01 -0.305539019E+01
     4
 # iter = 71000  time[fs]=71.00000
   C -0.819816022E+01  0.335306188E+00 -0.122656447E+00
   C  0.779693946E+01  0.200931571E+00  0.207385579E+00
   H -0.407540595E+02 -0.243074824E+01  0.456014281E+01
   H  0.397964298E+02 -0.196157315E+01 -0.308567794E+01
     4
 # iter = 71500  time[fs]=71.50000
   C -0.828503605E+01  0.338851787E+00 -0.124110202E+00
   C  0.787946855E+01  0.202913859E+00  0.210056861E+00
   H -0.411544988E+02 -0.245443828E+01  0.460548274E+01
   H  0.401877851E+02 -0.198091160E+01 -0.311597532E+01
     4
 # iter = 72000  time[fs]=72.00000
   C -0.837195833E+01  0.342398388E+00 -0.125565600E+00
   C  0.796204374E+01  0.204896254E+00  0.212729526E+00
   H -0.415550385E+02 -0.247813552E+01  0.465083523E+01
   H  0.405792451E+02 -0.200025613E+01 -0.314628214E+01
     4
 # iter = 72500  time[fs]=72.50000
   C -0.845892610E+01  0.345945970E+00 -0.127022611E+00
   C  0.804466408E+01  0.206878751E+00  0.215403549E+00
   H -0.419556766E+02 -0.250183983E+01  0.469620006E+01
   H  0.409708077E+02 -0.201960662E+01 -0.317659824E+01
     4
 # iter = 73000  time[fs]=73.00000
   C -0.854593843E+01  0.349494516E+00 -0.128481204E+00
   C  0.812732863E+01  0.208861352E+00  0.218078904E+00
   H -0.423564113E+02 -0.252555107E+01  0.474157699E+01
   H  0.413624710E+02 -0.203896297E+01 -0.320692343E+01
     4
 # iter = 73500  time[fs]=73.50000
   C -0.863299440E+01  0.353044007E+00 -0.129941352E+00
   C  0.821003650E+01  0.210844052E+00  0.220755567E+00
   H -0.427572409E+02 -0.254926911E+01  0.478696581E+01
   H  0.417542330E+02 -0.205832506E+01 -0.323725756E+01
     4
 # iter = 74000  time[fs]=74.00000
   C -0.872009314E+01  0.356594425E+00 -0.131403025E+00
   C  0.829278680E+01  0.212826852E+00  0.223433515E+00
   H -0.431581634E+02 -0.257299383E+01  0.483236628E+01
   H  0.421460921E+02 -0.207769279E+01 -0.326760045E+01
     4
 # iter = 74500  time[fs]=74.50000
   C -0.880723378E+01  0.360145754E+00 -0.132866197E+00
   C  0.837557869E+01  0.214809749E+00  0.226112723E+00
   H -0.435591773E+02 -0.259672511E+01  0.487777822E+01
   H  0.425380463E+02 -0.209706606E+01 -0.329795195E+01
     4
 # iter = 75000  time[fs]=75.00000
   C -0.889441550E+01  0.363697976E+00 -0.134330841E+00
   C  0.845841134E+01  0.216792742E+00  0.228793171E+00
   H -0.439602809E+02 -0.262046283E+01  0.492320140E+01
   H  0.429300940E+02 -0.211644477E+01 -0.332831191E+01
     4
 # iter = 75500  time[fs]=75.50000
   C -0.898163750E+01  0.367251076E+00 -0.135796930E+00
   C  0.854128396E+01  0.218775830E+00  0.231474836E+00
   H -0.443614726E+02 -0.264420688E+01  0.496863563E+01
   H  0.433222334E+02 -0.213582881E+01 -0.335868017E+01
     4
 # iter = 76000  time[fs]=76.00000
   C -0.906889898E+01  0.370805038E+00 -0.137264440E+00
   C  0.862419576E+01  0.220759010E+00  0.234157697E+00
   H -0.447627507E+02 -0.266795714E+01  0.501408071E+01
   H  0.437144630E+02 -0.215521810E+01 -0.338905658E+01
     4
 # iter = 76500  time[fs]=76.50000
   C -0.915619918E+01  0.374359846E+00 -0.138733345E+00
   C  0.870714598E+01  0.222742283E+00  0.236841732E+00
   H -0.451641138E+02 -0.269171350E+01  0.505953646E+01
   H  0.441067810E+02 -0.217461254E+01 -0.341944102E+01
     4
 # iter = 77000  time[fs]=77.00000
   C -0.924353738E+01  0.377915486E+00 -0.140203623E+00
   C  0.879013391E+01  0.224725645E+00  0.239526922E+00
   H -0.455655604E+02 -0.271547586E+01  0.510500268E+01
   H  0.444991861E+02 -0.219401204E+01 -0.344983332E+01
     4
 # iter = 77500  time[fs]=77.50000
   C -0.933091284E+01  0.381471942E+00 -0.141675248E+00
   C  0.887315881E+01  0.226709097E+00  0.242213247E+00
   H -0.459670890E+02 -0.273924411E+01  0.515047921E+01
   H  0.448916766E+02 -0.221341653E+01 -0.348023337E+01
     4
 # iter = 78000  time[fs]=78.00000
   C -0.941832486E+01  0.385029201E+00 -0.143148199E+00
   C  0.895622000E+01  0.228692637E+00  0.244900688E+00
   H -0.463686982E+02 -0.276301816E+01  0.519596587E+01
   H  0.452842511E+02 -0.223282590E+01 -0.351064103E+01
     4
 # iter = 78500  time[fs]=78.50000
   C -0.950577278E+01  0.388587249E+00 -0.144622453E+00
   C  0.903931679E+01  0.230676263E+00  0.247589226E+00
   H -0.467703866E+02 -0.278679790E+01  0.524146247E+01
   H  0.456769081E+02 -0.225224008E+01 -0.354105616E+01
     4
 # iter = 79000  time[fs]=79.00000
   C -0.959325592E+01  0.392146072E+00 -0.146097989E+00
   C  0.912244855E+01  0.232659974E+00  0.250278842E+00
   H -0.471721529E+02 -0.281058324E+01  0.528696887E+01
   H  0.460696463E+02 -0.227165898E+01 -0.357147865E+01
     4
 # iter = 79500  time[fs]=79.50000
   C -0.968077364E+01  0.395705657E+00 -0.147574785E+00
   C  0.920561462E+01  0.234643769E+00  0.252969519E+00
   H -0.475739957E+02 -0.283437409E+01  0.533248489E+01
   H  0.464624642E+02 -0.229108254E+01 -0.360190837E+01
     4
 # iter = 80000  time[fs]=80.00000
   C -0.976832532E+01  0.399265991E+00 -0.149052821E+00
   C  0.928881438E+01  0.236627647E+00  0.255661240E+00
   H -0.479759138E+02 -0.285817035E+01  0.537801037E+01
   H  0.468553606E+02 -0.231051066E+01 -0.363234520E+01
