     4
 # iter = 25000  time[fs]=25.00000
   C -0.925176517E+00 -0.244813243E-01  0.239267972E-01
   C  0.990867395E+00 -0.360500075E-01 -0.255490529E-02
   H -0.515253996E+01  0.361405369E+00 -0.418542417E+00
   H  0.520467905E+01  0.368456305E-01  0.138719761E+00
     4
 # iter = 25500  time[fs]=25.50000
   C -0.966088501E+00 -0.272657851E-01  0.263140840E-01
   C  0.103228063E+01 -0.371827040E-01 -0.247494007E-02
   H -0.547738322E+01  0.382225994E+00 -0.445598854E+00
   H  0.552075336E+01  0.392726008E-01  0.148920814E+00
     4
 # iter = 26000  time[fs]=26.00000
   C -0.101005679E+01 -0.300613904E-01  0.287743137E-01
   C  0.107672770E+01 -0.383460434E-01 -0.244155416E-02
   H -0.580765418E+01  0.403476199E+00 -0.473144621E+00
   H  0.584252499E+01  0.417714390E-01  0.159294835E+00
     4
 # iter = 26500  time[fs]=26.50000
   C -0.105683451E+01 -0.328691807E-01  0.313021283E-01
   C  0.112396327E+01 -0.395340992E-01 -0.245243978E-02
   H -0.614274325E+01  0.425105731E+00 -0.501124867E+00
   H  0.616936596E+01  0.443337678E-01  0.169823574E+00
     4
 # iter = 27000  time[fs]=27.00000
   C -0.110618924E+01 -0.356899313E-01  0.338925884E-01
   C  0.117375639E+01 -0.407419926E-01 -0.250522438E-02
   H -0.648213269E+01  0.447072369E+00 -0.529493170E+00
   H  0.650074075E+01  0.469525661E-01  0.180491411E+00
     4
 # iter = 27500  time[fs]=27.50000
   C -0.115790485E+01 -0.385241611E-01  0.365411349E-01
   C  0.122589233E+01 -0.419657294E-01 -0.259752694E-02
   H -0.682537989E+01  0.469340348E+00 -0.558209941E+00
   H  0.683618996E+01  0.496218934E-01  0.191284895E+00
     4
 # iter = 28000  time[fs]=28.00000
   C -0.121178222E+01 -0.413721609E-01  0.392435615E-01
   C  0.128017328E+01 -0.432020523E-01 -0.272700313E-02
   H -0.717210410E+01  0.491879139E+00 -0.587241181E+00
   H  0.717531717E+01  0.523366811E-01  0.202192372E+00
     4
 # iter = 28500  time[fs]=28.50000
   C -0.126763913E+01 -0.442340286E-01  0.419959915E-01
   C  0.133641823E+01 -0.444483132E-01 -0.289137932E-02
   H -0.752197585E+01  0.514662500E+00 -0.616557499E+00
   H  0.751777846E+01  0.550925715E-01  0.213203686E+00
     4
 # iter = 29000  time[fs]=29.00000
   C -0.132530967E+01 -0.471097063E-01  0.447948569E-01
   C  0.139446238E+01 -0.457023641E-01 -0.308847636E-02
   H -0.787470849E+01  0.537667730E+00 -0.646133336E+00
   H  0.786327384E+01  0.578857920E-01  0.224309942E+00
     4
 # iter = 29500  time[fs]=29.50000
   C -0.138464330E+01 -0.499990134E-01  0.476368782E-01
   C  0.145415620E+01 -0.469624649E-01 -0.331622493E-02
   H -0.823005130E+01  0.560875068E+00 -0.675946336E+00
   H  0.821154044E+01  0.607130558E-01  0.235503311E+00
     4
 # iter = 30000  time[fs]=30.00000
   C -0.144550371E+01 -0.529016768E-01  0.505190436E-01
   C  0.151536432E+01 -0.482272075E-01 -0.357267408E-02
   H -0.858778395E+01  0.584267221E+00 -0.705976847E+00
   H  0.856234673E+01  0.635714827E-01  0.246776868E+00
     4
 # iter = 30500  time[fs]=30.50000
   C -0.150776767E+01 -0.558173559E-01  0.534385896E-01
   C  0.157796433E+01 -0.494954534E-01 -0.385599464E-02
   H -0.894771190E+01  0.607828975E+00 -0.736207509E+00
   H  0.891548799E+01  0.664585358E-01  0.258124464E+00
     4
 # iter = 31000  time[fs]=31.00000
   C -0.157132381E+01 -0.587456626E-01  0.563929818E-01
   C  0.164184566E+01 -0.507662825E-01 -0.416447882E-02
   H -0.930966262E+01  0.631546879E+00 -0.766622914E+00
   H  0.927078240E+01  0.693719695E-01  0.269540614E+00
     4
 # iter = 31500  time[fs]=31.50000
   C -0.163607151E+01 -0.616861782E-01  0.593798957E-01
   C  0.170690841E+01 -0.520389521E-01 -0.449653713E-02
   H -0.967348255E+01  0.655408991E+00 -0.797209333E+00
   H  0.962806783E+01  0.723097867E-01  0.281020407E+00
     4
 # iter = 32000  time[fs]=32.00000
   C -0.170191984E+01 -0.646384660E-01  0.623971993E-01
   C  0.177306228E+01 -0.533128627E-01 -0.485069362E-02
   H -0.100390344E+02  0.679404662E+00 -0.827954484E+00
   H  0.998719924E+01  0.752702043E-01  0.292559433E+00
     4
 # iter = 32500  time[fs]=32.50000
   C -0.176878652E+01 -0.676020813E-01  0.654429366E-01
   C  0.184022559E+01 -0.545875313E-01 -0.522557991E-02
   H -0.104061951E+02  0.703524357E+00 -0.858847334E+00
   H  0.103480464E+02  0.782516241E-01  0.304153713E+00
     4
 # iter = 33000  time[fs]=33.00000
   C -0.183659706E+01 -0.705765791E-01  0.685153116E-01
   C  0.190832441E+01 -0.558625694E-01 -0.561992867E-02
   H -0.107748537E+02  0.727759510E+00 -0.889877945E+00
   H  0.107104918E+02  0.812526079E-01  0.315799649E+00
     4
 # iter = 33500  time[fs]=33.50000
   C -0.190528394E+01 -0.735615195E-01  0.716126743E-01
   C  0.197729169E+01 -0.571376649E-01 -0.603256688E-02
   H -0.111449103E+02  0.752102399E+00 -0.921037328E+00
   H  0.110744296E+02  0.842718577E-01  0.327493979E+00
     4
 # iter = 34000  time[fs]=34.00000
   C -0.197478584E+01 -0.765564719E-01  0.747335076E-01
   C  0.204706659E+01 -0.584125684E-01 -0.646240901E-02
   H -0.115162742E+02  0.776546037E+00 -0.952317335E+00
   H  0.114397634E+02  0.873081977E-01  0.339233733E+00
     4
 # iter = 34500  time[fs]=34.50000
   C -0.204504702E+01 -0.795610179E-01  0.778764149E-01
   C  0.211759380E+01 -0.596870809E-01 -0.690845047E-02
   H -0.118888632E+02  0.801084084E+00 -0.983710553E+00
   H  0.118064061E+02  0.903605602E-01  0.351016202E+00
     4
 # iter = 35000  time[fs]=35.00000
   C -0.211601675E+01 -0.825747535E-01  0.810401092E-01
   C  0.218882297E+01 -0.609610448E-01 -0.736976129E-02
   H -0.122626021E+02  0.825710773E+00 -0.101521022E+01
   H  0.121742778E+02  0.934279724E-01  0.362838908E+00
     4
 # iter = 35500  time[fs]=35.50000
   C -0.218764873E+01 -0.855972897E-01  0.842234035E-01
   C  0.226070817E+01 -0.622343364E-01 -0.784548017E-02
   H -0.126374228E+02  0.850420841E+00 -0.104681016E+01
   H  0.125433058E+02  0.965095459E-01  0.374699581E+00
     4
 # iter = 36000  time[fs]=36.00000
   C -0.225990068E+01 -0.886282541E-01  0.874252013E-01
   C  0.233320745E+01 -0.635068591E-01 -0.833480889E-02
   H -0.130132623E+02  0.875209472E+00 -0.107850470E+01
   H  0.129134235E+02  0.996044672E-01  0.386596133E+00
     4
 # iter = 36500  time[fs]=36.50000
   C -0.233273391E+01 -0.916672905E-01  0.906444887E-01
   C  0.240628243E+01 -0.647785391E-01 -0.883700718E-02
   H -0.133900634E+02  0.900072253E+00 -0.111028863E+01
   H  0.132845697E+02  0.102711990E+00  0.398526641E+00
     4
 # iter = 37000  time[fs]=37.00000
   C -0.240611298E+01 -0.947140590E-01  0.938803269E-01
   C  0.247989794E+01 -0.660493207E-01 -0.935138791E-02
   H -0.137677731E+02  0.925005125E+00 -0.114215717E+01
   H  0.136566880E+02  0.105831427E+00  0.410489332E+00
     4
 # iter = 37500  time[fs]=37.50000
   C -0.248000532E+01 -0.977682361E-01  0.971318456E-01
   C  0.255402170E+01 -0.673191632E-01 -0.987731272E-02
   H -0.141463427E+02  0.950004349E+00 -0.117410589E+01
   H  0.140297266E+02  0.108962146E+00  0.422482564E+00
     4
 # iter = 38000  time[fs]=38.00000
   C -0.255438100E+01 -0.100829514E+00  0.100398237E+00
   C  0.262862402E+01 -0.685880381E-01 -0.104141880E-01
   H -0.145257273E+02  0.975066476E+00 -0.120613070E+01
   H  0.144036376E+02  0.112103561E+00  0.434504819E+00
     4
 # iter = 38500  time[fs]=38.50000
   C -0.262921245E+01 -0.103897600E+00  0.103678751E+00
   C  0.270367757E+01 -0.698559267E-01 -0.109614611E-01
   H -0.149058853E+02  0.100018831E+01 -0.123822781E+01
   H  0.147783765E+02  0.115255131E+00  0.446554684E+00
     4
 # iter = 39000  time[fs]=39.00000
   C -0.270447426E+01 -0.106972217E+00  0.106972687E+00
   C  0.277915713E+01 -0.711228187E-01 -0.115186172E-01
   H -0.152867780E+02  0.102536690E+01 -0.127039370E+01
   H  0.151539022E+02  0.118416355E+00  0.458630849E+00
     4
 # iter = 39500  time[fs]=39.50000
   C -0.278014291E+01 -0.110053101E+00  0.110279397E+00
   C  0.285503941E+01 -0.723887099E-01 -0.120851761E-01
   H -0.156683698E+02  0.105059949E+01 -0.130262511E+01
   H  0.155301765E+02  0.121586766E+00  0.470732092E+00
     4
 # iter = 40000  time[fs]=40.00000
   C -0.285619667E+01 -0.113140001E+00  0.113598272E+00
   C  0.293130285E+01 -0.736536019E-01 -0.126606893E-01
   H -0.160506273E+02  0.107588354E+01 -0.133491899E+01
   H  0.159071638E+02  0.124765931E+00  0.482857273E+00
     4
 # iter = 40500  time[fs]=40.50000
   C -0.293261539E+01 -0.116232679E+00  0.116928745E+00
   C  0.300792748E+01 -0.749175003E-01 -0.132447378E-01
   H -0.164335194E+02  0.110121666E+01 -0.136727250E+01
   H  0.162848311E+02  0.127953445E+00  0.495005327E+00
     4
 # iter = 41000  time[fs]=41.00000
   C -0.300938039E+01 -0.119330912E+00  0.120270286E+00
   C  0.308489478E+01 -0.761804140E-01 -0.138369293E-01
   H -0.168170174E+02  0.112659663E+01 -0.139968299E+01
   H  0.166631475E+02  0.131148931E+00  0.507175260E+00
     4
 # iter = 41500  time[fs]=41.50000
   C -0.308647427E+01 -0.122434483E+00  0.123622400E+00
   C  0.316218752E+01 -0.774423548E-01 -0.144368966E-01
   H -0.172010941E+02  0.115202138E+01 -0.143214798E+01
   H  0.170420839E+02  0.134352036E+00  0.519366137E+00
     4
 # iter = 42000  time[fs]=42.00000
   C -0.316388089E+01 -0.125543191E+00  0.126984620E+00
   C  0.323978969E+01 -0.787033367E-01 -0.150442952E-01
   H -0.175857243E+02  0.117748898E+01 -0.146466515E+01
   H  0.174216135E+02  0.137562431E+00  0.531577084E+00
     4
 # iter = 42500  time[fs]=42.50000
   C -0.324158515E+01 -0.128656843E+00  0.130356510E+00
   C  0.331768634E+01 -0.799633752E-01 -0.156588020E-01
   H -0.179708842E+02  0.120299759E+01 -0.149723231E+01
   H  0.178017108E+02  0.140779805E+00  0.543807279E+00
     4
 # iter = 43000  time[fs]=43.00000
   C -0.331957302E+01 -0.131775255E+00  0.133737661E+00
   C  0.339586355E+01 -0.812224871E-01 -0.162801132E-01
   H -0.183565516E+02  0.122854552E+01 -0.152984741E+01
   H  0.181823522E+02  0.144003868E+00  0.556055948E+00
     4
 # iter = 43500  time[fs]=43.50000
   C -0.339783136E+01 -0.134898252E+00  0.137127687E+00
   C  0.347430831E+01 -0.824806902E-01 -0.169079434E-01
   H -0.187427057E+02  0.125413116E+01 -0.156250853E+01
   H  0.185635152E+02  0.147234348E+00  0.568322364E+00
     4
 # iter = 44000  time[fs]=44.00000
   C -0.347634787E+01 -0.138025671E+00  0.140526225E+00
   C  0.355300845E+01 -0.837380029E-01 -0.175420237E-01
   H -0.191293268E+02  0.127975300E+01 -0.159521386E+01
   H  0.189451788E+02  0.150470988E+00  0.580605839E+00
     4
 # iter = 44500  time[fs]=44.50000
   C -0.355511105E+01 -0.141157353E+00  0.143932934E+00
   C  0.363195257E+01 -0.849944440E-01 -0.181821009E-01
   H -0.195163964E+02  0.130540962E+01 -0.162796169E+01
   H  0.193273233E+02  0.153713545E+00  0.592905728E+00
     4
 # iter = 45000  time[fs]=45.00000
   C -0.363411012E+01 -0.144293148E+00  0.147347491E+00
   C  0.371112997E+01 -0.862500327E-01 -0.188279360E-01
   H -0.199038972E+02  0.133109969E+01 -0.166075040E+01
   H  0.197099300E+02  0.156961791E+00  0.605221417E+00
     4
 # iter = 45500  time[fs]=45.50000
   C -0.371333494E+01 -0.147432914E+00  0.150769592E+00
   C  0.379053064E+01 -0.875047883E-01 -0.194793036E-01
   H -0.202918125E+02  0.135682194E+01 -0.169357848E+01
   H  0.200929812E+02  0.160215512E+00  0.617552328E+00
     4
 # iter = 46000  time[fs]=46.00000
   C -0.379277600E+01 -0.150576516E+00  0.154198950E+00
   C  0.387014514E+01 -0.887587299E-01 -0.201359907E-01
   H -0.206801270E+02  0.138257518E+01 -0.172644447E+01
   H  0.204764605E+02  0.163474503E+00  0.629897913E+00
     4
 # iter = 46500  time[fs]=46.50000
   C -0.387242436E+01 -0.153723824E+00  0.157635292E+00
   C  0.394996461E+01 -0.900118768E-01 -0.207977958E-01
   H -0.210688258E+02  0.140835827E+01 -0.175934702E+01
   H  0.208603520E+02  0.166738573E+00  0.642257655E+00
     4
 # iter = 47000  time[fs]=47.00000
   C -0.395227157E+01 -0.156874714E+00  0.161078362E+00
   C  0.402998071E+01 -0.912642479E-01 -0.214645283E-01
   H -0.214578952E+02  0.143417015E+01 -0.179228483E+01
   H  0.212446408E+02  0.170007538E+00  0.654631059E+00
     4
 # iter = 47500  time[fs]=47.50000
   C -0.403230969E+01 -0.160029069E+00  0.164527916E+00
   C  0.411018555E+01 -0.925158618E-01 -0.221360076E-01
   H -0.218473219E+02  0.146000980E+01 -0.182525667E+01
   H  0.216293128E+02  0.173281226E+00  0.667017660E+00
     4
 # iter = 48000  time[fs]=48.00000
   C -0.411253122E+01 -0.163186778E+00  0.167983721E+00
   C  0.419057173E+01 -0.937667371E-01 -0.228120626E-01
   H -0.222370935E+02  0.148587626E+01 -0.185826140E+01
   H  0.220143546E+02  0.176559474E+00  0.679417014E+00
     4
 # iter = 48500  time[fs]=48.50000
   C -0.419292909E+01 -0.166347732E+00  0.171445560E+00
   C  0.427113223E+01 -0.950168918E-01 -0.234925307E-01
   H -0.226271980E+02  0.151176863E+01 -0.189129789E+01
   H  0.223997536E+02  0.179842125E+00  0.691828698E+00
     4
 # iter = 49000  time[fs]=49.00000
   C -0.427349660E+01 -0.169511830E+00  0.174913224E+00
   C  0.435186042E+01 -0.962663436E-01 -0.241772577E-01
   H -0.230176242E+02  0.153768602E+01 -0.192436510E+01
   H  0.227854977E+02  0.183129031E+00  0.704252311E+00
     4
 # iter = 49500  time[fs]=49.50000
   C -0.435422741E+01 -0.172678973E+00  0.178386514E+00
   C  0.443275004E+01 -0.975151099E-01 -0.248660973E-01
   H -0.234083615E+02  0.156362762E+01 -0.195746203E+01
   H  0.231715753E+02  0.186420053E+00  0.716687470E+00
     4
 # iter = 50000  time[fs]=50.00000
   C -0.443511552E+01 -0.175849069E+00  0.181865243E+00
   C  0.451379513E+01 -0.987632075E-01 -0.255589099E-01
   H -0.237993995E+02  0.158959265E+01 -0.199058772E+01
   H  0.235579756E+02  0.189715055E+00  0.729133811E+00
     4
 # iter = 50500  time[fs]=50.50000
   C -0.451615525E+01 -0.179022027E+00  0.185349231E+00
   C  0.459499008E+01 -0.100010653E+00 -0.262555630E-01
   H -0.241907287E+02  0.161558035E+01 -0.202374127E+01
   H  0.239446882E+02  0.193013911E+00  0.741590987E+00
     4
 # iter = 51000  time[fs]=51.00000
   C -0.459734122E+01 -0.182197763E+00  0.188838307E+00
   C  0.467632956E+01 -0.101257463E+00 -0.269559303E-01
   H -0.245823397E+02  0.164159001E+01 -0.205692181E+01
   H  0.243317031E+02  0.196316500E+00  0.754058664E+00
     4
 # iter = 51500  time[fs]=51.50000
   C -0.467866828E+01 -0.185376194E+00  0.192332308E+00
   C  0.475780848E+01 -0.102503652E+00 -0.276598915E-01
   H -0.249742238E+02  0.166762095E+01 -0.209012852E+01
   H  0.247190110E+02  0.199622704E+00  0.766536528E+00
     4
 # iter = 52000  time[fs]=52.00000
   C -0.476013159E+01 -0.188557241E+00  0.195831080E+00
   C  0.483942204E+01 -0.103749236E+00 -0.283673319E-01
   H -0.253663725E+02  0.169367253E+01 -0.212336061E+01
   H  0.251066027E+02  0.202932413E+00  0.779024274E+00
     4
 # iter = 52500  time[fs]=52.50000
   C -0.484172651E+01 -0.191740830E+00  0.199334475E+00
   C  0.492116566E+01 -0.104994230E+00 -0.290781419E-01
   H -0.257587778E+02  0.171974411E+01 -0.215661732E+01
   H  0.254944696E+02  0.206245522E+00  0.791521612E+00
     4
 # iter = 53000  time[fs]=53.00000
   C -0.492344865E+01 -0.194926887E+00  0.202842349E+00
   C  0.500303499E+01 -0.106238648E+00 -0.297922170E-01
   H -0.261514320E+02  0.174583512E+01 -0.218989792E+01
   H  0.258826036E+02  0.209561930E+00  0.804028266E+00
     4
 # iter = 53500  time[fs]=53.50000
   C -0.500529382E+01 -0.198115345E+00  0.206354569E+00
   C  0.508502588E+01 -0.107482504E+00 -0.305094574E-01
   H -0.265443278E+02  0.177194498E+01 -0.222320174E+01
   H  0.262709968E+02  0.212881539E+00  0.816543971E+00
     4
 # iter = 54000  time[fs]=54.00000
   C -0.508725802E+01 -0.201306135E+00  0.209871005E+00
   C  0.516713437E+01 -0.108725811E+00 -0.312297676E-01
   H -0.269374581E+02  0.179807315E+01 -0.225652811E+01
   H  0.266596415E+02  0.216204258E+00  0.829068470E+00
     4
 # iter = 54500  time[fs]=54.50000
   C -0.516933743E+01 -0.204499195E+00  0.213391533E+00
   C  0.524935671E+01 -0.109968584E+00 -0.319530562E-01
   H -0.273308162E+02  0.182421911E+01 -0.228987639E+01
   H  0.270485307E+02  0.219529997E+00  0.841601522E+00
     4
 # iter = 55000  time[fs]=55.00000
   C -0.525152844E+01 -0.207694463E+00  0.216916034E+00
   C  0.533168929E+01 -0.111210834E+00 -0.326792357E-01
   H -0.277243957E+02  0.185038236E+01 -0.232324598E+01
   H  0.274376573E+02  0.222858672E+00  0.854142891E+00
     4
 # iter = 55500  time[fs]=55.50000
   C -0.533382757E+01 -0.210891880E+00  0.220444395E+00
   C  0.541412869E+01 -0.112452575E+00 -0.334082226E-01
   H -0.281181904E+02  0.187656243E+01 -0.235663629E+01
   H  0.278270148E+02  0.226190202E+00  0.866692354E+00
     4
 # iter = 56000  time[fs]=56.00000
   C -0.541623151E+01 -0.214091389E+00  0.223976508E+00
   C  0.549667162E+01 -0.113693817E+00 -0.341399365E-01
   H -0.285121943E+02  0.190275885E+01 -0.239004677E+01
   H  0.282165968E+02  0.229524507E+00  0.879249693E+00
     4
 # iter = 56500  time[fs]=56.50000
   C -0.549873708E+01 -0.217292936E+00  0.227512267E+00
   C  0.557931495E+01 -0.114934573E+00 -0.348743006E-01
   H -0.289064018E+02  0.192897119E+01 -0.242347688E+01
   H  0.286063972E+02  0.232861514E+00  0.891814703E+00
     4
 # iter = 57000  time[fs]=57.00000
   C -0.558134126E+01 -0.220496468E+00  0.231051572E+00
   C  0.566205569E+01 -0.116174855E+00 -0.356112410E-01
   H -0.293008074E+02  0.195519902E+01 -0.245692610E+01
   H  0.289964101E+02  0.236201149E+00  0.904387185E+00
     4
 # iter = 57500  time[fs]=57.50000
   C -0.566404115E+01 -0.223701934E+00  0.234594328E+00
   C  0.574489097E+01 -0.117414672E+00 -0.363506869E-01
   H -0.296954058E+02  0.198144194E+01 -0.249039394E+01
   H  0.293866300E+02  0.239543345E+00  0.916966945E+00
     4
 # iter = 58000  time[fs]=58.00000
   C -0.574683396E+01 -0.226909286E+00  0.238140442E+00
   C  0.582781803E+01 -0.118654037E+00 -0.370925705E-01
   H -0.300901921E+02  0.200769955E+01 -0.252387992E+01
   H  0.297770514E+02  0.242888034E+00  0.929553800E+00
     4
 # iter = 58500  time[fs]=58.50000
   C -0.582971704E+01 -0.230118477E+00  0.241689824E+00
   C  0.591083424E+01 -0.119892958E+00 -0.378368262E-01
   H -0.304851614E+02  0.203397149E+01 -0.255738357E+01
   H  0.301676690E+02  0.246235152E+00  0.942147573E+00
     4
 # iter = 59000  time[fs]=59.00000
   C -0.591268783E+01 -0.233329462E+00  0.245242391E+00
   C  0.599393709E+01 -0.121131447E+00 -0.385833915E-01
   H -0.308803089E+02  0.206025739E+01 -0.259090447E+01
   H  0.305584780E+02  0.249584638E+00  0.954748093E+00
     4
 # iter = 59500  time[fs]=59.50000
   C -0.599574389E+01 -0.236542196E+00  0.248798059E+00
   C  0.607712414E+01 -0.122369513E+00 -0.393322058E-01
   H -0.312756303E+02  0.208655690E+01 -0.262444218E+01
   H  0.309494734E+02  0.252936432E+00  0.967355194E+00
     4
 # iter = 60000  time[fs]=60.00000
   C -0.607888286E+01 -0.239756638E+00  0.252356750E+00
   C  0.616039308E+01 -0.123607165E+00 -0.400832111E-01
   H -0.316711212E+02  0.211286969E+01 -0.265799629E+01
   H  0.313406507E+02  0.256290478E+00  0.979968718E+00
     4
 # iter = 60500  time[fs]=60.50000
   C -0.616210250E+01 -0.242972747E+00  0.255918387E+00
   C  0.624374168E+01 -0.124844412E+00 -0.408363514E-01
   H -0.320667774E+02  0.213919543E+01 -0.269156640E+01
   H  0.317320053E+02  0.259646720E+00  0.992588512E+00
     4
 # iter = 61000  time[fs]=61.00000
   C -0.624540062E+01 -0.246190483E+00  0.259482898E+00
   C  0.632716779E+01 -0.126081264E+00 -0.415915731E-01
   H -0.324625948E+02  0.216553381E+01 -0.272515214E+01
   H  0.321235330E+02  0.263005105E+00  0.100521443E+01
     4
 # iter = 61500  time[fs]=61.50000
   C -0.632877515E+01 -0.249409810E+00  0.263050211E+00
   C  0.641066935E+01 -0.127317729E+00 -0.423488241E-01
   H -0.328585698E+02  0.219188454E+01 -0.275875314E+01
   H  0.325152296E+02  0.266365582E+00  0.101784632E+01
     4
 # iter = 62000  time[fs]=62.00000
   C -0.641222409E+01 -0.252630689E+00  0.266620258E+00
   C  0.649424438E+01 -0.128553815E+00 -0.431080544E-01
   H -0.332546984E+02  0.221824732E+01 -0.279236904E+01
   H  0.329070911E+02  0.269728101E+00  0.103048406E+01
     4
 # iter = 62500  time[fs]=62.50000
   C -0.649574550E+01 -0.255853087E+00  0.270192974E+00
   C  0.657789098E+01 -0.129789531E+00 -0.438692160E-01
   H -0.336509770E+02  0.224462187E+01 -0.282599949E+01
   H  0.332991136E+02  0.273092616E+00  0.104312750E+01
     4
 # iter = 63000  time[fs]=63.00000
   C -0.657933754E+01 -0.259076968E+00  0.273768295E+00
   C  0.666160731E+01 -0.131024885E+00 -0.446322623E-01
   H -0.340474023E+02  0.227100793E+01 -0.285964417E+01
   H  0.336912934E+02  0.276459080E+00  0.105577653E+01
     4
 # iter = 63500  time[fs]=63.50000
   C -0.666299840E+01 -0.262302299E+00  0.277346160E+00
   C  0.674539160E+01 -0.132259883E+00 -0.453971484E-01
   H -0.344439709E+02  0.229740522E+01 -0.289330276E+01
   H  0.340836269E+02  0.279827448E+00  0.106843101E+01
     4
 # iter = 64000  time[fs]=64.00000
   C -0.674672639E+01 -0.265529049E+00  0.280926511E+00
   C  0.682924216E+01 -0.133494534E+00 -0.461638311E-01
   H -0.348406794E+02  0.232381350E+01 -0.292697495E+01
   H  0.344761106E+02  0.283197677E+00  0.108109082E+01
     4
 # iter = 64500  time[fs]=64.50000
   C -0.683051982E+01 -0.268757185E+00  0.284509289E+00
   C  0.691315734E+01 -0.134728844E+00 -0.469322685E-01
   H -0.352375248E+02  0.235023253E+01 -0.296066043E+01
   H  0.348687411E+02  0.286569726E+00  0.109375585E+01
     4
 # iter = 65000  time[fs]=65.00000
   C -0.691437712E+01 -0.271986680E+00  0.288094440E+00
   C  0.699713557E+01 -0.135962821E+00 -0.477024201E-01
   H -0.356345040E+02  0.237666207E+01 -0.299435892E+01
   H  0.352615151E+02  0.289943555E+00  0.110642599E+01
     4
 # iter = 65500  time[fs]=65.50000
   C -0.699829672E+01 -0.275217502E+00  0.291681910E+00
   C  0.708117531E+01 -0.137196472E+00 -0.484742471E-01
   H -0.360316140E+02  0.240310188E+01 -0.302807013E+01
   H  0.356544295E+02  0.293319125E+00  0.111910113E+01
     4
 # iter = 66000  time[fs]=66.00000
   C -0.708227715E+01 -0.278449624E+00  0.295271648E+00
   C  0.716527510E+01 -0.138429803E+00 -0.492477116E-01
   H -0.364288521E+02  0.242955176E+01 -0.306179380E+01
   H  0.360474813E+02  0.296696398E+00  0.113178116E+01
     4
 # iter = 66500  time[fs]=66.50000
   C -0.716631697E+01 -0.281683019E+00  0.298863604E+00
   C  0.724943352E+01 -0.139662821E+00 -0.500227770E-01
   H -0.368262155E+02  0.245601148E+01 -0.309552966E+01
   H  0.364406675E+02  0.300075337E+00  0.114446597E+01
     4
 # iter = 67000  time[fs]=67.00000
   C -0.725041478E+01 -0.284917661E+00  0.302457729E+00
   C  0.733364919E+01 -0.140895531E+00 -0.507994082E-01
   H -0.372237015E+02  0.248248083E+01 -0.312927746E+01
   H  0.368339852E+02  0.303455908E+00  0.115715548E+01
     4
 # iter = 67500  time[fs]=67.50000
   C -0.733456926E+01 -0.288153522E+00  0.306053978E+00
   C  0.741792079E+01 -0.142127941E+00 -0.515775709E-01
   H -0.376213075E+02  0.250895963E+01 -0.316303695E+01
   H  0.372274317E+02  0.306838076E+00  0.116984958E+01
     4
 # iter = 68000  time[fs]=68.00000
   C -0.741877910E+01 -0.291390580E+00  0.309652304E+00
   C  0.750224705E+01 -0.143360055E+00 -0.523572320E-01
   H -0.380190310E+02  0.253544766E+01 -0.319680789E+01
   H  0.376210043E+02  0.310221808E+00  0.118254818E+01
     4
 # iter = 68500  time[fs]=68.50000
   C -0.750304304E+01 -0.294628808E+00  0.313252663E+00
   C  0.758662671E+01 -0.144591880E+00 -0.531383595E-01
   H -0.384168696E+02  0.256194475E+01 -0.323059005E+01
   H  0.380147004E+02  0.313607072E+00  0.119525119E+01
     4
 # iter = 69000  time[fs]=69.00000
   C -0.758735989E+01 -0.297868185E+00  0.316855014E+00
   C  0.767105859E+01 -0.145823421E+00 -0.539209223E-01
   H -0.388148210E+02  0.258845071E+01 -0.326438320E+01
   H  0.384085174E+02  0.316993837E+00  0.120795852E+01
     4
 # iter = 69500  time[fs]=69.50000
   C -0.767172846E+01 -0.301108687E+00  0.320459315E+00
   C  0.775554153E+01 -0.147054684E+00 -0.547048903E-01
   H -0.392128829E+02  0.261496536E+01 -0.329818712E+01
   H  0.388024529E+02  0.320382073E+00  0.122067009E+01
     4
 # iter = 70000  time[fs]=70.00000
   C -0.775614763E+01 -0.304350293E+00  0.324065526E+00
   C  0.784007440E+01 -0.148285673E+00 -0.554902344E-01
   H -0.396110530E+02  0.264148853E+01 -0.333200161E+01
   H  0.391965046E+02  0.323771750E+00  0.123338582E+01
     4
 # iter = 70500  time[fs]=70.50000
   C -0.784061629E+01 -0.307592980E+00  0.327673609E+00
   C  0.792465613E+01 -0.149516395E+00 -0.562769263E-01
   H -0.400093292E+02  0.266802005E+01 -0.336582645E+01
   H  0.395906700E+02  0.327162839E+00  0.124610562E+01
     4
 # iter = 71000  time[fs]=71.00000
   C -0.792513338E+01 -0.310836727E+00  0.331283525E+00
   C  0.800928565E+01 -0.150746854E+00 -0.570649387E-01
   H -0.404077094E+02  0.269455976E+01 -0.339966145E+01
   H  0.399849471E+02  0.330555314E+00  0.125882941E+01
     4
 # iter = 71500  time[fs]=71.50000
   C -0.800969787E+01 -0.314081516E+00  0.334895238E+00
   C  0.809396196E+01 -0.151977055E+00 -0.578542447E-01
   H -0.408061917E+02  0.272110751E+01 -0.343350641E+01
   H  0.403793336E+02  0.333949147E+00  0.127155713E+01
     4
 # iter = 72000  time[fs]=72.00000
   C -0.809430877E+01 -0.317327325E+00  0.338508713E+00
   C  0.817868407E+01 -0.153207003E+00 -0.586448187E-01
   H -0.412047740E+02  0.274766313E+01 -0.346736114E+01
   H  0.407738274E+02  0.337344312E+00  0.128428869E+01
     4
 # iter = 72500  time[fs]=72.50000
   C -0.817896511E+01 -0.320574136E+00  0.342123915E+00
   C  0.826345102E+01 -0.154436702E+00 -0.594366356E-01
   H -0.416034544E+02  0.277422649E+01 -0.350122547E+01
   H  0.411684265E+02  0.340740785E+00  0.129702403E+01
     4
 # iter = 73000  time[fs]=73.00000
   C -0.826366594E+01 -0.323821930E+00  0.345740812E+00
   C  0.834826188E+01 -0.155666157E+00 -0.602296711E-01
   H -0.420022311E+02  0.280079742E+01 -0.353509920E+01
   H  0.415631288E+02  0.344138539E+00  0.130976307E+01
     4
 # iter = 73500  time[fs]=73.50000
   C -0.834841036E+01 -0.327070689E+00  0.349359370E+00
   C  0.843311576E+01 -0.156895372E+00 -0.610239014E-01
   H -0.424011022E+02  0.282737581E+01 -0.356898218E+01
   H  0.419579324E+02  0.347537552E+00  0.132250576E+01
     4
 # iter = 74000  time[fs]=74.00000
   C -0.843319748E+01 -0.330320395E+00  0.352979558E+00
   C  0.851801179E+01 -0.158124352E+00 -0.618193037E-01
   H -0.428000660E+02  0.285396150E+01 -0.360287422E+01
   H  0.423528355E+02  0.350937800E+00  0.133525201E+01
     4
 # iter = 74500  time[fs]=74.50000
   C -0.851802646E+01 -0.333571031E+00  0.356601345E+00
   C  0.860294911E+01 -0.159353100E+00 -0.626158555E-01
   H -0.431991209E+02  0.288055437E+01 -0.363677516E+01
   H  0.427478363E+02  0.354339261E+00  0.134800177E+01
     4
 # iter = 75000  time[fs]=75.00000
   C -0.860289645E+01 -0.336822581E+00  0.360224702E+00
   C  0.868792691E+01 -0.160581622E+00 -0.634135352E-01
   H -0.435982651E+02  0.290715428E+01 -0.367068486E+01
   H  0.431429328E+02  0.357741912E+00  0.136075497E+01
     4
 # iter = 75500  time[fs]=75.50000
   C -0.868780665E+01 -0.340075028E+00  0.363849600E+00
   C  0.877294438E+01 -0.161809920E+00 -0.642123218E-01
   H -0.439974970E+02  0.293376111E+01 -0.370460314E+01
   H  0.435381235E+02  0.361145732E+00  0.137351156E+01
     4
 # iter = 76000  time[fs]=76.00000
   C -0.877275628E+01 -0.343328356E+00  0.367476010E+00
   C  0.885800076E+01 -0.163037999E+00 -0.650121946E-01
   H -0.443968151E+02  0.296037473E+01 -0.373852985E+01
   H  0.439334065E+02  0.364550700E+00  0.138627148E+01
     4
 # iter = 76500  time[fs]=76.50000
   C -0.885774457E+01 -0.346582550E+00  0.371103904E+00
   C  0.894309530E+01 -0.164265862E+00 -0.658131338E-01
   H -0.447962178E+02  0.298699503E+01 -0.377246486E+01
   H  0.443287804E+02  0.367956796E+00  0.139903466E+01
     4
 # iter = 77000  time[fs]=77.00000
   C -0.894277078E+01 -0.349837596E+00  0.374733257E+00
   C  0.902822725E+01 -0.165493513E+00 -0.666151198E-01
   H -0.451957036E+02  0.301362189E+01 -0.380640802E+01
   H  0.447242434E+02  0.371364000E+00  0.141180105E+01
     4
 # iter = 77500  time[fs]=77.50000
   C -0.902783420E+01 -0.353093477E+00  0.378364042E+00
   C  0.911339591E+01 -0.166720956E+00 -0.674181339E-01
   H -0.455952712E+02  0.304025520E+01 -0.384035918E+01
   H  0.451197940E+02  0.374772293E+00  0.142457061E+01
     4
 # iter = 78000  time[fs]=78.00000
   C -0.911293412E+01 -0.356350180E+00  0.381996234E+00
   C  0.919860060E+01 -0.167948194E+00 -0.682221575E-01
   H -0.459949190E+02  0.306689484E+01 -0.387431821E+01
   H  0.455154307E+02  0.378181656E+00  0.143734326E+01
     4
 # iter = 78500  time[fs]=78.50000
   C -0.919806987E+01 -0.359607691E+00  0.385629808E+00
   C  0.928384063E+01 -0.169175231E+00 -0.690271728E-01
   H -0.463946456E+02  0.309354071E+01 -0.390828497E+01
   H  0.459111520E+02  0.381592070E+00  0.145011896E+01
     4
 # iter = 79000  time[fs]=79.00000
   C -0.928324078E+01 -0.362865997E+00  0.389264740E+00
   C  0.936911535E+01 -0.170402070E+00 -0.698331623E-01
   H -0.467944499E+02  0.312019270E+01 -0.394225935E+01
   H  0.463069565E+02  0.385003518E+00  0.146289767E+01
     4
 # iter = 79500  time[fs]=79.50000
   C -0.936844621E+01 -0.366125084E+00  0.392901007E+00
   C  0.945442413E+01 -0.171628714E+00 -0.706401091E-01
   H -0.471943303E+02  0.314685072E+01 -0.397624121E+01
   H  0.467028428E+02  0.388415983E+00  0.147567932E+01
     4
 # iter = 80000  time[fs]=80.00000
   C -0.945368552E+01 -0.369384939E+00  0.396538586E+00
   C  0.953976635E+01 -0.172855167E+00 -0.714479965E-01
   H -0.475942857E+02  0.317351465E+01 -0.401023042E+01
   H  0.470988095E+02  0.391829447E+00  0.148846388E+01
