     4
 # iter = 25000  time[fs]=25.00000
   C -0.990965672E+00  0.109138631E-01  0.858510007E-02
   C  0.975372806E+00 -0.285059284E-01 -0.222246419E-01
   H -0.518524293E+01  0.425657416E+00  0.647246567E+00
   H  0.527423167E+01 -0.318278131E+00 -0.585883226E+00
     4
 # iter = 25500  time[fs]=25.50000
   C -0.103736630E+01  0.938191492E-02  0.731989601E-02
   C  0.101820835E+01 -0.285449811E-01 -0.194024515E-01
   H -0.551743343E+01  0.451235167E+00  0.689072742E+00
   H  0.559023882E+01 -0.339102534E+00 -0.619182869E+00
     4
 # iter = 26000  time[fs]=26.00000
   C -0.108680119E+01  0.788634371E-02  0.606333029E-02
   C  0.106409846E+01 -0.286342252E-01 -0.166001956E-01
   H -0.585524466E+01  0.477318064E+00  0.731672424E+00
   H  0.591162314E+01 -0.360266311E+00 -0.653120465E+00
     4
 # iter = 26500  time[fs]=26.50000
   C -0.113901519E+01  0.642056722E-02  0.480863204E-02
   C  0.111278298E+01 -0.287651068E-01 -0.138094580E-01
   H -0.619803490E+01  0.503847111E+00  0.774956354E+00
   H  0.623780297E+01 -0.381734123E+00 -0.687626499E+00
     4
 # iter = 27000  time[fs]=27.00000
   C -0.119377032E+01  0.497896181E-02  0.355037908E-02
   C  0.116402007E+01 -0.289303990E-01 -0.110234829E-01
   H -0.654526073E+01  0.530772690E+00  0.818849316E+00
   H  0.656828084E+01 -0.403475595E+00 -0.722641759E+00
     4
 # iter = 27500  time[fs]=27.50000
   C -0.125084704E+01  0.355678169E-02  0.228433036E-02
   C  0.121758728E+01 -0.291240391E-01 -0.823693699E-02
   H -0.689645878E+01  0.558052743E+00  0.863287433E+00
   H  0.690262881E+01 -0.425464469E+00 -0.758115474E+00
     4
 # iter = 28000  time[fs]=28.00000
   C -0.131004452E+01  0.215005806E-02  0.100724640E-02
   C  0.127328147E+01 -0.293409661E-01 -0.544567807E-02
   H -0.725123143E+01  0.585651350E+00  0.908216062E+00
   H  0.724047663E+01 -0.447677932E+00 -0.794003835E+00
     4
 # iter = 28500  time[fs]=28.50000
   C -0.137118008E+01  0.755494173E-03 -0.283283026E-03
   C  0.133091820E+01 -0.295769698E-01 -0.264654309E-02
   H -0.760923539E+01  0.613537626E+00  0.953588147E+00
   H  0.758150231E+01 -0.470096059E+00 -0.830268818E+00
     4
 # iter = 29000  time[fs]=29.00000
   C -0.143408826E+01 -0.629634782E-03 -0.158899397E-02
   C  0.139033062E+01 -0.298285554E-01  0.162836932E-03
   H -0.797017257E+01  0.641684843E+00  0.999362905E+00
   H  0.792542437E+01 -0.492701365E+00 -0.866877237E+00
     4
 # iter = 29500  time[fs]=29.50000
   C -0.149861959E+01 -0.200757240E-02 -0.291108240E-02
   C  0.145136817E+01 -0.300928249E-01  0.298419414E-02
   H -0.833378278E+01  0.670069734E+00  0.104550479E+01
   H  0.827199558E+01 -0.515478434E+00 -0.903799979E+00
     4
 # iter = 30000  time[fs]=30.00000
   C -0.156463926E+01 -0.338016064E-02 -0.425031704E-02
   C  0.151389520E+01 -0.303673766E-01  0.581875467E-02
   H -0.869983770E+01  0.698671935E+00  0.109198265E+01
   H  0.862099784E+01 -0.538413618E+00 -0.941011378E+00
     4
 # iter = 30500  time[fs]=30.50000
   C -0.163202578E+01 -0.474890811E-02 -0.560713240E-02
   C  0.157778957E+01 -0.306502201E-01  0.866734588E-02
   H -0.906813608E+01  0.727473528E+00  0.113876903E+01
   H  0.897223787E+01 -0.561494782E+00 -0.978488709E+00
     4
 # iter = 31000  time[fs]=31.00000
   C -0.170066971E+01 -0.611504782E-02 -0.698170449E-02
   C  0.164294129E+01 -0.309397050E-01  0.115304832E-01
   H -0.943849974E+01  0.756458673E+00  0.118583967E+01
   H  0.932554376E+01 -0.584711094E+00 -0.101621176E+01
     4
 # iter = 31500  time[fs]=31.50000
   C -0.177047239E+01 -0.747958544E-02 -0.837401159E-02
   C  0.170925130E+01 -0.312344621E-01  0.144084397E-01
   H -0.981077023E+01  0.785613306E+00  0.123317297E+01
   H  0.968076197E+01 -0.608052854E+00 -0.105416248E+01
     4
 # iter = 32000  time[fs]=32.00000
   C -0.184134483E+01 -0.884333944E-02 -0.978388283E-02
   C  0.177663029E+01 -0.315333547E-01  0.173013024E-01
   H -0.101848061E+02  0.814924886E+00  0.128074967E+01
   H  0.100377549E+02 -0.631511339E+00 -0.109232471E+01
     4
 # iter = 32500  time[fs]=32.50000
   C -0.191320668E+01 -0.102069742E-01 -0.112110366E-01
   C  0.184499767E+01 -0.318354382E-01  0.202090157E-01
   H -0.105604808E+02  0.844382188E+00  0.132855250E+01
   H  0.103963989E+02 -0.655078684E+00 -0.113068389E+01
     4
 # iter = 33000  time[fs]=33.00000
   C -0.198598528E+01 -0.115710275E-01 -0.126551106E-01
   C  0.191428059E+01 -0.321399274E-01  0.231314170E-01
   H -0.109376802E+02  0.873975124E+00  0.137656594E+01
   H  0.107565822E+02 -0.678747774E+00 -0.116922689E+01
     4
 # iter = 33500  time[fs]=33.50000
   C -0.205961488E+01 -0.129359328E-01 -0.141156858E-01
   C  0.198441314E+01 -0.324461691E-01  0.260682640E-01
   H -0.113163017E+02  0.903694603E+00  0.142477600E+01
   H  0.111182039E+02 -0.702512152E+00 -0.120794184E+01
     4
 # iter = 34000  time[fs]=34.00000
   C -0.213403581E+01 -0.143020377E-01 -0.155923047E-01
   C  0.205533556E+01 -0.327536199E-01  0.290192564E-01
   H -0.116962523E+02  0.933532398E+00  0.147316998E+01
   H  0.114811724E+02 -0.726365943E+00 -0.124681794E+01
     4
 # iter = 34500  time[fs]=34.50000
   C -0.220919391E+01 -0.156696192E-01 -0.170844856E-01
   C  0.212699360E+01 -0.330618274E-01  0.319840530E-01
   H -0.120774475E+02  0.963481050E+00  0.152173639E+01
   H  0.118454042E+02 -0.750303789E+00 -0.128584537E+01
     4
 # iter = 35000  time[fs]=35.00000
   C -0.228503989E+01 -0.170388964E-01 -0.185917334E-01
   C  0.219933791E+01 -0.333704155E-01  0.349622845E-01
   H -0.124598108E+02  0.993533769E+00  0.157046475E+01
   H  0.122108232E+02 -0.774320788E+00 -0.132501516E+01
     4
 # iter = 35500  time[fs]=35.50000
   C -0.236152883E+01 -0.184100403E-01 -0.201135482E-01
   C  0.227232353E+01 -0.336790714E-01  0.379535643E-01
   H -0.128432719E+02  0.102368436E+01  0.161934548E+01
   H  0.125773598E+02 -0.798412446E+00 -0.136431911E+01
     4
 # iter = 36000  time[fs]=36.00000
   C -0.243861970E+01 -0.197831823E-01 -0.216494317E-01
   C  0.234590942E+01 -0.339875355E-01  0.409574962E-01
   H -0.132277669E+02  0.105392716E+01  0.166836984E+01
   H  0.129449502E+02 -0.822574637E+00 -0.140374968E+01
     4
 # iter = 36500  time[fs]=36.50000
   C -0.251627499E+01 -0.211584217E-01 -0.231988916E-01
   C  0.242005806E+01 -0.342955928E-01  0.439736803E-01
   H -0.136132370E+02  0.108425698E+01  0.171752979E+01
   H  0.133135358E+02 -0.846803556E+00 -0.144329995E+01
     4
 # iter = 37000  time[fs]=37.00000
   C -0.259446033E+01 -0.225358307E-01 -0.247614453E-01
   C  0.249473507E+01 -0.346030653E-01  0.470017180E-01
   H -0.139996281E+02  0.111466903E+01  0.176681794E+01
   H  0.136830627E+02 -0.871095697E+00 -0.148296354E+01
     4
 # iter = 37500  time[fs]=37.50000
   C -0.267314419E+01 -0.239154596E-01 -0.263366224E-01
   C  0.256990893E+01 -0.349098066E-01  0.500412153E-01
   H -0.143868907E+02  0.114515893E+01  0.181622749E+01
   H  0.140534810E+02 -0.895447816E+00 -0.152273457E+01
     4
 # iter = 38000  time[fs]=38.00000
   C -0.275229755E+01 -0.252973406E-01 -0.279239664E-01
   C  0.264555063E+01 -0.352156967E-01  0.530917852E-01
   H -0.147749788E+02  0.117572262E+01  0.186575215E+01
   H  0.144247446E+02 -0.919856909E+00 -0.156260757E+01
     4
 # iter = 38500  time[fs]=38.50000
   C -0.283189372E+01 -0.266814910E-01 -0.295230358E-01
   C  0.272163351E+01 -0.355206378E-01  0.561530501E-01
   H -0.151638500E+02  0.120635633E+01  0.191538610E+01
   H  0.147968110E+02 -0.944320187E+00 -0.160257750E+01
     4
 # iter = 39000  time[fs]=39.00000
   C -0.291190806E+01 -0.280679161E-01 -0.311334048E-01
   C  0.279813295E+01 -0.358245509E-01  0.592246426E-01
   H -0.155534650E+02  0.123705660E+01  0.196512396E+01
   H  0.151696406E+02 -0.968835060E+00 -0.164263967E+01
     4
 # iter = 39500  time[fs]=39.50000
   C -0.299231782E+01 -0.294566110E-01 -0.327546637E-01
   C  0.287502623E+01 -0.361273727E-01  0.623062067E-01
   H -0.159437874E+02  0.126782019E+01  0.201496071E+01
   H  0.155431965E+02 -0.993399114E+00 -0.168278971E+01
     4
 # iter = 40000  time[fs]=40.00000
   C -0.307310195E+01 -0.308475628E-01 -0.343864189E-01
   C  0.295229231E+01 -0.364290535E-01  0.653973984E-01
   H -0.163347833E+02  0.129864410E+01  0.206489169E+01
   H  0.159174447E+02 -0.101801010E+01 -0.172302357E+01
     4
 # iter = 40500  time[fs]=40.50000
   C -0.315424094E+01 -0.322407523E-01 -0.360282931E-01
   C  0.302991171E+01 -0.367295547E-01  0.684978859E-01
   H -0.167264211E+02  0.132952555E+01  0.211491257E+01
   H  0.162923532E+02 -0.104266592E+01 -0.176333744E+01
     4
 # iter = 41000  time[fs]=41.00000
   C -0.323571667E+01 -0.336361548E-01 -0.376799243E-01
   C  0.310786637E+01 -0.370288474E-01  0.716073495E-01
   H -0.171186714E+02  0.136046191E+01  0.216501929E+01
   H  0.166678921E+02 -0.106736460E+01 -0.180372778E+01
     4
 # iter = 41500  time[fs]=41.50000
   C -0.331751233E+01 -0.350337415E-01 -0.393409663E-01
   C  0.318613948E+01 -0.373269106E-01  0.747254821E-01
   H -0.175115067E+02  0.139145075E+01  0.221520807E+01
   H  0.170440337E+02 -0.109210430E+01 -0.184419128E+01
     4
 # iter = 42000  time[fs]=42.00000
   C -0.339961225E+01 -0.364334803E-01 -0.410110876E-01
   C  0.326471541E+01 -0.376237304E-01  0.778519885E-01
   H -0.179049013E+02  0.142248979E+01  0.226547536E+01
   H  0.174207518E+02 -0.111688331E+01 -0.188472482E+01
     4
 # iter = 42500  time[fs]=42.50000
   C -0.348200183E+01 -0.378353366E-01 -0.426899713E-01
   C  0.334357961E+01 -0.379192985E-01  0.809865854E-01
   H -0.182988311E+02  0.145357690E+01  0.231581784E+01
   H  0.177980220E+02 -0.114169999E+01 -0.192532549E+01
     4
 # iter = 43000  time[fs]=43.00000
   C -0.356466746E+01 -0.392392737E-01 -0.443773141E-01
   C  0.342271848E+01 -0.382136113E-01  0.841290012E-01
   H -0.186932736E+02  0.148471007E+01  0.236623240E+01
   H  0.181758214E+02 -0.116655282E+01 -0.196599056E+01
     4
 # iter = 43500  time[fs]=43.50000
   C -0.364759642E+01 -0.406452538E-01 -0.460728264E-01
   C  0.350211933E+01 -0.385066695E-01  0.872789752E-01
   H -0.190882076E+02  0.151588741E+01  0.241671610E+01
   H  0.185541283E+02 -0.119144037E+01 -0.200671743E+01
     4
 # iter = 44000  time[fs]=44.00000
   C -0.373077679E+01 -0.420532379E-01 -0.477762311E-01
   C  0.358177029E+01 -0.387984772E-01  0.904362580E-01
   H -0.194836130E+02  0.154710717E+01  0.246726619E+01
   H  0.189329224E+02 -0.121636128E+01 -0.204750369E+01
     4
 # iter = 44500  time[fs]=44.50000
   C -0.381419742E+01 -0.434631863E-01 -0.494872634E-01
   C  0.366166024E+01 -0.390890413E-01  0.936006102E-01
   H -0.198794713E+02  0.157836766E+01  0.251788007E+01
   H  0.193121846E+02 -0.124131429E+01 -0.208834704E+01
     4
 # iter = 45000  time[fs]=45.00000
   C -0.389784786E+01 -0.448750591E-01 -0.512056702E-01
   C  0.374177874E+01 -0.393783711E-01  0.967718027E-01
   H -0.202757646E+02  0.160966732E+01  0.256855529E+01
   H  0.196918969E+02 -0.126629818E+01 -0.212924532E+01
     4
 # iter = 45500  time[fs]=45.50000
   C -0.398171829E+01 -0.462888163E-01 -0.529312094E-01
   C  0.382211602E+01 -0.396664780E-01  0.999496158E-01
   H -0.206724764E+02  0.164100466E+01  0.261928954E+01
   H  0.200720422E+02 -0.129131182E+01 -0.217019649E+01
     4
 # iter = 46000  time[fs]=46.00000
   C -0.406579948E+01 -0.477044179E-01 -0.546636495E-01
   C  0.390266287E+01 -0.399533749E-01  0.103133839E+00
   H -0.210695908E+02  0.167237829E+01  0.267008064E+01
   H  0.204526044E+02 -0.131635412E+01 -0.221119862E+01
     4
 # iter = 46500  time[fs]=46.50000
   C -0.415008276E+01 -0.491218242E-01 -0.564027692E-01
   C  0.398341065E+01 -0.402390761E-01  0.106324271E+00
   H -0.214670930E+02  0.170378687E+01  0.272092652E+01
   H  0.208335683E+02 -0.134142408E+01 -0.225224988E+01
     4
 # iter = 47000  time[fs]=47.00000
   C -0.423455994E+01 -0.505409959E-01 -0.581483565E-01
   C  0.406435120E+01 -0.405235969E-01  0.109520719E+00
   H -0.218649688E+02  0.173522915E+01  0.277182523E+01
   H  0.212149194E+02 -0.136652071E+01 -0.229334854E+01
     4
 # iter = 47500  time[fs]=47.50000
   C -0.431922332E+01 -0.519618943E-01 -0.599002087E-01
   C  0.414547685E+01 -0.408069536E-01  0.112722997E+00
   H -0.222632050E+02  0.176670394E+01  0.282277490E+01
   H  0.215966441E+02 -0.139164311E+01 -0.233449296E+01
     4
 # iter = 48000  time[fs]=48.00000
   C -0.440406561E+01 -0.533844811E-01 -0.616581318E-01
   C  0.422678033E+01 -0.410891631E-01  0.115930928E+00
   H -0.226617889E+02  0.179821012E+01  0.287377378E+01
   H  0.219787294E+02 -0.141679039E+01 -0.237568156E+01
     4
 # iter = 48500  time[fs]=48.50000
   C -0.448907996E+01 -0.548087188E-01 -0.634219400E-01
   C  0.430825482E+01 -0.413702428E-01  0.119144342E+00
   H -0.230607085E+02  0.182974660E+01  0.292482019E+01
   H  0.223611629E+02 -0.144196173E+01 -0.241691288E+01
     4
 # iter = 49000  time[fs]=49.00000
   C -0.457425985E+01 -0.562345704E-01 -0.651914550E-01
   C  0.438989384E+01 -0.416502106E-01  0.122363075E+00
   H -0.234599523E+02  0.186131239E+01  0.297591256E+01
   H  0.227439330E+02 -0.146715634E+01 -0.245818550E+01
     4
 # iter = 49500  time[fs]=49.50000
   C -0.465959915E+01 -0.576620000E-01 -0.669665064E-01
   C  0.447169125E+01 -0.419290845E-01  0.125586971E+00
   H -0.238595096E+02  0.189290649E+01  0.302704936E+01
   H  0.231270286E+02 -0.149237347E+01 -0.249949807E+01
     4
 # iter = 50000  time[fs]=50.00000
   C -0.474509203E+01 -0.590909721E-01 -0.687469306E-01
   C  0.455364127E+01 -0.422068828E-01  0.128815880E+00
   H -0.242593700E+02  0.192452801E+01  0.307822917E+01
   H  0.235104390E+02 -0.151761241E+01 -0.254084932E+01
     4
 # iter = 50500  time[fs]=50.50000
   C -0.483073296E+01 -0.605214522E-01 -0.705325707E-01
   C  0.463573839E+01 -0.424836239E-01  0.132049657E+00
   H -0.246595237E+02  0.195617605E+01  0.312945061E+01
   H  0.238941541E+02 -0.154287246E+01 -0.258223804E+01
     4
 # iter = 51000  time[fs]=51.00000
   C -0.491651671E+01 -0.619534066E-01 -0.723232762E-01
   C  0.471797740E+01 -0.427593260E-01  0.135288164E+00
   H -0.250599613E+02  0.198784979E+01  0.318071237E+01
   H  0.242781644E+02 -0.156815298E+01 -0.262366305E+01
     4
 # iter = 51500  time[fs]=51.50000
   C -0.500243830E+01 -0.633868024E-01 -0.741189027E-01
   C  0.480035334E+01 -0.430340075E-01  0.138531268E+00
   H -0.254606740E+02  0.201954843E+01  0.323201322E+01
   H  0.246624606E+02 -0.159345335E+01 -0.266512325E+01
     4
 # iter = 52000  time[fs]=52.00000
   C -0.508849300E+01 -0.648216075E-01 -0.759193115E-01
   C  0.488286151E+01 -0.433076866E-01  0.141778840E+00
   H -0.258616533E+02  0.205127120E+01  0.328335195E+01
   H  0.250470339E+02 -0.161877297E+01 -0.270661758E+01
     4
 # iter = 52500  time[fs]=52.50000
   C -0.517467633E+01 -0.662577906E-01 -0.777243694E-01
   C  0.496549744E+01 -0.435803814E-01  0.145030759E+00
   H -0.262628909E+02  0.208301737E+01  0.333472744E+01
   H  0.254318761E+02 -0.164411128E+01 -0.274814503E+01
     4
 # iter = 53000  time[fs]=53.00000
   C -0.526098400E+01 -0.676953212E-01 -0.795339486E-01
   C  0.504825686E+01 -0.438521097E-01  0.148286905E+00
   H -0.266643792E+02  0.211478626E+01  0.338613860E+01
   H  0.258169790E+02 -0.166946772E+01 -0.278970462E+01
     4
 # iter = 53500  time[fs]=53.50000
   C -0.534741193E+01 -0.691341695E-01 -0.813479259E-01
   C  0.513113573E+01 -0.441228892E-01  0.151547165E+00
   H -0.270661107E+02  0.214657720E+01  0.343758438E+01
   H  0.262023351E+02 -0.169484179E+01 -0.283129543E+01
     4
 # iter = 54000  time[fs]=54.00000
   C -0.543395625E+01 -0.705743069E-01 -0.831661831E-01
   C  0.521413017E+01 -0.443927374E-01  0.154811430E+00
   H -0.274680783E+02  0.217838955E+01  0.348906380E+01
   H  0.265879369E+02 -0.172023298E+01 -0.287291658E+01
     4
 # iter = 54500  time[fs]=54.50000
   C -0.552061325E+01 -0.720157050E-01 -0.849886064E-01
   C  0.529723650E+01 -0.446616714E-01  0.158079594E+00
   H -0.278702752E+02  0.221022270E+01  0.354057591E+01
   H  0.269737776E+02 -0.174564081E+01 -0.291456720E+01
     4
 # iter = 55000  time[fs]=55.00000
   C -0.560737940E+01 -0.734583365E-01 -0.868150863E-01
   C  0.538045121E+01 -0.449297081E-01  0.161351556E+00
   H -0.282726950E+02  0.224207607E+01  0.359211977E+01
   H  0.273598503E+02 -0.177106482E+01 -0.295624648E+01
     4
 # iter = 55500  time[fs]=55.50000
   C -0.569425132E+01 -0.749021749E-01 -0.886455174E-01
   C  0.546377094E+01 -0.451968643E-01  0.164627218E+00
   H -0.286753313E+02  0.227394911E+01  0.364369453E+01
   H  0.277461487E+02 -0.179650459E+01 -0.299795365E+01
     4
 # iter = 56000  time[fs]=56.00000
   C -0.578122578E+01 -0.763471942E-01 -0.904797982E-01
   C  0.554719247E+01 -0.454631562E-01  0.167906486E+00
   H -0.290781782E+02  0.230584126E+01  0.369529935E+01
   H  0.281326664E+02 -0.182195967E+01 -0.303968794E+01
     4
 # iter = 56500  time[fs]=56.50000
   C -0.586829970E+01 -0.777933692E-01 -0.923178308E-01
   C  0.563071275E+01 -0.457285999E-01  0.171189270E+00
   H -0.294812300E+02  0.233775202E+01  0.374693340E+01
   H  0.285193977E+02 -0.184742967E+01 -0.308144864E+01
     4
 # iter = 57000  time[fs]=57.00000
   C -0.595547014E+01 -0.792406755E-01 -0.941595211E-01
   C  0.571432883E+01 -0.459932111E-01  0.174475481E+00
   H -0.298844811E+02  0.236968090E+01  0.379859593E+01
   H  0.289063367E+02 -0.187291419E+01 -0.312323506E+01
     4
 # iter = 57500  time[fs]=57.50000
   C -0.604273426E+01 -0.806890892E-01 -0.960047781E-01
   C  0.579803791E+01 -0.462570053E-01  0.177765036E+00
   H -0.302879262E+02  0.240162741E+01  0.385028618E+01
   H  0.292934781E+02 -0.189841287E+01 -0.316504651E+01
     4
 # iter = 58000  time[fs]=58.00000
   C -0.613008936E+01 -0.821385871E-01 -0.978535142E-01
   C  0.588183729E+01 -0.465199976E-01  0.181057853E+00
   H -0.306915603E+02  0.243359109E+01  0.390200344E+01
   H  0.296808165E+02 -0.192392534E+01 -0.320688238E+01
     4
 # iter = 58500  time[fs]=58.50000
   C -0.621753286E+01 -0.835891468E-01 -0.997056448E-01
   C  0.596572441E+01 -0.467822028E-01  0.184353853E+00
   H -0.310953785E+02  0.246557152E+01  0.395374703E+01
   H  0.300683469E+02 -0.194945126E+01 -0.324874203E+01
     4
 # iter = 59000  time[fs]=59.00000
   C -0.630506225E+01 -0.850407464E-01 -0.101561088E+00
   C  0.604969678E+01 -0.470436354E-01  0.187652961E+00
   H -0.314993760E+02  0.249756827E+01  0.400551627E+01
   H  0.304560644E+02 -0.197499028E+01 -0.329062487E+01
     4
 # iter = 59500  time[fs]=59.50000
   C -0.639267516E+01 -0.864933644E-01 -0.103419766E+00
   C  0.613375203E+01 -0.473043096E-01  0.190955103E+00
   H -0.319035483E+02  0.252958092E+01  0.405731052E+01
   H  0.308439643E+02 -0.200054209E+01 -0.333253033E+01
     4
 # iter = 60000  time[fs]=60.00000
   C -0.648036930E+01 -0.879469803E-01 -0.105281601E+00
   C  0.621788789E+01 -0.475642392E-01  0.194260208E+00
   H -0.323078910E+02  0.256160909E+01  0.410912919E+01
   H  0.312320420E+02 -0.202610637E+01 -0.337445786E+01
     4
 # iter = 60500  time[fs]=60.50000
   C -0.656814246E+01 -0.894015739E-01 -0.107146521E+00
   C  0.630210218E+01 -0.478234379E-01  0.197568208E+00
   H -0.327124000E+02  0.259365240E+01  0.416097166E+01
   H  0.316202933E+02 -0.205168284E+01 -0.341640693E+01
     4
 # iter = 61000  time[fs]=61.00000
   C -0.665599254E+01 -0.908571255E-01 -0.109014454E+00
   C  0.638639278E+01 -0.480819189E-01  0.200879036E+00
   H -0.331170712E+02  0.262571048E+01  0.421283737E+01
   H  0.320087139E+02 -0.207727119E+01 -0.345837702E+01
     4
 # iter = 61500  time[fs]=61.50000
   C -0.674391750E+01 -0.923136161E-01 -0.110885332E+00
   C  0.647075769E+01 -0.483396953E-01  0.204192630E+00
   H -0.335219007E+02  0.265778298E+01  0.426472577E+01
   H  0.323972998E+02 -0.210287115E+01 -0.350036764E+01
     4
 # iter = 62000  time[fs]=62.00000
   C -0.683191540E+01 -0.937710271E-01 -0.112759088E+00
   C  0.655519496E+01 -0.485967797E-01  0.207508926E+00
   H -0.339268848E+02  0.268986956E+01  0.431663633E+01
   H  0.327860471E+02 -0.212848245E+01 -0.354237831E+01
     4
 # iter = 62500  time[fs]=62.50000
   C -0.691998434E+01 -0.952293406E-01 -0.114635658E+00
   C  0.663970272E+01 -0.488531845E-01  0.210827864E+00
   H -0.343320197E+02  0.272196989E+01  0.436856853E+01
   H  0.331749519E+02 -0.215410483E+01 -0.358440856E+01
     4
 # iter = 63000  time[fs]=63.00000
   C -0.700812252E+01 -0.966885388E-01 -0.116514980E+00
   C  0.672427917E+01 -0.491089219E-01  0.214149388E+00
   H -0.347373020E+02  0.275408367E+01  0.442052187E+01
   H  0.335640107E+02 -0.217973803E+01 -0.362645796E+01
     4
 # iter = 63500  time[fs]=63.50000
   C -0.709632821E+01 -0.981486049E-01 -0.118396993E+00
   C  0.680892258E+01 -0.493640038E-01  0.217473440E+00
   H -0.351427282E+02  0.278621057E+01  0.447249589E+01
   H  0.339532199E+02 -0.220538183E+01 -0.366852607E+01
     4
 # iter = 64000  time[fs]=64.00000
   C -0.718459971E+01 -0.996095220E-01 -0.120281639E+00
   C  0.689363129E+01 -0.496184416E-01  0.220799966E+00
   H -0.355482952E+02  0.281835032E+01  0.452449010E+01
   H  0.343425762E+02 -0.223103598E+01 -0.371061248E+01
     4
 # iter = 64500  time[fs]=64.50000
   C -0.727293541E+01 -0.101071274E+00 -0.122168861E+00
   C  0.697840368E+01 -0.498722467E-01  0.224128913E+00
   H -0.359539998E+02  0.285050261E+01  0.457650407E+01
   H  0.347320761E+02 -0.225670024E+01 -0.375271677E+01
     4
 # iter = 65000  time[fs]=65.00000
   C -0.736133375E+01 -0.102533845E+00 -0.124058606E+00
   C  0.706323820E+01 -0.501254302E-01  0.227460230E+00
   H -0.363598388E+02  0.288266718E+01  0.462853737E+01
   H  0.351217167E+02 -0.228237442E+01 -0.379483857E+01
     4
 # iter = 65500  time[fs]=65.50000
   C -0.744979322E+01 -0.103997220E+00 -0.125950819E+00
   C  0.714813336E+01 -0.503780029E-01  0.230793868E+00
   H -0.367658094E+02  0.291484375E+01  0.468058956E+01
   H  0.355114947E+02 -0.230805828E+01 -0.383697750E+01
     4
 # iter = 66000  time[fs]=66.00000
   C -0.753831237E+01 -0.105461384E+00 -0.127845450E+00
   C  0.723308771E+01 -0.506299754E-01  0.234129779E+00
   H -0.371719086E+02  0.294703207E+01  0.473266025E+01
   H  0.359014072E+02 -0.233375163E+01 -0.387913318E+01
     4
 # iter = 66500  time[fs]=66.50000
   C -0.762688979E+01 -0.106926322E+00 -0.129742448E+00
   C  0.731809986E+01 -0.508813579E-01  0.237467915E+00
   H -0.375781337E+02  0.297923189E+01  0.478474905E+01
   H  0.362914513E+02 -0.235945427E+01 -0.392130527E+01
     4
 # iter = 67000  time[fs]=67.00000
   C -0.771552414E+01 -0.108392020E+00 -0.131641765E+00
   C  0.740316846E+01 -0.511321606E-01  0.240808233E+00
   H -0.379844820E+02  0.301144297E+01  0.483685556E+01
   H  0.366816243E+02 -0.238516600E+01 -0.396349342E+01
     4
 # iter = 67500  time[fs]=67.50000
   C -0.780421410E+01 -0.109858465E+00 -0.133543354E+00
   C  0.748829222E+01 -0.513823933E-01  0.244150687E+00
   H -0.383909509E+02  0.304366506E+01  0.488897944E+01
   H  0.370719233E+02 -0.241088663E+01 -0.400569730E+01
     4
 # iter = 68000  time[fs]=68.00000
   C -0.789295841E+01 -0.111325642E+00 -0.135447170E+00
   C  0.757346987E+01 -0.516320656E-01  0.247495235E+00
   H -0.387975378E+02  0.307589795E+01  0.494112030E+01
   H  0.374623459E+02 -0.243661599E+01 -0.404791659E+01
     4
 # iter = 68500  time[fs]=68.50000
   C -0.798175584E+01 -0.112793539E+00 -0.137353168E+00
   C  0.765870020E+01 -0.518811869E-01  0.250841836E+00
   H -0.392042405E+02  0.310814141E+01  0.499327782E+01
   H  0.378528894E+02 -0.246235389E+01 -0.409015097E+01
     4
 # iter = 69000  time[fs]=69.00000
   C -0.807060520E+01 -0.114262143E+00 -0.139261306E+00
   C  0.774398203E+01 -0.521297665E-01  0.254190450E+00
   H -0.396110563E+02  0.314039523E+01  0.504545165E+01
   H  0.382435514E+02 -0.248810017E+01 -0.413240015E+01
     4
 # iter = 69500  time[fs]=69.50000
   C -0.815950537E+01 -0.115731441E+00 -0.141171541E+00
   C  0.782931423E+01 -0.523778133E-01  0.257541037E+00
   H -0.400179832E+02  0.317265919E+01  0.509764147E+01
   H  0.386343295E+02 -0.251385466E+01 -0.417466383E+01
     4
 # iter = 70000  time[fs]=70.00000
   C -0.824845521E+01 -0.117201422E+00 -0.143083833E+00
   C  0.791469570E+01 -0.526253361E-01  0.260893560E+00
   H -0.404250188E+02  0.320493311E+01  0.514984695E+01
   H  0.390252214E+02 -0.253961719E+01 -0.421694171E+01
     4
 # iter = 70500  time[fs]=70.50000
   C -0.833745367E+01 -0.118672073E+00 -0.144998143E+00
   C  0.800012536E+01 -0.528723435E-01  0.264247982E+00
   H -0.408321610E+02  0.323721677E+01  0.520206781E+01
   H  0.394162249E+02 -0.256538762E+01 -0.425923354E+01
     4
 # iter = 71000  time[fs]=71.00000
   C -0.842649970E+01 -0.120143383E+00 -0.146914433E+00
   C  0.808560220E+01 -0.531188438E-01  0.267604267E+00
   H -0.412394077E+02  0.326951000E+01  0.525430372E+01
   H  0.398073376E+02 -0.259116579E+01 -0.430153903E+01
     4
 # iter = 71500  time[fs]=71.50000
   C -0.851559230E+01 -0.121615340E+00 -0.148832664E+00
   C  0.817112520E+01 -0.533648454E-01  0.270962379E+00
   H -0.416467568E+02  0.330181261E+01  0.530655441E+01
   H  0.401985576E+02 -0.261695155E+01 -0.434385792E+01
     4
 # iter = 72000  time[fs]=72.00000
   C -0.860473049E+01 -0.123087934E+00 -0.150752801E+00
   C  0.825669340E+01 -0.536103561E-01  0.274322286E+00
   H -0.420542064E+02  0.333412441E+01  0.535881959E+01
   H  0.405898828E+02 -0.264274476E+01 -0.438618997E+01
     4
 # iter = 72500  time[fs]=72.50000
   C -0.869391332E+01 -0.124561154E+00 -0.152674810E+00
   C  0.834230586E+01 -0.538553839E-01  0.277683953E+00
   H -0.424617546E+02  0.336644524E+01  0.541109899E+01
   H  0.409813111E+02 -0.266854528E+01 -0.442853492E+01
     4
 # iter = 73000  time[fs]=73.00000
   C -0.878313988E+01 -0.126034989E+00 -0.154598654E+00
   C  0.842796167E+01 -0.540999364E-01  0.281047350E+00
   H -0.428693994E+02  0.339877492E+01  0.546339235E+01
   H  0.413728406E+02 -0.269435298E+01 -0.447089253E+01
     4
 # iter = 73500  time[fs]=73.50000
   C -0.887240928E+01 -0.127509429E+00 -0.156524302E+00
   C  0.851365995E+01 -0.543440212E-01  0.284412444E+00
   H -0.432771391E+02  0.343111330E+01  0.551569940E+01
   H  0.417644694E+02 -0.272016771E+01 -0.451326258E+01
     4
 # iter = 74000  time[fs]=74.00000
   C -0.896172064E+01 -0.128984465E+00 -0.158451720E+00
   C  0.859939983E+01 -0.545876455E-01  0.287779206E+00
   H -0.436849718E+02  0.346346020E+01  0.556801989E+01
   H  0.421561957E+02 -0.274598936E+01 -0.455564482E+01
     4
 # iter = 74500  time[fs]=74.50000
   C -0.905107315E+01 -0.130460086E+00 -0.160380877E+00
   C  0.868518049E+01 -0.548308165E-01  0.291147605E+00
   H -0.440928960E+02  0.349581548E+01  0.562035358E+01
   H  0.425480177E+02 -0.277181780E+01 -0.459803905E+01
     4
 # iter = 75000  time[fs]=75.00000
   C -0.914046597E+01 -0.131936282E+00 -0.162311742E+00
   C  0.877100112E+01 -0.550735412E-01  0.294517613E+00
   H -0.445009099E+02  0.352817897E+01  0.567270024E+01
   H  0.429399337E+02 -0.279765290E+01 -0.464044505E+01
     4
 # iter = 75500  time[fs]=75.50000
   C -0.922989833E+01 -0.133413046E+00 -0.164244285E+00
   C  0.885686093E+01 -0.553158266E-01  0.297889201E+00
   H -0.449090118E+02  0.356055055E+01  0.572505962E+01
   H  0.433319419E+02 -0.282349456E+01 -0.468286260E+01
     4
 # iter = 76000  time[fs]=76.00000
   C -0.931936945E+01 -0.134890366E+00 -0.166178477E+00
   C  0.894275916E+01 -0.555576793E-01  0.301262343E+00
   H -0.453172003E+02  0.359293006E+01  0.577743150E+01
   H  0.437240407E+02 -0.284934265E+01 -0.472529151E+01
     4
 # iter = 76500  time[fs]=76.50000
   C -0.940887858E+01 -0.136368236E+00 -0.168114290E+00
   C  0.902869508E+01 -0.557991058E-01  0.304637011E+00
   H -0.457254737E+02  0.362531735E+01  0.582981566E+01
   H  0.441162285E+02 -0.287519705E+01 -0.476773157E+01
     4
 # iter = 77000  time[fs]=77.00000
   C -0.949842502E+01 -0.137846645E+00 -0.170051695E+00
   C  0.911466795E+01 -0.560401128E-01  0.308013180E+00
   H -0.461338306E+02  0.365771231E+01  0.588221190E+01
   H  0.445085037E+02 -0.290105768E+01 -0.481018259E+01
     4
 # iter = 77500  time[fs]=77.50000
   C -0.958800803E+01 -0.139325586E+00 -0.171990666E+00
   C  0.920067710E+01 -0.562807063E-01  0.311390823E+00
   H -0.465422694E+02  0.369011478E+01  0.593461999E+01
   H  0.449008648E+02 -0.292692440E+01 -0.485264439E+01
     4
 # iter = 78000  time[fs]=78.00000
   C -0.967762696E+01 -0.140805050E+00 -0.173931177E+00
   C  0.928672182E+01 -0.565208927E-01  0.314769917E+00
   H -0.469507889E+02  0.372252465E+01  0.598703974E+01
   H  0.452933104E+02 -0.295279713E+01 -0.489511677E+01
     4
 # iter = 78500  time[fs]=78.50000
   C -0.976728112E+01 -0.142285029E+00 -0.175873200E+00
   C  0.937280147E+01 -0.567606778E-01  0.318150436E+00
   H -0.473593875E+02  0.375494179E+01  0.603947096E+01
   H  0.456858389E+02 -0.297867576E+01 -0.493759957E+01
     4
 # iter = 79000  time[fs]=79.00000
   C -0.985696987E+01 -0.143765515E+00 -0.177816712E+00
   C  0.945891540E+01 -0.570000677E-01  0.321532359E+00
   H -0.477680640E+02  0.378736607E+01  0.609191343E+01
   H  0.460784490E+02 -0.300456019E+01 -0.498009260E+01
     4
 # iter = 79500  time[fs]=79.50000
   C -0.994669258E+01 -0.145246501E+00 -0.179761688E+00
   C  0.954506298E+01 -0.572390681E-01  0.324915660E+00
   H -0.481768170E+02  0.381979738E+01  0.614436699E+01
   H  0.464711393E+02 -0.303045033E+01 -0.502259570E+01
     4
 # iter = 80000  time[fs]=80.00000
   C -0.100364486E+02 -0.146727979E+00 -0.181708104E+00
   C  0.963124360E+01 -0.574776847E-01  0.328300319E+00
   H -0.485856453E+02  0.385223560E+01  0.619683144E+01
   H  0.468639084E+02 -0.305634608E+01 -0.506510869E+01
