     4
 # iter = 25000  time[fs]=25.00000
   C -0.988726800E+00  0.787884158E-02 -0.173748581E-02
   C  0.984733934E+00  0.187083000E-01  0.130909063E-01
   H -0.524168080E+01 -0.272222946E+00 -0.707056543E+00
   H  0.527867490E+01 -0.305667174E+00  0.612861672E+00
     4
 # iter = 25500  time[fs]=25.50000
   C -0.103429115E+01  0.987296996E-02  0.149872768E-02
   C  0.102678113E+01  0.213747034E-01  0.117580116E-01
   H -0.557162523E+01 -0.286489298E+00 -0.749693067E+00
   H  0.559449584E+01 -0.321267371E+00  0.651065638E+00
     4
 # iter = 26000  time[fs]=26.00000
   C -0.108236005E+01  0.118647452E-01  0.473786387E-02
   C  0.107133340E+01  0.240685422E-01  0.104268285E-01
   H -0.590423244E+01 -0.300896406E+00 -0.792720428E+00
   H  0.591297333E+01 -0.337027797E+00  0.689604831E+00
     4
 # iter = 26500  time[fs]=26.50000
   C -0.113272585E+01  0.138537772E-01  0.798461413E-02
   C  0.111818224E+01  0.267873304E-01  0.909197379E-02
   H -0.623920658E+01 -0.315427788E+00 -0.836094495E+00
   H  0.623382175E+01 -0.352930425E+00  0.728443419E+00
     4
 # iter = 27000  time[fs]=27.00000
   C -0.118519659E+01  0.158398558E-01  0.112425868E-01
   C  0.116713509E+01  0.295288679E-01  0.774928229E-02
   H -0.657629756E+01 -0.330069681E+00 -0.879778160E+00
   H  0.655679821E+01 -0.368960094E+00  0.767550978E+00
     4
 # iter = 27500  time[fs]=27.50000
   C -0.123959614E+01  0.178228966E-01  0.145144819E-01
   C  0.121801539E+01  0.322911997E-01  0.639560081E-02
   H -0.691529218E+01 -0.344810476E+00 -0.923739938E+00
   H  0.688169457E+01 -0.385103935E+00  0.806901461E+00
     4
 # iter = 28000  time[fs]=28.00000
   C -0.129576379E+01  0.198029007E-01  0.178022537E-01
   C  0.127066214E+01  0.350725834E-01  0.502860197E-02
   H -0.725600733E+01 -0.359640295E+00 -0.967952888E+00
   H  0.720833119E+01 -0.401350938E+00  0.846472405E+00
     4
 # iter = 28500  time[fs]=28.50000
   C -0.135355340E+01  0.217799276E-01  0.211072548E-01
   C  0.132492902E+01  0.378714618E-01  0.364662293E-02
   H -0.759828464E+01 -0.374550659E+00 -0.101239378E+01
   H  0.753655205E+01 -0.417691603E+00  0.886244304E+00
     4
 # iter = 29000  time[fs]=29.00000
   C -0.141283251E+01  0.237540738E-01  0.244303597E-01
   C  0.138068343E+01  0.406864404E-01  0.224852925E-02
   H -0.794198631E+01 -0.389534243E+00 -0.105704246E+01
   H  0.786622083E+01 -0.434117684E+00  0.926200118E+00
     4
 # iter = 29500  time[fs]=29.50000
   C -0.147348119E+01  0.257254596E-01  0.277720673E-01
   C  0.143780537E+01  0.435162674E-01  0.833602107E-03
   H -0.828699169E+01 -0.404584673E+00 -0.110188132E+01
   H  0.819721781E+01 -0.450621974E+00  0.966324875E+00
     4
 # iter = 30000  time[fs]=30.00000
   C -0.153539098E+01  0.276942178E-01  0.311325856E-01
   C  0.149618635E+01  0.463598168E-01 -0.598553685E-03
   H -0.863319463E+01 -0.419696367E+00 -0.114689488E+01
   H  0.852943724E+01 -0.467198139E+00  0.100660535E+01
     4
 # iter = 30500  time[fs]=30.50000
   C -0.159846379E+01  0.296604875E-01  0.345118997E-01
   C  0.155572826E+01  0.492160741E-01 -0.204808392E-02
   H -0.898050122E+01 -0.434864415E+00 -0.119206947E+01
   H  0.886278534E+01 -0.483840583E+00  0.104702981E+01
     4
 # iter = 31000  time[fs]=31.00000
   C -0.166261092E+01  0.316244087E-01  0.379098269E-01
   C  0.161634242E+01  0.520841230E-01 -0.351494440E-02
   H -0.932882805E+01 -0.450084468E+00 -0.123739298E+01
   H  0.919717856E+01 -0.500544338E+00  0.108758778E+01
     4
 # iter = 31500  time[fs]=31.50000
   C -0.172775208E+01  0.335861192E-01  0.413260598E-01
   C  0.167794856E+01  0.549631343E-01 -0.499894803E-02
   H -0.967810067E+01 -0.465352663E+00 -0.128285459E+01
   H  0.953254216E+01 -0.517304971E+00  0.112826991E+01
     4
 # iter = 32000  time[fs]=32.00000
   C -0.179381456E+01  0.355457523E-01  0.447602008E-01
   C  0.174047401E+01  0.578523566E-01 -0.649980212E-02
   H -0.100282524E+02 -0.480665549E+00 -0.132844462E+01
   H  0.986880901E+01 -0.534118516E+00  0.116906777E+01
     4
 # iter = 32500  time[fs]=32.50000
   C -0.186073240E+01  0.375034356E-01  0.482117887E-01
   C  0.180385285E+01  0.607511069E-01 -0.801713758E-02
   H -0.103792233E+02 -0.496020033E+00 -0.137415438E+01
   H  0.102059186E+02 -0.550981403E+00  0.120997377E+01
     4
 # iter = 33000  time[fs]=33.00000
   C -0.192844574E+01  0.394592902E-01  0.516803196E-01
   C  0.186802526E+01  0.636587641E-01 -0.955053173E-02
   H -0.107309592E+02 -0.511413330E+00 -0.141997602E+01
   H  0.105438164E+02 -0.567890414E+00  0.125098103E+01
     4
 # iter = 33500  time[fs]=33.50000
   C -0.199690011E+01  0.414134303E-01  0.551652633E-01
   C  0.193293684E+01  0.665747613E-01 -0.110995261E-01
   H -0.110834113E+02 -0.526842926E+00 -0.146590244E+01
   H  0.108824526E+02 -0.584842633E+00  0.129208333E+01
     4
 # iter = 34000  time[fs]=34.00000
   C -0.206604593E+01  0.433659630E-01  0.586660754E-01
   C  0.199853805E+01  0.694985810E-01 -0.126636400E-01
   H -0.114365349E+02 -0.542306542E+00 -0.151192719E+01
   H  0.112217822E+02 -0.601835413E+00  0.133327497E+01
     4
 # iter = 34500  time[fs]=34.50000
   C -0.213583798E+01  0.453169886E-01  0.621822066E-01
   C  0.206478374E+01  0.724297492E-01 -0.142423813E-01
   H -0.117902896E+02 -0.557802106E+00 -0.155804441E+01
   H  0.115617641E+02 -0.618866341E+00  0.137455077E+01
     4
 # iter = 35000  time[fs]=35.00000
   C -0.220623495E+01  0.472666007E-01  0.657131103E-01
   C  0.213163263E+01  0.753678314E-01 -0.158352541E-01
   H -0.121446384E+02 -0.573327730E+00 -0.160424872E+01
   H  0.119023605E+02 -0.635933216E+00  0.141590598E+01
     4
 # iter = 35500  time[fs]=35.50000
   C -0.227719903E+01  0.492148865E-01  0.692582474E-01
   C  0.219904699E+01  0.783124284E-01 -0.174417652E-01
   H -0.124995474E+02 -0.588881688E+00 -0.165053522E+01
   H  0.122435370E+02 -0.653034018E+00  0.145733624E+01
     4
 # iter = 36000  time[fs]=36.00000
   C -0.234869558E+01  0.511619270E-01  0.728170901E-01
   C  0.226699220E+01  0.812631727E-01 -0.190614281E-01
   H -0.128549857E+02 -0.604462397E+00 -0.169689941E+01
   H  0.125852619E+02 -0.670166894E+00  0.149883754E+01
     4
 # iter = 36500  time[fs]=36.50000
   C -0.242069278E+01  0.531077978E-01  0.763891251E-01
   C  0.233543653E+01  0.842197257E-01 -0.206937667E-01
   H -0.132109245E+02 -0.620068404E+00 -0.174333714E+01
   H  0.129275060E+02 -0.687330139E+00  0.154040618E+01
     4
 # iter = 37000  time[fs]=37.00000
   C -0.249316140E+01  0.550525690E-01  0.799738550E-01
   C  0.240435078E+01  0.871817745E-01 -0.223383175E-01
   H -0.135673375E+02 -0.635698371E+00 -0.178984458E+01
   H  0.132702422E+02 -0.704522180E+00  0.158203874E+01
     4
 # iter = 37500  time[fs]=37.50000
   C -0.256607450E+01  0.569963057E-01  0.835707997E-01
   C  0.247370806E+01  0.901490299E-01 -0.239946312E-01
   H -0.139242005E+02 -0.651351061E+00 -0.183641819E+01
   H  0.136134457E+02 -0.721741562E+00  0.162373205E+01
     4
 # iter = 38000  time[fs]=38.00000
   C -0.263940724E+01  0.589390684E-01  0.871794972E-01
   C  0.254348358E+01  0.931212239E-01 -0.256622736E-01
   H -0.142814908E+02 -0.667025332E+00 -0.188305472E+01
   H  0.139570934E+02 -0.738986938E+00  0.166548319E+01
     4
 # iter = 38500  time[fs]=38.50000
   C -0.271313666E+01  0.608809136E-01  0.907995037E-01
   C  0.261365443E+01  0.960981077E-01 -0.273408266E-01
   H -0.146391875E+02 -0.682720126E+00 -0.192975112E+01
   H  0.143011638E+02 -0.756257059E+00  0.170728941E+01
     4
 # iter = 39000  time[fs]=39.00000
   C -0.278724154E+01  0.628218935E-01  0.944303937E-01
   C  0.268419942E+01  0.990794502E-01 -0.290298882E-01
   H -0.149972713E+02 -0.698434460E+00 -0.197650457E+01
   H  0.146456369E+02 -0.773550762E+00  0.174914819E+01
     4
 # iter = 39500  time[fs]=39.50000
   C -0.286170219E+01  0.647620569E-01  0.980717599E-01
   C  0.275509892E+01  0.102065036E+00 -0.307290725E-01
   H -0.153557240E+02 -0.714167419E+00 -0.202331245E+01
   H  0.149904942E+02 -0.790866964E+00  0.179105715E+01
     4
 # iter = 40000  time[fs]=40.00000
   C -0.293650036E+01  0.667014490E-01  0.101723213E+00
   C  0.282633472E+01  0.105054666E+00 -0.324380096E-01
   H -0.157145289E+02 -0.729918153E+00 -0.207017230E+01
   H  0.153357183E+02 -0.808204657E+00  0.183301408E+01
     4
 # iter = 40500  time[fs]=40.50000
   C -0.301161908E+01  0.686401121E-01  0.105384380E+00
   C  0.289788987E+01  0.108048152E+00 -0.341563455E-01
   H -0.160736702E+02 -0.745685865E+00 -0.211708183E+01
   H  0.156812930E+02 -0.825562897E+00  0.187501691E+01
     4
 # iter = 41000  time[fs]=41.00000
   C -0.308704256E+01  0.705780855E-01  0.109054905E+00
   C  0.296974865E+01  0.111045319E+00 -0.358837414E-01
   H -0.164331332E+02 -0.761469814E+00 -0.216403891E+01
   H  0.160272033E+02 -0.842940802E+00  0.191706370E+01
     4
 # iter = 41500  time[fs]=41.50000
   C -0.316275610E+01  0.725154060E-01  0.112734450E+00
   C  0.304189637E+01  0.114046004E+00 -0.376198732E-01
   H -0.167929041E+02 -0.777269305E+00 -0.221104153E+01
   H  0.163734348E+02 -0.860337544E+00  0.195915264E+01
     4
 # iter = 42000  time[fs]=42.00000
   C -0.323874597E+01  0.744521077E-01  0.116422689E+00
   C  0.311431934E+01  0.117050053E+00 -0.393644314E-01
   H -0.171529701E+02 -0.793083685E+00 -0.225808781E+01
   H  0.167199742E+02 -0.877752348E+00  0.200128201E+01
     4
 # iter = 42500  time[fs]=42.50000
   C -0.331499935E+01  0.763882228E-01  0.120119315E+00
   C  0.318700478E+01  0.120057324E+00 -0.411171201E-01
   H -0.175133189E+02 -0.808912344E+00 -0.230517598E+01
   H  0.170668091E+02 -0.895184485E+00  0.204345020E+01
     4
 # iter = 43000  time[fs]=43.00000
   C -0.339150425E+01  0.783237810E-01  0.123824031E+00
   C  0.325994073E+01  0.123067681E+00 -0.428776567E-01
   H -0.178739392E+02 -0.824754707E+00 -0.235230437E+01
   H  0.174139276E+02 -0.912633268E+00  0.208565571E+01
     4
 # iter = 43500  time[fs]=43.50000
   C -0.346824944E+01  0.802588104E-01  0.127536556E+00
   C  0.333311599E+01  0.126080997E+00 -0.446457710E-01
   H -0.182348204E+02 -0.840610233E+00 -0.239947143E+01
   H  0.177613186E+02 -0.930098052E+00  0.212789711E+01
     4
 # iter = 44000  time[fs]=44.00000
   C -0.354522439E+01  0.821933372E-01  0.131256621E+00
   C  0.340652006E+01  0.129097152E+00 -0.464212052E-01
   H -0.185959522E+02 -0.856478413E+00 -0.244667567E+01
   H  0.181089717E+02 -0.947578228E+00  0.217017305E+01
     4
 # iter = 44500  time[fs]=44.50000
   C -0.362241922E+01  0.841273859E-01  0.134983971E+00
   C  0.348014309E+01  0.132116035E+00 -0.482037127E-01
   H -0.189573251E+02 -0.872358766E+00 -0.249391571E+01
   H  0.184568770E+02 -0.965073220E+00  0.221248225E+01
     4
 # iter = 45000  time[fs]=45.00000
   C -0.369982465E+01  0.860609795E-01  0.138718358E+00
   C  0.355397582E+01  0.135137539E+00 -0.499930580E-01
   H -0.193189302E+02 -0.888250838E+00 -0.254119023E+01
   H  0.188050252E+02 -0.982582485E+00  0.225482353E+01
     4
 # iter = 45500  time[fs]=45.50000
   C -0.377743194E+01  0.879941396E-01  0.142459551E+00
   C  0.362800955E+01  0.138161564E+00 -0.517890160E-01
   H -0.196807589E+02 -0.904154201E+00 -0.258849798E+01
   H  0.191534074E+02 -0.100010551E+01  0.229719573E+01
     4
 # iter = 46000  time[fs]=46.00000
   C -0.385523287E+01  0.899268865E-01  0.146207325E+00
   C  0.370223607E+01  0.141188015E+00 -0.535913716E-01
   H -0.200428032E+02 -0.920068449E+00 -0.263583778E+01
   H  0.195020153E+02 -0.101764180E+01  0.233959777E+01
     4
 # iter = 46500  time[fs]=46.50000
   C -0.393321969E+01  0.918592393E-01  0.149961467E+00
   C  0.377664767E+01  0.144216803E+00 -0.553999189E-01
   H -0.204050555E+02 -0.935993197E+00 -0.268320851E+01
   H  0.198508410E+02 -0.103519091E+01  0.238202864E+01
     4
 # iter = 47000  time[fs]=47.00000
   C -0.401138509E+01  0.937912160E-01  0.153721773E+00
   C  0.385123705E+01  0.147247842E+00 -0.572144612E-01
   H -0.207675084E+02 -0.951928081E+00 -0.273060912E+01
   H  0.201998769E+02 -0.105275239E+01  0.242448736E+01
     4
 # iter = 47500  time[fs]=47.50000
   C -0.408972216E+01  0.957228334E-01  0.157488047E+00
   C  0.392599732E+01  0.150281054E+00 -0.590348101E-01
   H -0.211301552E+02 -0.967872756E+00 -0.277803860E+01
   H  0.205491159E+02 -0.107032582E+01  0.246697300E+01
     4
 # iter = 48000  time[fs]=48.00000
   C -0.416822437E+01  0.976541074E-01  0.161260103E+00
   C  0.400092199E+01  0.153316360E+00 -0.608607855E-01
   H -0.214929893E+02 -0.983826892E+00 -0.282549599E+01
   H  0.208985513E+02 -0.108791082E+01  0.250948470E+01
     4
 # iter = 48500  time[fs]=48.50000
   C -0.424688555E+01  0.995850530E-01  0.165037762E+00
   C  0.407600489E+01  0.156353689E+00 -0.626922147E-01
   H -0.218560045E+02 -0.999790178E+00 -0.287298038E+01
   H  0.212481765E+02 -0.110550700E+01  0.255202160E+01
     4
 # iter = 49000  time[fs]=49.00000
   C -0.432569985E+01  0.101515684E+00  0.168820853E+00
   C  0.415124020E+01  0.159392973E+00 -0.645289325E-01
   H -0.222191949E+02 -0.101576232E+01 -0.292049091E+01
   H  0.215979855E+02 -0.112311401E+01  0.259458291E+01
     4
 # iter = 49500  time[fs]=49.50000
   C -0.440466172E+01  0.103446015E+00  0.172609213E+00
   C  0.422662240E+01  0.162434145E+00 -0.663707805E-01
   H -0.225825550E+02 -0.103174302E+01 -0.296802675E+01
   H  0.219479724E+02 -0.114073150E+01  0.263716788E+01
     4
 # iter = 50000  time[fs]=50.00000
   C -0.448376591E+01  0.105376057E+00  0.176402683E+00
   C  0.430214624E+01  0.165477144E+00 -0.682176069E-01
   H -0.229460793E+02 -0.104773203E+01 -0.301558711E+01
   H  0.222981316E+02 -0.115835915E+01  0.267977577E+01
     4
 # iter = 50500  time[fs]=50.50000
   C -0.456300743E+01  0.107305823E+00  0.180201115E+00
   C  0.437780676E+01  0.168521910E+00 -0.700692661E-01
   H -0.233097627E+02 -0.106372908E+01 -0.306317124E+01
   H  0.226484578E+02 -0.117599666E+01  0.272240590E+01
     4
 # iter = 51000  time[fs]=51.00000
   C -0.464238154E+01  0.109235325E+00  0.184004364E+00
   C  0.445359922E+01  0.171568388E+00 -0.719256185E-01
   H -0.236736004E+02 -0.107973393E+01 -0.311077843E+01
   H  0.229989459E+02 -0.119364372E+01  0.276505761E+01
     4
 # iter = 51500  time[fs]=51.50000
   C -0.472188373E+01  0.111164571E+00  0.187812291E+00
   C  0.452951914E+01  0.174616522E+00 -0.737865302E-01
   H -0.240375877E+02 -0.109574635E+01 -0.315840799E+01
   H  0.233495911E+02 -0.121130005E+01  0.280773025E+01
     4
 # iter = 52000  time[fs]=52.00000
   C -0.480150970E+01  0.113093574E+00  0.191624763E+00
   C  0.460556225E+01  0.177666262E+00 -0.756518724E-01
   H -0.244017201E+02 -0.111176610E+01 -0.320605927E+01
   H  0.237003888E+02 -0.122896537E+01  0.285042324E+01
     4
 # iter = 52500  time[fs]=52.50000
   C -0.488125539E+01  0.115022342E+00  0.195441653E+00
   C  0.468172447E+01  0.180717559E+00 -0.775215217E-01
   H -0.247659935E+02 -0.112779298E+01 -0.325373163E+01
   H  0.240513345E+02 -0.124663944E+01  0.289313598E+01
     4
 # iter = 53000  time[fs]=53.00000
   C -0.496111688E+01  0.116950885E+00  0.199262839E+00
   C  0.475800193E+01  0.183770365E+00 -0.793953593E-01
   H -0.251304037E+02 -0.114382677E+01 -0.330142448E+01
   H  0.244024239E+02 -0.126432200E+01  0.293586792E+01
     4
 # iter = 53500  time[fs]=53.50000
   C -0.504109049E+01  0.118879211E+00  0.203088203E+00
   C  0.483439093E+01  0.186824637E+00 -0.812732712E-01
   H -0.254949469E+02 -0.115986730E+01 -0.334913725E+01
   H  0.247536530E+02 -0.128201282E+01  0.297861853E+01
     4
 # iter = 54000  time[fs]=54.00000
   C -0.512117266E+01  0.120807328E+00  0.206917632E+00
   C  0.491088795E+01  0.189880330E+00 -0.831551476E-01
   H -0.258596193E+02 -0.117591435E+01 -0.339686938E+01
   H  0.251050179E+02 -0.129971166E+01  0.302138730E+01
     4
 # iter = 54500  time[fs]=54.50000
   C -0.520136001E+01  0.122735245E+00  0.210751017E+00
   C  0.498748962E+01  0.192937405E+00 -0.850408830E-01
   H -0.262244173E+02 -0.119196777E+01 -0.344462035E+01
   H  0.254565148E+02 -0.131741831E+01  0.306417375E+01
     4
 # iter = 55000  time[fs]=55.00000
   C -0.528164932E+01  0.124662969E+00  0.214588253E+00
   C  0.506419273E+01  0.195995821E+00 -0.869303760E-01
   H -0.265893375E+02 -0.120802737E+01 -0.349238965E+01
   H  0.258081403E+02 -0.133513255E+01  0.310697739E+01
     4
 # iter = 55500  time[fs]=55.50000
   C -0.536203750E+01  0.126590506E+00  0.218429240E+00
   C  0.514099420E+01  0.199055542E+00 -0.888235286E-01
   H -0.269543767E+02 -0.122409298E+01 -0.354017678E+01
   H  0.261598907E+02 -0.135285420E+01  0.314979778E+01
     4
 # iter = 56000  time[fs]=56.00000
   C -0.544252160E+01  0.128517864E+00  0.222273881E+00
   C  0.521789108E+01  0.202116530E+00 -0.907202468E-01
   H -0.273195315E+02 -0.124016446E+01 -0.358798129E+01
   H  0.265117629E+02 -0.137058305E+01  0.319263449E+01
     4
 # iter = 56500  time[fs]=56.50000
   C -0.552309879E+01  0.130445048E+00  0.226122082E+00
   C  0.529488058E+01  0.205178752E+00 -0.926204399E-01
   H -0.276847991E+02 -0.125624164E+01 -0.363580273E+01
   H  0.268637536E+02 -0.138831891E+01  0.323548709E+01
     4
 # iter = 57000  time[fs]=57.00000
   C -0.560376637E+01  0.132372066E+00  0.229973754E+00
   C  0.537195998E+01  0.208242173E+00 -0.945240206E-01
   H -0.280501765E+02 -0.127232437E+01 -0.368364065E+01
   H  0.272158597E+02 -0.140606161E+01  0.327835519E+01
     4
 # iter = 57500  time[fs]=57.50000
   C -0.568452175E+01  0.134298923E+00  0.233828809E+00
   C  0.544912672E+01  0.211306762E+00 -0.964309044E-01
   H -0.284156608E+02 -0.128841252E+01 -0.373149465E+01
   H  0.275680785E+02 -0.142381098E+01  0.332123840E+01
     4
 # iter = 58000  time[fs]=58.00000
   C -0.576536243E+01  0.136225624E+00  0.237687165E+00
   C  0.552637831E+01  0.214372489E+00 -0.983410102E-01
   H -0.287812494E+02 -0.130450595E+01 -0.377936433E+01
   H  0.279204069E+02 -0.144156684E+01  0.336413635E+01
     4
 # iter = 58500  time[fs]=58.50000
   C -0.584628604E+01  0.138152175E+00  0.241548740E+00
   C  0.560371238E+01  0.217439323E+00 -0.100254260E+00
   H -0.291469396E+02 -0.132060453E+01 -0.382724929E+01
   H  0.282728423E+02 -0.145932905E+01  0.340704868E+01
     4
 # iter = 59000  time[fs]=59.00000
   C -0.592729028E+01  0.140078581E+00  0.245413456E+00
   C  0.568112665E+01  0.220507236E+00 -0.102170577E+00
   H -0.295127290E+02 -0.133670813E+01 -0.387514917E+01
   H  0.286253821E+02 -0.147709744E+01  0.344997503E+01
     4
 # iter = 59500  time[fs]=59.50000
   C -0.600837297E+01  0.142004846E+00  0.249281239E+00
   C  0.575861894E+01  0.223576201E+00 -0.104089889E+00
   H -0.298786152E+02 -0.135281664E+01 -0.392306361E+01
   H  0.289780237E+02 -0.149487187E+01  0.349291509E+01
     4
 # iter = 60000  time[fs]=60.00000
   C -0.608953198E+01  0.143930976E+00  0.253152016E+00
   C  0.583618714E+01  0.226646192E+00 -0.106012125E+00
   H -0.302445957E+02 -0.136892992E+01 -0.397099226E+01
   H  0.293307647E+02 -0.151265220E+01  0.353586852E+01
     4
 # iter = 60500  time[fs]=60.50000
   C -0.617076530E+01  0.145856974E+00  0.257025717E+00
   C  0.591382924E+01  0.229717182E+00 -0.107937218E+00
   H -0.306106684E+02 -0.138504787E+01 -0.401893480E+01
   H  0.296836027E+02 -0.153043828E+01  0.357883502E+01
     4
 # iter = 61000  time[fs]=61.00000
   C -0.625207096E+01  0.147782846E+00  0.260902274E+00
   C  0.599154329E+01  0.232789148E+00 -0.109865100E+00
   H -0.309768310E+02 -0.140117039E+01 -0.406689089E+01
   H  0.300365355E+02 -0.154822999E+01  0.362181429E+01
     4
 # iter = 61500  time[fs]=61.50000
   C -0.633344710E+01  0.149708594E+00  0.264781621E+00
   C  0.606932743E+01  0.235862067E+00 -0.111795709E+00
   H -0.313430816E+02 -0.141729736E+01 -0.411486022E+01
   H  0.303895609E+02 -0.156602718E+01  0.366480603E+01
     4
 # iter = 62000  time[fs]=62.00000
   C -0.641489191E+01  0.151634224E+00  0.268663696E+00
   C  0.614717985E+01  0.238935914E+00 -0.113728983E+00
   H -0.317094181E+02 -0.143342868E+01 -0.416284251E+01
   H  0.307426767E+02 -0.158382975E+01  0.370780997E+01
     4
 # iter = 62500  time[fs]=62.50000
   C -0.649640365E+01  0.153559738E+00  0.272548438E+00
   C  0.622509883E+01  0.242010669E+00 -0.115664862E+00
   H -0.320758384E+02 -0.144956426E+01 -0.421083745E+01
   H  0.310958809E+02 -0.160163757E+01  0.375082583E+01
     4
 # iter = 63000  time[fs]=63.00000
   C -0.657798064E+01  0.155485141E+00  0.276435786E+00
   C  0.630308269E+01  0.245086310E+00 -0.117603289E+00
   H -0.324423408E+02 -0.146570399E+01 -0.425884476E+01
   H  0.314491716E+02 -0.161945052E+01  0.379385336E+01
     4
 # iter = 63500  time[fs]=63.50000
   C -0.665962127E+01  0.157410435E+00  0.280325683E+00
   C  0.638112983E+01  0.248162816E+00 -0.119544207E+00
   H -0.328089234E+02 -0.148184779E+01 -0.430686418E+01
   H  0.318025468E+02 -0.163726850E+01  0.383689230E+01
     4
 # iter = 64000  time[fs]=64.00000
   C -0.674132398E+01  0.159335624E+00  0.284218075E+00
   C  0.645923871E+01  0.251240169E+00 -0.121487563E+00
   H -0.331755845E+02 -0.149799558E+01 -0.435489545E+01
   H  0.321560046E+02 -0.165509138E+01  0.387994240E+01
     4
 # iter = 64500  time[fs]=64.50000
   C -0.682308728E+01  0.161260711E+00  0.288112907E+00
   C  0.653740782E+01  0.254318348E+00 -0.123433305E+00
   H -0.335423223E+02 -0.151414725E+01 -0.440293830E+01
   H  0.325095433E+02 -0.167291908E+01  0.392300343E+01
     4
 # iter = 65000  time[fs]=65.00000
   C -0.690490970E+01  0.163185700E+00  0.292010127E+00
   C  0.661563572E+01  0.257397336E+00 -0.125381381E+00
   H -0.339091352E+02 -0.153030273E+01 -0.445099249E+01
   H  0.328631612E+02 -0.169075147E+01  0.396607516E+01
     4
 # iter = 65500  time[fs]=65.50000
   C -0.698678986E+01  0.165110592E+00  0.295909685E+00
   C  0.669392103E+01  0.260477114E+00 -0.127331742E+00
   H -0.342760215E+02 -0.154646194E+01 -0.449905778E+01
   H  0.332168565E+02 -0.170858848E+01  0.400915737E+01
     4
 # iter = 66000  time[fs]=66.00000
   C -0.706872640E+01  0.167035392E+00  0.299811531E+00
   C  0.677226239E+01  0.263557665E+00 -0.129284341E+00
   H -0.346429798E+02 -0.156262480E+01 -0.454713395E+01
   H  0.335706276E+02 -0.172642999E+01  0.405224984E+01
     4
 # iter = 66500  time[fs]=66.50000
   C -0.715071802E+01  0.168960101E+00  0.303715619E+00
   C  0.685065852E+01  0.266638973E+00 -0.131239132E+00
   H -0.350100086E+02 -0.157879123E+01 -0.459522077E+01
   H  0.339244731E+02 -0.174427593E+01  0.409535235E+01
     4
 # iter = 67000  time[fs]=67.00000
   C -0.723276346E+01  0.170884722E+00  0.307621903E+00
   C  0.692910815E+01  0.269721021E+00 -0.133196069E+00
   H -0.353771063E+02 -0.159496117E+01 -0.464331802E+01
   H  0.342783912E+02 -0.176212619E+01  0.413846472E+01
     4
 # iter = 67500  time[fs]=67.50000
   C -0.731486149E+01  0.172809258E+00  0.311530337E+00
   C  0.700761007E+01  0.272803793E+00 -0.135155109E+00
   H -0.357442716E+02 -0.161113453E+01 -0.469142549E+01
   H  0.346323806E+02 -0.177998069E+01  0.418158673E+01
     4
 # iter = 68000  time[fs]=68.00000
   C -0.739701095E+01  0.174733711E+00  0.315440878E+00
   C  0.708616311E+01  0.275887275E+00 -0.137116210E+00
   H -0.361115031E+02 -0.162731126E+01 -0.473954298E+01
   H  0.349864398E+02 -0.179783935E+01  0.422471821E+01
     4
 # iter = 68500  time[fs]=68.50000
   C -0.747921068E+01  0.176658083E+00  0.319353485E+00
   C  0.716476613E+01  0.278971451E+00 -0.139079331E+00
   H -0.364787995E+02 -0.164349128E+01 -0.478767029E+01
   H  0.353405675E+02 -0.181570208E+01  0.426785896E+01
     4
 # iter = 69000  time[fs]=69.00000
   C -0.756145960E+01  0.178582377E+00  0.323268116E+00
   C  0.724341804E+01  0.282056308E+00 -0.141044433E+00
   H -0.368461594E+02 -0.165967453E+01 -0.483580723E+01
   H  0.356947622E+02 -0.183356881E+01  0.431100880E+01
     4
 # iter = 69500  time[fs]=69.50000
   C -0.764375662E+01  0.180506595E+00  0.327184732E+00
   C  0.732211778E+01  0.285141831E+00 -0.143011475E+00
   H -0.372135817E+02 -0.167586094E+01 -0.488395360E+01
   H  0.360490227E+02 -0.185143946E+01  0.435416757E+01
     4
 # iter = 70000  time[fs]=70.00000
   C -0.772610071E+01  0.182430738E+00  0.331103294E+00
   C  0.740086430E+01  0.288228007E+00 -0.144980422E+00
   H -0.375810652E+02 -0.169205046E+01 -0.493210924E+01
   H  0.364033476E+02 -0.186931394E+01  0.439733508E+01
     4
 # iter = 70500  time[fs]=70.50000
   C -0.780849087E+01  0.184354810E+00  0.335023766E+00
   C  0.747965663E+01  0.291314824E+00 -0.146951235E+00
   H -0.379486085E+02 -0.170824302E+01 -0.498027396E+01
   H  0.367577358E+02 -0.188719220E+01  0.444051118E+01
     4
 # iter = 71000  time[fs]=71.00000
   C -0.789092614E+01  0.186278811E+00  0.338946109E+00
   C  0.755849378E+01  0.294402267E+00 -0.148923881E+00
   H -0.383162107E+02 -0.172443857E+01 -0.502844759E+01
   H  0.371121861E+02 -0.190507415E+01  0.448369570E+01
     4
 # iter = 71500  time[fs]=71.50000
   C -0.797340556E+01  0.188202743E+00  0.342870290E+00
   C  0.763737483E+01  0.297490326E+00 -0.150898323E+00
   H -0.386838706E+02 -0.174063705E+01 -0.507662997E+01
   H  0.374666972E+02 -0.192295974E+01  0.452688849E+01
     4
 # iter = 72000  time[fs]=72.00000
   C -0.805592823E+01  0.190126609E+00  0.346796274E+00
   C  0.771629886E+01  0.300578988E+00 -0.152874530E+00
   H -0.390515871E+02 -0.175683840E+01 -0.512482093E+01
   H  0.378212681E+02 -0.194084888E+01  0.457008940E+01
     4
 # iter = 72500  time[fs]=72.50000
   C -0.813849327E+01  0.192050410E+00  0.350724026E+00
   C  0.779526500E+01  0.303668241E+00 -0.154852468E+00
   H -0.394193591E+02 -0.177304258E+01 -0.517302032E+01
   H  0.381758975E+02 -0.195874153E+01  0.461329827E+01
     4
 # iter = 73000  time[fs]=73.00000
   C -0.822109980E+01  0.193974148E+00  0.354653516E+00
   C  0.787427240E+01  0.306758075E+00 -0.156832104E+00
   H -0.397871857E+02 -0.178924953E+01 -0.522122799E+01
   H  0.385305846E+02 -0.197663760E+01  0.465651497E+01
     4
 # iter = 73500  time[fs]=73.50000
   C -0.830374701E+01  0.195897825E+00  0.358584710E+00
   C  0.795332021E+01  0.309848478E+00 -0.158813410E+00
   H -0.401550658E+02 -0.180545920E+01 -0.526944377E+01
   H  0.388853282E+02 -0.199453705E+01  0.469973936E+01
     4
 # iter = 74000  time[fs]=74.00000
   C -0.838643408E+01  0.197821441E+00  0.362517579E+00
   C  0.803240764E+01  0.312939440E+00 -0.160796353E+00
   H -0.405229985E+02 -0.182167155E+01 -0.531766754E+01
   H  0.392401272E+02 -0.201243981E+01  0.474297130E+01
     4
 # iter = 74500  time[fs]=74.50000
   C -0.846916022E+01  0.199744998E+00  0.366452091E+00
   C  0.811153391E+01  0.316030951E+00 -0.162780906E+00
   H -0.408909829E+02 -0.183788651E+01 -0.536589915E+01
   H  0.395949808E+02 -0.203034583E+01  0.478621065E+01
     4
 # iter = 75000  time[fs]=75.00000
   C -0.855192468E+01  0.201668499E+00  0.370388219E+00
   C  0.819069826E+01  0.319122999E+00 -0.164767039E+00
   H -0.412590179E+02 -0.185410406E+01 -0.541413846E+01
   H  0.399498879E+02 -0.204825504E+01  0.482945729E+01
     4
 # iter = 75500  time[fs]=75.50000
   C -0.863472671E+01  0.203591944E+00  0.374325933E+00
   C  0.826989994E+01  0.322215576E+00 -0.166754725E+00
   H -0.416271028E+02 -0.187032414E+01 -0.546238534E+01
   H  0.403048476E+02 -0.206616739E+01  0.487271110E+01
     4
 # iter = 76000  time[fs]=76.00000
   C -0.871756559E+01  0.205515334E+00  0.378265206E+00
   C  0.834913826E+01  0.325308673E+00 -0.168743936E+00
   H -0.419952366E+02 -0.188654671E+01 -0.551063965E+01
   H  0.406598590E+02 -0.208408283E+01  0.491597194E+01
     4
 # iter = 76500  time[fs]=76.50000
   C -0.880044062E+01  0.207438672E+00  0.382206010E+00
   C  0.842841250E+01  0.328402278E+00 -0.170734647E+00
   H -0.423634186E+02 -0.190277173E+01 -0.555890128E+01
   H  0.410149212E+02 -0.210200130E+01  0.495923971E+01
     4
 # iter = 77000  time[fs]=77.00000
   C -0.888335113E+01  0.209361957E+00  0.386148320E+00
   C  0.850772199E+01  0.331496385E+00 -0.172726831E+00
   H -0.427316478E+02 -0.191899915E+01 -0.560717009E+01
   H  0.413700333E+02 -0.211992275E+01  0.500251428E+01
     4
 # iter = 77500  time[fs]=77.50000
   C -0.896629644E+01  0.211285193E+00  0.390092110E+00
   C  0.858706607E+01  0.334590983E+00 -0.174720463E+00
   H -0.430999235E+02 -0.193522893E+01 -0.565544597E+01
   H  0.417251945E+02 -0.213784714E+01  0.504579554E+01
     4
 # iter = 78000  time[fs]=78.00000
   C -0.904927593E+01  0.213208379E+00  0.394037354E+00
   C  0.866644411E+01  0.337686065E+00 -0.176715519E+00
   H -0.434682449E+02 -0.195146104E+01 -0.570372879E+01
   H  0.420804040E+02 -0.215577441E+01  0.508908338E+01
     4
 # iter = 78500  time[fs]=78.50000
   C -0.913228895E+01  0.215131516E+00  0.397984028E+00
   C  0.874585548E+01  0.340781622E+00 -0.178711976E+00
   H -0.438366112E+02 -0.196769543E+01 -0.575201845E+01
   H  0.424356609E+02 -0.217370452E+01  0.513237770E+01
     4
 # iter = 79000  time[fs]=79.00000
   C -0.921533490E+01  0.217054607E+00  0.401932109E+00
   C  0.882529957E+01  0.343877646E+00 -0.180709809E+00
   H -0.442050217E+02 -0.198393208E+01 -0.580031484E+01
   H  0.427909645E+02 -0.219163741E+01  0.517567838E+01
     4
 # iter = 79500  time[fs]=79.50000
   C -0.929841319E+01  0.218977652E+00  0.405881573E+00
   C  0.890477579E+01  0.346974129E+00 -0.182708997E+00
   H -0.445734757E+02 -0.200017093E+01 -0.584861783E+01
   H  0.431463140E+02 -0.220957306E+01  0.521898532E+01
     4
 # iter = 80000  time[fs]=80.00000
   C -0.938152324E+01  0.220900652E+00  0.409832397E+00
   C  0.898428358E+01  0.350071062E+00 -0.184709516E+00
   H -0.449419724E+02 -0.201641196E+01 -0.589692733E+01
   H  0.435017086E+02 -0.222751140E+01  0.526229843E+01
