     4
 # iter = 25000  time[fs]=25.00000
   C -0.972961015E+00 -0.143502891E-01 -0.274797788E-01
   C  0.100085096E+01 -0.245600504E-01  0.247803195E-01
   H -0.522720627E+01  0.604002230E+00  0.521388627E+00
   H  0.532081274E+01 -0.506021184E+00 -0.573948593E+00
     4
 # iter = 25500  time[fs]=25.50000
   C -0.101788761E+01 -0.159397879E-01 -0.305966606E-01
   C  0.104449781E+01 -0.223671934E-01  0.269054381E-01
   H -0.555667596E+01  0.644476303E+00  0.552652658E+00
   H  0.563628967E+01 -0.534102665E+00 -0.612490690E+00
     4
 # iter = 26000  time[fs]=26.00000
   C -0.106580292E+01 -0.175534191E-01 -0.338286212E-01
   C  0.109116736E+01 -0.201685307E-01  0.291439543E-01
   H -0.589172391E+01  0.685683597E+00  0.584552751E+00
   H  0.595693717E+01 -0.562697446E+00 -0.651648672E+00
     4
 # iter = 26500  time[fs]=26.50000
   C -0.111645746E+01 -0.191935275E-01 -0.371684130E-01
   C  0.114060386E+01 -0.179594848E-01  0.314894431E-01
   H -0.623172141E+01  0.727541814E+00  0.617015386E+00
   H  0.628220153E+01 -0.591750022E+00 -0.691358894E+00
     4
 # iter = 27000  time[fs]=27.00000
   C -0.116961840E+01 -0.208617292E-01 -0.406091024E-01
   C  0.119256955E+01 -0.157365779E-01  0.339355681E-01
   H -0.657613485E+01  0.769981277E+00  0.649978719E+00
   H  0.661160838E+01 -0.621213056E+00 -0.731566677E+00
     4
 # iter = 27500  time[fs]=27.50000
   C -0.122507083E+01 -0.225590091E-01 -0.441440911E-01
   C  0.124684557E+01 -0.134972591E-01  0.364761640E-01
   H -0.692450831E+01  0.812942554E+00  0.683390296E+00
   H  0.694474899E+01 -0.651045910E+00 -0.772224764E+00
     4
 # iter = 28000  time[fs]=28.00000
   C -0.128261796E+01 -0.242858298E-01 -0.477671363E-01
   C  0.130323201E+01 -0.112397379E-01  0.391053008E-01
   H -0.727644982E+01  0.856374607E+00  0.717205287E+00
   H  0.728126921E+01 -0.681213478E+00 -0.813292077E+00
     4
 # iter = 28500  time[fs]=28.50000
   C -0.134208067E+01 -0.260422360E-01 -0.514723651E-01
   C  0.136154717E+01 -0.896283481E-02  0.418173298E-01
   H -0.763162038E+01  0.900233316E+00  0.751385108E+00
   H  0.762086065E+01 -0.711685258E+00 -0.854732722E+00
     4
 # iter = 29000  time[fs]=29.00000
   C -0.140329655E+01 -0.278279489E-01 -0.552542805E-01
   C  0.142162659E+01 -0.666585267E-02  0.446069121E-01
   H -0.798972517E+01  0.944480321E+00  0.785896336E+00
   H  0.796325337E+01 -0.742434604E+00 -0.896515175E+00
     4
 # iter = 29500  time[fs]=29.50000
   C -0.146611875E+01 -0.296424459E-01 -0.591077584E-01
   C  0.148332171E+01 -0.434846862E-02  0.474690331E-01
   H -0.835050645E+01  0.989082081E+00  0.820709843E+00
   H  0.830821002E+01 -0.773438118E+00 -0.938611623E+00
     4
 # iter = 30000  time[fs]=30.00000
   C -0.153041475E+01 -0.314850273E-01 -0.630280386E-01
   C  0.154649860E+01 -0.201064578E-02  0.503990055E-01
   H -0.871373778E+01  0.103400911E+01  0.855800103E+00
   H  0.865552099E+01 -0.804675158E+00 -0.980997414E+00
     4
 # iter = 30500  time[fs]=30.50000
   C -0.159606498E+01 -0.333548698E-01 -0.670107106E-01
   C  0.161103654E+01  0.347437879E-03  0.533924646E-01
   H -0.907921931E+01  0.107923539E+01  0.891144632E+00
   H  0.900500036E+01 -0.836127431E+00 -0.102365061E+01
     4
 # iter = 31000  time[fs]=31.00000
   C -0.166296166E+01 -0.352510692E-01 -0.710516960E-01
   C  0.167682677E+01  0.272544619E-02  0.564453568E-01
   H -0.944677386E+01  0.112473780E+01  0.926723529E+00
   H  0.935648260E+01 -0.867778658E+00 -0.106655161E+01
     4
 # iter = 31500  time[fs]=31.50000
   C -0.173100754E+01 -0.371726725E-01 -0.751472282E-01
   C  0.174377124E+01  0.512292928E-02  0.595539255E-01
   H -0.981624376E+01  0.117049576E+01  0.962519101E+00
   H  0.970981976E+01 -0.899614293E+00 -0.110968284E+01
     4
 # iter = 32000  time[fs]=32.00000
   C -0.180011485E+01 -0.391187041E-01 -0.792938319E-01
   C  0.181178149E+01  0.753935829E-02  0.627146937E-01
   H -0.101874881E+02  0.121649089E+01  0.998515554E+00
   H  0.100648792E+02 -0.931621293E+00 -0.115302849E+01
     4
 # iter = 32500  time[fs]=32.50000
   C -0.187020428E+01 -0.410881838E-01 -0.834883019E-01
   C  0.188077763E+01  0.997415220E-02  0.659244462E-01
   H -0.105603805E+02  0.126270663E+01  0.103469873E+01
   H  0.104215414E+02 -0.963787921E+00 -0.119657428E+01
     4
 # iter = 33000  time[fs]=33.00000
   C -0.194120407E+01 -0.430801414E-01 -0.877276823E-01
   C  0.195068742E+01  0.124266983E-01  0.691802112E-01
   H -0.109348073E+02  0.130912812E+01  0.107105589E+01
   H  0.107796987E+02 -0.996103580E+00 -0.124030729E+01
     4
 # iter = 33500  time[fs]=33.50000
   C -0.201304923E+01 -0.450936266E-01 -0.920092470E-01
   C  0.202144542E+01  0.148963680E-01  0.724792416E-01
   H -0.113106659E+02  0.135574189E+01  0.110757556E+01
   H  0.111392535E+02 -0.102855867E+01 -0.128421576E+01
     4
 # iter = 34000  time[fs]=34.00000
   C -0.208568077E+01 -0.471277161E-01 -0.963304804E-01
   C  0.209299230E+01  0.173825282E-01  0.758189982E-01
   H -0.116878632E+02  0.140253574E+01  0.114424731E+01
   H  0.115001171E+02 -0.106114448E+01 -0.132828901E+01
     4
 # iter = 34500  time[fs]=34.50000
   C -0.215904509E+01 -0.491815183E-01 -0.100689060E+00
   C  0.216527415E+01  0.198845503E-01  0.791971328E-01
   H -0.120663150E+02  0.144949857E+01  0.118106169E+01
   H  0.118622089E+02 -0.109385306E+01 -0.137251728E+01
     4
 # iter = 35000  time[fs]=35.00000
   C -0.223309339E+01 -0.512541766E-01 -0.105082841E+00
   C  0.223824190E+01  0.224018162E-01  0.826114724E-01
   H -0.124459443E+02  0.149662028E+01  0.121801010E+01
   H  0.122254552E+02 -0.112667716E+01 -0.141689162E+01
     4
 # iter = 35500  time[fs]=35.50000
   C -0.230778119E+01 -0.533448708E-01 -0.109509838E+00
   C  0.231185083E+01  0.249337231E-01  0.860600047E-01
   H -0.128266810E+02  0.154389160E+01  0.125508467E+01
   H  0.125897887E+02 -0.115961015E+01 -0.146140384E+01
     4
 # iter = 36000  time[fs]=36.00000
   C -0.238306784E+01 -0.554528177E-01 -0.113968215E+00
   C  0.238606010E+01  0.274796867E-01  0.895408650E-01
   H -0.132084609E+02  0.159130407E+01  0.129227821E+01
   H  0.129551476E+02 -0.119264593E+01 -0.150604639E+01
     4
 # iter = 36500  time[fs]=36.50000
   C -0.245891616E+01 -0.575772714E-01 -0.118456271E+00
   C  0.246083234E+01  0.300391428E-01  0.930523237E-01
   H -0.135912250E+02  0.163884990E+01  0.132958410E+01
   H  0.133214750E+02 -0.122577890E+01 -0.155081234E+01
     4
 # iter = 37000  time[fs]=37.00000
   C -0.253529206E+01 -0.597175225E-01 -0.122972429E+00
   C  0.253613331E+01  0.326115491E-01  0.965927746E-01
   H -0.139749191E+02  0.168652192E+01  0.136699626E+01
   H  0.136887186E+02 -0.125900389E+01 -0.159569525E+01
     4
 # iter = 37500  time[fs]=37.50000
   C -0.261216425E+01 -0.618728974E-01 -0.127515222E+00
   C  0.261193160E+01  0.351963853E-01  0.100160725E+00
   H -0.143594935E+02  0.173431351E+01  0.140450910E+01
   H  0.140568301E+02 -0.129231613E+01 -0.164068919E+01
     4
 # iter = 38000  time[fs]=38.00000
   C -0.268950396E+01 -0.640427567E-01 -0.132083291E+00
   C  0.268819830E+01  0.377931538E-01  0.103754787E+00
   H -0.147449019E+02  0.178221857E+01  0.144211742E+01
   H  0.144257649E+02 -0.132571121E+01 -0.168578865E+01
     4
 # iter = 38500  time[fs]=38.50000
   C -0.276728467E+01 -0.662264941E-01 -0.136675366E+00
   C  0.276490680E+01  0.404013790E-01  0.107373665E+00
   H -0.151311017E+02  0.183023143E+01  0.147981645E+01
   H  0.147954817E+02 -0.135918503E+01 -0.173098853E+01
     4
 # iter = 39000  time[fs]=39.00000
   C -0.284548192E+01 -0.684235348E-01 -0.141290270E+00
   C  0.284203255E+01  0.430206074E-01  0.111016155E+00
   H -0.155180536E+02  0.187834684E+01  0.151760173E+01
   H  0.151659419E+02 -0.139273380E+01 -0.177628408E+01
     4
 # iter = 39500  time[fs]=39.50000
   C -0.292407312E+01 -0.706333342E-01 -0.145926900E+00
   C  0.291955287E+01  0.456504066E-01  0.114681131E+00
   H -0.159057207E+02  0.192655991E+01  0.155546913E+01
   H  0.155371099E+02 -0.142635397E+01 -0.182167085E+01
     4
 # iter = 40000  time[fs]=40.00000
   C -0.300303734E+01 -0.728553762E-01 -0.150584229E+00
   C  0.299744677E+01  0.482903648E-01  0.118367541E+00
   H -0.162940690E+02  0.197486609E+01  0.159341481E+01
   H  0.159089525E+02 -0.146004226E+01 -0.186714473E+01
     4
 # iter = 40500  time[fs]=40.50000
   C -0.308235520E+01 -0.750891715E-01 -0.155261296E+00
   C  0.307569478E+01  0.509400901E-01  0.122074401E+00
   H -0.166830667E+02  0.202326114E+01  0.163143520E+01
   H  0.162814387E+02 -0.149379558E+01 -0.191270184E+01
     4
 # iter = 41000  time[fs]=41.00000
   C -0.316200869E+01 -0.773342567E-01 -0.159957203E+00
   C  0.315427886E+01  0.535992095E-01  0.125800789E+00
   H -0.170726842E+02  0.207174110E+01  0.166952693E+01
   H  0.166545395E+02 -0.152761106E+01 -0.195833857E+01
     4
 # iter = 41500  time[fs]=41.50000
   C -0.324198108E+01 -0.795901922E-01 -0.164671108E+00
   C  0.323318223E+01  0.562673679E-01  0.129545842E+00
   H -0.174628938E+02  0.212030227E+01  0.170768690E+01
   H  0.170282278E+02 -0.156148601E+01 -0.200405154E+01
     4
 # iter = 42000  time[fs]=42.00000
   C -0.332225681E+01 -0.818565611E-01 -0.169402221E+00
   C  0.331238926E+01  0.589442277E-01  0.133308749E+00
   H -0.178536697E+02  0.216894118E+01  0.174591216E+01
   H  0.174024783E+02 -0.159541791E+01 -0.204983756E+01
     4
 # iter = 42500  time[fs]=42.50000
   C -0.340282134E+01 -0.841329683E-01 -0.174149800E+00
   C  0.339188539E+01  0.616294676E-01  0.137088750E+00
   H -0.182449875E+02  0.221765456E+01  0.178419998E+01
   H  0.177772673E+02 -0.162940440E+01 -0.209569366E+01
     4
 # iter = 43000  time[fs]=43.00000
   C -0.348366114E+01 -0.864190383E-01 -0.178913150E+00
   C  0.347165704E+01  0.643227818E-01  0.140885128E+00
   H -0.186368244E+02  0.226643936E+01  0.182254777E+01
   H  0.181525723E+02 -0.166344324E+01 -0.214161701E+01
     4
 # iter = 43500  time[fs]=43.50000
   C -0.356476353E+01 -0.887144151E-01 -0.183691615E+00
   C  0.355169152E+01  0.670238792E-01  0.144697209E+00
   H -0.190291592E+02  0.231529272E+01  0.186095312E+01
   H  0.185283725E+02 -0.169753235E+01 -0.218760498E+01
     4
 # iter = 44000  time[fs]=44.00000
   C -0.364611667E+01 -0.910187602E-01 -0.188484578E+00
   C  0.363197694E+01  0.697324828E-01  0.148524360E+00
   H -0.194219716E+02  0.236421191E+01  0.189941374E+01
   H  0.189046479E+02 -0.173166976E+01 -0.223365507E+01
     4
 # iter = 44500  time[fs]=44.50000
   C -0.372770946E+01 -0.933317520E-01 -0.193291458E+00
   C  0.371250218E+01  0.724483288E-01  0.152365980E+00
   H -0.198152429E+02  0.241319439E+01  0.193792749E+01
   H  0.192813801E+02 -0.176585360E+01 -0.227976493E+01
     4
 # iter = 45000  time[fs]=45.00000
   C -0.380953148E+01 -0.956530849E-01 -0.198111706E+00
   C  0.379325680E+01  0.751711657E-01  0.156221506E+00
   H -0.202089550E+02  0.246223776E+01  0.197649234E+01
   H  0.196585515E+02 -0.180008213E+01 -0.232593233E+01
     4
 # iter = 45500  time[fs]=45.50000
   C -0.389157297E+01 -0.979824680E-01 -0.202944805E+00
   C  0.387423100E+01  0.779007541E-01  0.160090403E+00
   H -0.206030912E+02  0.251133974E+01  0.201510637E+01
   H  0.200361454E+02 -0.183435367E+01 -0.237215517E+01
     4
 # iter = 46000  time[fs]=46.00000
   C -0.397382472E+01 -0.100319625E+00 -0.207790264E+00
   C  0.395541559E+01  0.806368656E-01  0.163972167E+00
   H -0.209976356E+02  0.256049817E+01  0.205376777E+01
   H  0.204141462E+02 -0.186866668E+01 -0.241843145E+01
     4
 # iter = 46500  time[fs]=46.50000
   C -0.405627811E+01 -0.102664291E+00 -0.212647621E+00
   C  0.403680189E+01  0.833792824E-01  0.167866320E+00
   H -0.213925731E+02  0.260971103E+01  0.209247484E+01
   H  0.207925390E+02 -0.190301965E+01 -0.246475930E+01
     4
 # iter = 47000  time[fs]=47.00000
   C -0.413892497E+01 -0.105016216E+00 -0.217516437E+00
   C  0.411838175E+01  0.861277966E-01  0.171772409E+00
   H -0.217878896E+02  0.265897639E+01  0.213122595E+01
   H  0.211713099E+02 -0.193741119E+01 -0.251113690E+01
     4
 # iter = 47500  time[fs]=47.50000
   C -0.422175763E+01 -0.107375160E+00 -0.222396297E+00
   C  0.420014746E+01  0.888822099E-01  0.175690005E+00
   H -0.221835714E+02  0.270829241E+01  0.217001957E+01
   H  0.215504454E+02 -0.197183996E+01 -0.255756258E+01
     4
 # iter = 48000  time[fs]=48.00000
   C -0.430476884E+01 -0.109740894E+00 -0.227286806E+00
   C  0.428209177E+01  0.916423329E-01  0.179618702E+00
   H -0.225796059E+02  0.275765737E+01  0.220885422E+01
   H  0.219299330E+02 -0.200630469E+01 -0.260403471E+01
     4
 # iter = 48500  time[fs]=48.50000
   C -0.438795175E+01 -0.112113202E+00 -0.232187591E+00
   C  0.436420783E+01  0.944079845E-01  0.183558113E+00
   H -0.229759809E+02  0.280706962E+01  0.224772854E+01
   H  0.223097607E+02 -0.204080417E+01 -0.265055175E+01
     4
 # iter = 49000  time[fs]=49.00000
   C -0.447129989E+01 -0.114491874E+00 -0.237098297E+00
   C  0.444648913E+01  0.971789918E-01  0.187507870E+00
   H -0.233726848E+02  0.285652758E+01  0.228664120E+01
   H  0.226899170E+02 -0.207533726E+01 -0.269711225E+01
     4
 # iter = 49500  time[fs]=49.50000
   C -0.455480712E+01 -0.116876712E+00 -0.242018586E+00
   C  0.452892956E+01  0.999551892E-01  0.191467625E+00
   H -0.237697068E+02  0.290602977E+01  0.232559095E+01
   H  0.230703910E+02 -0.210990287E+01 -0.274371482E+01
     4
 # iter = 50000  time[fs]=50.00000
   C -0.463846765E+01 -0.119267526E+00 -0.246948137E+00
   C  0.461152328E+01  0.102736418E+00  0.195437045E+00
   H -0.241670363E+02  0.295557477E+01  0.236457659E+01
   H  0.234511726E+02 -0.214449996E+01 -0.279035811E+01
     4
 # iter = 50500  time[fs]=50.50000
   C -0.472227597E+01 -0.121664134E+00 -0.251886644E+00
   C  0.469426479E+01  0.105522528E+00  0.199415814E+00
   H -0.245646635E+02  0.300516122E+01  0.240359698E+01
   H  0.238322518E+02 -0.217912754E+01 -0.283704088E+01
     4
 # iter = 51000  time[fs]=51.00000
   C -0.480622685E+01 -0.124066362E+00 -0.256833815E+00
   C  0.477714886E+01  0.108313373E+00  0.203403630E+00
   H -0.249625788E+02  0.305478783E+01  0.244265105E+01
   H  0.242136192E+02 -0.221378467E+01 -0.288376191E+01
     4
 # iter = 51500  time[fs]=51.50000
   C -0.489031533E+01 -0.126474043E+00 -0.261789374E+00
   C  0.486017052E+01  0.111108814E+00  0.207400205E+00
   H -0.253607733E+02  0.310445338E+01  0.248173776E+01
   H  0.245952659E+02 -0.224847044E+01 -0.293052004E+01
     4
 # iter = 52000  time[fs]=52.00000
   C -0.497453671E+01 -0.128887018E+00 -0.266753054E+00
   C  0.494332506E+01  0.113908717E+00  0.211405266E+00
   H -0.257592384E+02  0.315415668E+01  0.252085612E+01
   H  0.249771834E+02 -0.228318399E+01 -0.297731418E+01
     4
 # iter = 52500  time[fs]=52.50000
   C -0.505888649E+01 -0.131305134E+00 -0.271724604E+00
   C  0.502660799E+01  0.116712956E+00  0.215418549E+00
   H -0.261579657E+02  0.320389661E+01  0.256000519E+01
   H  0.253593634E+02 -0.231792450E+01 -0.302414327E+01
     4
 # iter = 53000  time[fs]=53.00000
   C -0.514336042E+01 -0.133728245E+00 -0.276703782E+00
   C  0.511001503E+01  0.119521407E+00  0.219439805E+00
   H -0.265569476E+02  0.325367209E+01  0.259918406E+01
   H  0.257417982E+02 -0.235269118E+01 -0.307100629E+01
     4
 # iter = 53500  time[fs]=53.50000
   C -0.522795442E+01 -0.136156210E+00 -0.281690357E+00
   C  0.519354212E+01  0.122333953E+00  0.223468793E+00
   H -0.269561764E+02  0.330348210E+01  0.263839187E+01
   H  0.261244804E+02 -0.238748328E+01 -0.311790229E+01
     4
 # iter = 54000  time[fs]=54.00000
   C -0.531266463E+01 -0.138588893E+00 -0.286684108E+00
   C  0.527718538E+01  0.125150481E+00  0.227505286E+00
   H -0.273556449E+02  0.335332566E+01  0.267762779E+01
   H  0.265074027E+02 -0.242230007E+01 -0.316483033E+01
     4
 # iter = 54500  time[fs]=54.50000
   C -0.539748735E+01 -0.141026166E+00 -0.291684824E+00
   C  0.536094111E+01  0.127970881E+00  0.231549063E+00
   H -0.277553463E+02  0.340320181E+01  0.271689103E+01
   H  0.268905583E+02 -0.245714086E+01 -0.321178953E+01
     4
 # iter = 55000  time[fs]=55.00000
   C -0.548241906E+01 -0.143467904E+00 -0.296692303E+00
   C  0.544480579E+01  0.130795050E+00  0.235599915E+00
   H -0.281552740E+02  0.345310965E+01  0.275618083E+01
   H  0.272739407E+02 -0.249200498E+01 -0.325877903E+01
     4
 # iter = 55500  time[fs]=55.50000
   C -0.556745638E+01 -0.145913987E+00 -0.301706351E+00
   C  0.552877604E+01  0.133622888E+00  0.239657641E+00
   H -0.285554217E+02  0.350304831E+01  0.279549646E+01
   H  0.276575436E+02 -0.252689181E+01 -0.330579802E+01
     4
 # iter = 56000  time[fs]=56.00000
   C -0.565259610E+01 -0.148364300E+00 -0.306726782E+00
   C  0.561284864E+01  0.136454298E+00  0.243722047E+00
   H -0.289557833E+02  0.355301697E+01  0.283483723E+01
   H  0.280413609E+02 -0.256180073E+01 -0.335284571E+01
     4
 # iter = 56500  time[fs]=56.50000
   C -0.573783515E+01 -0.150818733E+00 -0.311753418E+00
   C  0.569702052E+01  0.139289186E+00  0.247792948E+00
   H -0.293563529E+02  0.360301481E+01  0.287420245E+01
   H  0.284253869E+02 -0.259673115E+01 -0.339992134E+01
     4
 # iter = 57000  time[fs]=57.00000
   C -0.582317057E+01 -0.153277179E+00 -0.316786088E+00
   C  0.578128873E+01  0.142127464E+00  0.251870167E+00
   H -0.297571251E+02  0.365304108E+01  0.291359149E+01
   H  0.288096159E+02 -0.263168251E+01 -0.344702419E+01
     4
 # iter = 57500  time[fs]=57.50000
   C -0.590859955E+01 -0.155739535E+00 -0.321824628E+00
   C  0.586565045E+01  0.144969045E+00  0.255953533E+00
   H -0.301580943E+02  0.370309503E+01  0.295300373E+01
   H  0.291940427E+02 -0.266665427E+01 -0.349415357E+01
     4
 # iter = 58000  time[fs]=58.00000
   C -0.599411940E+01 -0.158205704E+00 -0.326868881E+00
   C  0.595010298E+01  0.147813846E+00  0.260042882E+00
   H -0.305592556E+02  0.375317595E+01  0.299243857E+01
   H  0.295786621E+02 -0.270164590E+01 -0.354130879E+01
     4
 # iter = 58500  time[fs]=58.50000
   C -0.607972751E+01 -0.160675589E+00 -0.331918694E+00
   C  0.603464373E+01  0.150661788E+00  0.264138057E+00
   H -0.309606038E+02  0.380328316E+01  0.303189543E+01
   H  0.299634691E+02 -0.273665690E+01 -0.358848921E+01
     4
 # iter = 59000  time[fs]=59.00000
   C -0.616542142E+01 -0.163149098E+00 -0.336973922E+00
   C  0.611927022E+01  0.153512792E+00  0.268238906E+00
   H -0.313621343E+02  0.385341600E+01  0.307137377E+01
   H  0.303484590E+02 -0.277168679E+01 -0.363569421E+01
     4
 # iter = 59500  time[fs]=59.50000
   C -0.625119874E+01 -0.165626145E+00 -0.342034426E+00
   C  0.620398006E+01  0.156366786E+00  0.272345283E+00
   H -0.317638424E+02  0.390357384E+01  0.311087305E+01
   H  0.307336273E+02 -0.280673510E+01 -0.368292320E+01
     4
 # iter = 60000  time[fs]=60.00000
   C -0.633705719E+01 -0.168106642E+00 -0.347100069E+00
   C  0.628877097E+01  0.159223696E+00  0.276457047E+00
   H -0.321657237E+02  0.395375606E+01  0.315039275E+01
   H  0.311189694E+02 -0.284180139E+01 -0.373017558E+01
     4
 # iter = 60500  time[fs]=60.50000
   C -0.642299457E+01 -0.170590508E+00 -0.352170723E+00
   C  0.637364075E+01  0.162083455E+00  0.280574064E+00
   H -0.325677740E+02  0.400396208E+01  0.318993240E+01
   H  0.315044812E+02 -0.287688521E+01 -0.377745080E+01
     4
 # iter = 61000  time[fs]=61.00000
   C -0.650900877E+01 -0.173077664E+00 -0.357246263E+00
   C  0.645858730E+01  0.164945993E+00  0.284696204E+00
   H -0.329699891E+02  0.405419132E+01  0.322949150E+01
   H  0.318901585E+02 -0.291198616E+01 -0.382474833E+01
     4
 # iter = 61500  time[fs]=61.50000
   C -0.659509777E+01 -0.175568032E+00 -0.362326567E+00
   C  0.654360859E+01  0.167811248E+00  0.288823340E+00
   H -0.333723651E+02  0.410444324E+01  0.326906960E+01
   H  0.322759974E+02 -0.294710383E+01 -0.387206763E+01
     4
 # iter = 62000  time[fs]=62.00000
   C -0.668125961E+01 -0.178061538E+00 -0.367411519E+00
   C  0.662870266E+01  0.170679156E+00  0.292955352E+00
   H -0.337748982E+02  0.415471731E+01  0.330866626E+01
   H  0.326619941E+02 -0.298223783E+01 -0.391940822E+01
     4
 # iter = 62500  time[fs]=62.50000
   C -0.676749242E+01 -0.180558112E+00 -0.372501008E+00
   C  0.671386764E+01  0.173549657E+00  0.297092122E+00
   H -0.341775847E+02  0.420501302E+01  0.334828104E+01
   H  0.330481448E+02 -0.301738779E+01 -0.396676961E+01
     4
 # iter = 63000  time[fs]=63.00000
   C -0.685379439E+01 -0.183057682E+00 -0.377594926E+00
   C  0.679910172E+01  0.176422693E+00  0.301233539E+00
   H -0.345804209E+02  0.425532988E+01  0.338791354E+01
   H  0.334344461E+02 -0.305255334E+01 -0.401415132E+01
     4
 # iter = 63500  time[fs]=63.50000
   C -0.694016378E+01 -0.185560183E+00 -0.382693167E+00
   C  0.688440317E+01  0.179298207E+00  0.305379493E+00
   H -0.349834036E+02  0.430566741E+01  0.342756335E+01
   H  0.338208945E+02 -0.308773413E+01 -0.406155291E+01
     4
 # iter = 64000  time[fs]=64.00000
   C -0.702659892E+01 -0.188065549E+00 -0.387795632E+00
   C  0.696977030E+01  0.182176144E+00  0.309529879E+00
   H -0.353865293E+02  0.435602514E+01  0.346723009E+01
   H  0.342074866E+02 -0.312292983E+01 -0.410897393E+01
     4
 # iter = 64500  time[fs]=64.50000
   C -0.711309818E+01 -0.190573718E+00 -0.392902222E+00
   C  0.705520150E+01  0.185056452E+00  0.313684596E+00
   H -0.357897948E+02  0.440640263E+01  0.350691338E+01
   H  0.345942193E+02 -0.315814010E+01 -0.415641396E+01
     4
 # iter = 65000  time[fs]=65.00000
   C -0.719966002E+01 -0.193084629E+00 -0.398012844E+00
   C  0.714069521E+01  0.187939079E+00  0.317843545E+00
   H -0.361931971E+02  0.445679946E+01  0.354661286E+01
   H  0.349810895E+02 -0.319336463E+01 -0.420387259E+01
     4
 # iter = 65500  time[fs]=65.50000
   C -0.728628293E+01 -0.195598223E+00 -0.403127407E+00
   C  0.722624992E+01  0.190823976E+00  0.322006632E+00
   H -0.365967331E+02  0.450721520E+01  0.358632818E+01
   H  0.353680941E+02 -0.322860311E+01 -0.425134943E+01
     4
 # iter = 66000  time[fs]=66.00000
   C -0.737296545E+01 -0.198114442E+00 -0.408245823E+00
   C  0.731186420E+01  0.193711094E+00  0.326173765E+00
   H -0.370003999E+02  0.455764944E+01  0.362605901E+01
   H  0.357552302E+02 -0.326385524E+01 -0.429884408E+01
     4
 # iter = 66500  time[fs]=66.50000
   C -0.745970618E+01 -0.200633233E+00 -0.413368006E+00
   C  0.739753663E+01  0.196600387E+00  0.330344855E+00
   H -0.374041947E+02  0.460810181E+01  0.366580501E+01
   H  0.361424951E+02 -0.329912074E+01 -0.434635618E+01
     4
 # iter = 67000  time[fs]=67.00000
   C -0.754650378E+01 -0.203154541E+00 -0.418493875E+00
   C  0.748326586E+01  0.199491809E+00  0.334519816E+00
   H -0.378081148E+02  0.465857191E+01  0.370556587E+01
   H  0.365298859E+02 -0.333439933E+01 -0.439388537E+01
     4
 # iter = 67500  time[fs]=67.50000
   C -0.763335694E+01 -0.205678314E+00 -0.423623350E+00
   C  0.756905058E+01  0.202385317E+00  0.338698564E+00
   H -0.382121575E+02  0.470905938E+01  0.374534128E+01
   H  0.369174001E+02 -0.336969073E+01 -0.444143128E+01
     4
 # iter = 68000  time[fs]=68.00000
   C -0.772026438E+01 -0.208204503E+00 -0.428756353E+00
   C  0.765488954E+01  0.205280869E+00  0.342881020E+00
   H -0.386163203E+02  0.475956387E+01  0.378513094E+01
   H  0.373050351E+02 -0.340499468E+01 -0.448899360E+01
     4
 # iter = 68500  time[fs]=68.50000
   C -0.780722489E+01 -0.210733057E+00 -0.433892810E+00
   C  0.774078151E+01  0.208178422E+00  0.347067105E+00
   H -0.390206007E+02  0.481008502E+01  0.382493456E+01
   H  0.376927884E+02 -0.344031094E+01 -0.453657197E+01
     4
 # iter = 69000  time[fs]=69.00000
   C -0.789423729E+01 -0.213263930E+00 -0.439032649E+00
   C  0.782672531E+01  0.211077938E+00  0.351256743E+00
   H -0.394249963E+02  0.486062251E+01  0.386475185E+01
   H  0.380806576E+02 -0.347563924E+01 -0.458416609E+01
     4
 # iter = 69500  time[fs]=69.50000
   C -0.798130044E+01 -0.215797076E+00 -0.444175798E+00
   C  0.791271980E+01  0.213979376E+00  0.355449861E+00
   H -0.398295048E+02  0.491117601E+01  0.390458256E+01
   H  0.384686404E+02 -0.351097936E+01 -0.463177565E+01
     4
 # iter = 70000  time[fs]=70.00000
   C -0.806841322E+01 -0.218332449E+00 -0.449322191E+00
   C  0.799876386E+01  0.216882700E+00  0.359646389E+00
   H -0.402341239E+02  0.496174519E+01  0.394442641E+01
   H  0.388567344E+02 -0.354633106E+01 -0.467940033E+01
     4
 # iter = 70500  time[fs]=70.50000
   C -0.815557456E+01 -0.220870007E+00 -0.454471760E+00
   C  0.808485643E+01  0.219787873E+00  0.363846256E+00
   H -0.406388514E+02  0.501232977E+01  0.398428314E+01
   H  0.392449376E+02 -0.358169412E+01 -0.472703986E+01
     4
 # iter = 71000  time[fs]=71.00000
   C -0.824278344E+01 -0.223409708E+00 -0.459624442E+00
   C  0.817099647E+01  0.222694858E+00  0.368049395E+00
   H -0.410436852E+02  0.506292943E+01  0.402415251E+01
   H  0.396332477E+02 -0.361706831E+01 -0.477469394E+01
     4
 # iter = 71500  time[fs]=71.50000
   C -0.833003883E+01 -0.225951510E+00 -0.464780176E+00
   C  0.825718297E+01  0.225603622E+00  0.372255743E+00
   H -0.414486231E+02  0.511354389E+01  0.406403428E+01
   H  0.400216627E+02 -0.365245342E+01 -0.482236231E+01
     4
 # iter = 72000  time[fs]=72.00000
   C -0.841733977E+01 -0.228495374E+00 -0.469938899E+00
   C  0.834341497E+01  0.228514131E+00  0.376465236E+00
   H -0.418536633E+02  0.516417287E+01  0.410392820E+01
   H  0.404101806E+02 -0.368784925E+01 -0.487004468E+01
     4
 # iter = 72500  time[fs]=72.50000
   C -0.850468532E+01 -0.231041260E+00 -0.475100554E+00
   C  0.842969151E+01  0.231426351E+00  0.380677811E+00
   H -0.422588037E+02  0.521481610E+01  0.414383406E+01
   H  0.407987994E+02 -0.372325559E+01 -0.491774080E+01
     4
 # iter = 73000  time[fs]=73.00000
   C -0.859207454E+01 -0.233589132E+00 -0.480265085E+00
   C  0.851601168E+01  0.234340252E+00  0.384893411E+00
   H -0.426640425E+02  0.526547331E+01  0.418375162E+01
   H  0.411875173E+02 -0.375867226E+01 -0.496545042E+01
     4
 # iter = 73500  time[fs]=73.50000
   C -0.867950657E+01 -0.236138952E+00 -0.485432435E+00
   C  0.860237459E+01  0.237255802E+00  0.389111977E+00
   H -0.430693777E+02  0.531614423E+01  0.422368067E+01
   H  0.415763322E+02 -0.379409905E+01 -0.501317329E+01
     4
 # iter = 74000  time[fs]=74.00000
   C -0.876698053E+01 -0.238690685E+00 -0.490602550E+00
   C  0.868877938E+01  0.240172971E+00  0.393333453E+00
   H -0.434748077E+02  0.536682863E+01  0.426362101E+01
   H  0.419652426E+02 -0.382953579E+01 -0.506090917E+01
     4
 # iter = 74500  time[fs]=74.50000
   C -0.885449559E+01 -0.241244297E+00 -0.495775380E+00
   C  0.877522521E+01  0.243091729E+00  0.397557784E+00
   H -0.438803306E+02  0.541752626E+01  0.430357242E+01
   H  0.423542466E+02 -0.386498229E+01 -0.510865782E+01
     4
 # iter = 75000  time[fs]=75.00000
   C -0.894205093E+01 -0.243799752E+00 -0.500950872E+00
   C  0.886171128E+01  0.246012049E+00  0.401784917E+00
   H -0.442859448E+02  0.546823687E+01  0.434353471E+01
   H  0.427433424E+02 -0.390043838E+01 -0.515641902E+01
     4
 # iter = 75500  time[fs]=75.50000
   C -0.902964577E+01 -0.246357020E+00 -0.506128978E+00
   C  0.894823679E+01  0.248933902E+00  0.406014800E+00
   H -0.446916487E+02  0.551896024E+01  0.438350768E+01
   H  0.431325286E+02 -0.393590389E+01 -0.520419255E+01
     4
 # iter = 76000  time[fs]=76.00000
   C -0.911727933E+01 -0.248916067E+00 -0.511309649E+00
   C  0.903480097E+01  0.251857262E+00  0.410247383E+00
   H -0.450974405E+02  0.556969615E+01  0.442349115E+01
   H  0.435218034E+02 -0.397137865E+01 -0.525197819E+01
     4
 # iter = 76500  time[fs]=76.50000
   C -0.920495088E+01 -0.251476863E+00 -0.516492839E+00
   C  0.912140308E+01  0.254782101E+00  0.414482618E+00
   H -0.455033188E+02  0.562044436E+01  0.446348493E+01
   H  0.439111652E+02 -0.400686250E+01 -0.529977572E+01
     4
 # iter = 77000  time[fs]=77.00000
   C -0.929265969E+01 -0.254039376E+00 -0.521678502E+00
   C  0.920804241E+01  0.257708395E+00  0.418720455E+00
   H -0.459092820E+02  0.567120468E+01  0.450348884E+01
   H  0.443006126E+02 -0.404235529E+01 -0.534758495E+01
     4
 # iter = 77500  time[fs]=77.50000
   C -0.938040506E+01 -0.256603578E+00 -0.526866594E+00
   C  0.929471824E+01  0.260636118E+00  0.422960850E+00
   H -0.463153286E+02  0.572197688E+01  0.454350271E+01
   H  0.446901441E+02 -0.407785686E+01 -0.539540568E+01
     4
 # iter = 78000  time[fs]=78.00000
   C -0.946818630E+01 -0.259169440E+00 -0.532057072E+00
   C  0.938142988E+01  0.263565246E+00  0.427203757E+00
   H -0.467214572E+02  0.577276078E+01  0.458352637E+01
   H  0.450797582E+02 -0.411336705E+01 -0.544323770E+01
     4
 # iter = 78500  time[fs]=78.50000
   C -0.955600275E+01 -0.261736933E+00 -0.537249894E+00
   C  0.946817669E+01  0.266495754E+00  0.431449132E+00
   H -0.471276664E+02  0.582355616E+01  0.462355964E+01
   H  0.454694534E+02 -0.414888573E+01 -0.549108084E+01
     4
 # iter = 79000  time[fs]=79.00000
   C -0.964385375E+01 -0.264306030E+00 -0.542445019E+00
   C  0.955495800E+01  0.269427621E+00  0.435696932E+00
   H -0.475339548E+02  0.587436284E+01  0.466360238E+01
   H  0.458592285E+02 -0.418441276E+01 -0.553893490E+01
     4
 # iter = 79500  time[fs]=79.50000
   C -0.973173869E+01 -0.266876704E+00 -0.547642406E+00
   C  0.964177320E+01  0.272360822E+00  0.439947115E+00
   H -0.479403211E+02  0.592518063E+01  0.470365442E+01
   H  0.462490820E+02 -0.421994798E+01 -0.558679971E+01
     4
 # iter = 80000  time[fs]=80.00000
   C -0.981965694E+01 -0.269448929E+00 -0.552842018E+00
   C  0.972862166E+01  0.275295337E+00  0.444199641E+00
   H -0.483467640E+02  0.597600935E+01  0.474371561E+01
   H  0.466390127E+02 -0.425549128E+01 -0.563467509E+01
