     4
 # iter = 25000  time[fs]=25.00000
   C -0.101003895E+01 -0.336694366E-01  0.788196280E-02
   C  0.985118425E+00 -0.230264489E-01  0.356004987E-01
   H -0.534000749E+01  0.779489324E-01  0.293213172E+00
   H  0.539282903E+01  0.416743307E+00  0.271183136E+00
     4
 # iter = 25500  time[fs]=25.50000
   C -0.105698779E+01 -0.347329273E-01  0.741689948E-02
   C  0.102725197E+01 -0.256854490E-01  0.360801304E-01
   H -0.567748022E+01  0.829856380E-01  0.311596929E+00
   H  0.571287405E+01  0.440903969E+00  0.286777083E+00
     4
 # iter = 26000  time[fs]=26.00000
   C -0.110694639E+01 -0.358267827E-01  0.688410712E-02
   C  0.107240131E+01 -0.283619376E-01  0.365817879E-01
   H -0.602037037E+01  0.881291301E-01  0.330277503E+00
   H  0.603826408E+01  0.465532081E+00  0.302622653E+00
     4
 # iter = 26500  time[fs]=26.50000
   C -0.115966453E+01 -0.369453057E-01  0.629038144E-02
   C  0.112031332E+01 -0.310563121E-01  0.371036775E-01
   H -0.636806861E+01  0.933668367E-01  0.349221643E+00
   H  0.636842455E+01  0.490576620E+00  0.318693070E+00
     4
 # iter = 27000  time[fs]=27.00000
   C -0.121490869E+01 -0.380838209E-01  0.564171954E-02
   C  0.117075237E+01 -0.337687546E-01  0.376440528E-01
   H -0.672005779E+01  0.986882349E-01  0.368401230E+00
   H  0.670286382E+01  0.515994191E+00  0.334965447E+00
     4
 # iter = 27500  time[fs]=27.50000
   C -0.127246328E+01 -0.392385054E-01  0.494341575E-02
   C  0.122350130E+01 -0.364992498E-01  0.382012579E-01
   H -0.707589602E+01  0.104084435E+00  0.387792298E+00
   H  0.704115867E+01  0.541747626E+00  0.351420089E+00
     4
 # iter = 28000  time[fs]=28.00000
   C -0.133213082E+01 -0.404062409E-01  0.420014722E-02
   C  0.127836151E+01 -0.392476144E-01  0.387737516E-01
   H -0.743520332E+01  0.109547861E+00  0.407374265E+00
   H  0.738294276E+01  0.567804878E+00  0.368039944E+00
     4
 # iter = 28500  time[fs]=28.50000
   C -0.139373148E+01 -0.415844873E-01  0.341604999E-02
   C  0.133515233E+01 -0.420135299E-01  0.393601170E-01
   H -0.779765100E+01  0.115072011E+00  0.427129346E+00
   H  0.772789723E+01  0.594138147E+00  0.384810170E+00
     4
 # iter = 29000  time[fs]=29.00000
   C -0.145710212E+01 -0.427711770E-01  0.259478654E-02
   C  0.139371005E+01 -0.447965744E-01  0.399590636E-01
   H -0.816295314E+01  0.120651263E+00  0.447042070E+00
   H  0.807574321E+01  0.620723182E+00  0.401717774E+00
     4
 # iter = 29500  time[fs]=29.50000
   C -0.152209517E+01 -0.439646272E-01  0.173960518E-02
   C  0.145388668E+01 -0.475962502E-01  0.405694229E-01
   H -0.853085975E+01  0.126280725E+00  0.467098908E+00
   H  0.842623559E+01  0.647538708E+00  0.418751325E+00
     4
 # iter = 30000  time[fs]=30.00000
   C -0.158857735E+01 -0.451634677E-01  0.853392243E-03
   C  0.151554867E+01 -0.504120082E-01  0.411901417E-01
   H -0.890115112E+01  0.131956117E+00  0.487287962E+00
   H  0.877915797E+01  0.674565976E+00  0.435900725E+00
     4
 # iter = 30500  time[fs]=30.50000
   C -0.165642840E+01 -0.463665822E-01 -0.612823586E-04
   C  0.157857559E+01 -0.532432672E-01  0.418202732E-01
   H -0.927363329E+01  0.137673674E+00  0.507598721E+00
   H  0.913431849E+01  0.701788378E+00  0.453157008E+00
     4
 # iter = 31000  time[fs]=31.00000
   C -0.172553981E+01 -0.475730605E-01 -0.100212549E-02
   C  0.164285882E+01 -0.560894293E-01  0.424589676E-01
   H -0.964813428E+01  0.143430066E+00  0.528021856E+00
   H  0.949154639E+01  0.729191147E+00  0.470512183E+00
     4
 # iter = 31500  time[fs]=31.50000
   C -0.179581365E+01 -0.487821595E-01 -0.196708634E-02
   C  0.170830040E+01 -0.589498919E-01  0.431054630E-01
   H -0.100245010E+02  0.149222335E+00  0.548549048E+00
   H  0.985068906E+01  0.756761095E+00  0.487959102E+00
     4
 # iter = 32000  time[fs]=32.00000
   C -0.186716150E+01 -0.499932725E-01 -0.295432651E-02
   C  0.177481189E+01 -0.618240568E-01  0.437590760E-01
   H -0.104025966E+02  0.155047843E+00  0.569172855E+00
   H  0.102116097E+02  0.784486399E+00  0.505491345E+00
     4
 # iter = 32500  time[fs]=32.50000
   C -0.193950340E+01 -0.512059034E-01 -0.396219411E-02
   C  0.184231338E+01 -0.647113369E-01  0.444191941E-01
   H -0.107822983E+02  0.160904227E+00  0.589886590E+00
   H  0.105741851E+02  0.812356424E+00  0.523103129E+00
     4
 # iter = 33000  time[fs]=33.00000
   C -0.201276699E+01 -0.524196465E-01 -0.498920135E-02
   C  0.191073256E+01 -0.676111610E-01  0.450852673E-01
   H -0.111634957E+02  0.166789364E+00  0.610684228E+00
   H  0.109383041E+02  0.840361569E+00  0.540789225E+00
     4
 # iter = 33500  time[fs]=33.50000
   C -0.208688670E+01 -0.536341698E-01 -0.603400499E-02
   C  0.198000393E+01 -0.705229769E-01  0.457568015E-01
   H -0.115460890E+02  0.172701339E+00  0.631560317E+00
   H  0.113038662E+02  0.868493143E+00  0.558544893E+00
     4
 # iter = 34000  time[fs]=34.00000
   C -0.216180300E+01 -0.548492019E-01 -0.709538953E-02
   C  0.205006804E+01 -0.734462539E-01  0.464333525E-01
   H -0.119299878E+02  0.178638417E+00  0.652509913E+00
   H  0.116707800E+02  0.896743250E+00  0.576365824E+00
     4
 # iter = 34500  time[fs]=34.50000
   C -0.223746176E+01 -0.560645207E-01 -0.817225246E-02
   C  0.212087087E+01 -0.763804835E-01  0.471145201E-01
   H -0.123151102E+02  0.184599025E+00  0.673528519E+00
   H  0.120389623E+02  0.925104700E+00  0.594248087E+00
     4
 # iter = 35000  time[fs]=35.00000
   C -0.231381372E+01 -0.572799449E-01 -0.926359153E-02
   C  0.219236324E+01 -0.793251807E-01  0.477999433E-01
   H -0.127013813E+02  0.190581730E+00  0.694612030E+00
   H  0.124083372E+02  0.953570928E+00  0.612188091E+00
     4
 # iter = 35500  time[fs]=35.50000
   C -0.239081390E+01 -0.584953266E-01 -0.103684936E-01
   C  0.226450029E+01 -0.822798834E-01  0.484892961E-01
   H -0.130887329E+02  0.196585226E+00  0.715756693E+00
   H  0.127788352E+02  0.982135922E+00  0.630182545E+00
     4
 # iter = 36000  time[fs]=36.00000
   C -0.246842124E+01 -0.597105456E-01 -0.114861249E-01
   C  0.233724106E+01 -0.852441524E-01  0.491822833E-01
   H -0.134771026E+02  0.202608315E+00  0.736959066E+00
   H  0.131503926E+02  0.101079417E+01  0.648228425E+00
     4
 # iter = 36500  time[fs]=36.50000
   C -0.254659815E+01 -0.609255044E-01 -0.126157227E-01
   C  0.241054804E+01 -0.882175710E-01  0.498786377E-01
   H -0.138664329E+02  0.208649899E+00  0.758215987E+00
   H  0.135229507E+02  0.103954059E+01  0.666322950E+00
     4
 # iter = 37000  time[fs]=37.00000
   C -0.262531015E+01 -0.621401244E-01 -0.137565875E-01
   C  0.248438689E+01 -0.911997438E-01  0.505781164E-01
   H -0.142566713E+02  0.214708970E+00  0.779524542E+00
   H  0.138964557E+02  0.106837051E+01  0.684463553E+00
     4
 # iter = 37500  time[fs]=37.50000
   C -0.270452560E+01 -0.633543426E-01 -0.149080768E-01
   C  0.255872604E+01 -0.941902964E-01  0.512804987E-01
   H -0.146477691E+02  0.220784597E+00  0.800882043E+00
   H  0.142708577E+02  0.109727961E+01  0.702647861E+00
     4
 # iter = 38000  time[fs]=38.00000
   C -0.278421537E+01 -0.645681090E-01 -0.160695994E-01
   C  0.263353648E+01 -0.971888743E-01  0.519855837E-01
   H -0.150396814E+02  0.226875921E+00  0.822286001E+00
   H  0.146461108E+02  0.112626389E+01  0.720873679E+00
     4
 # iter = 38500  time[fs]=38.50000
   C -0.286435264E+01 -0.657813842E-01 -0.172406099E-01
   C  0.270879148E+01 -0.100195142E+00  0.526931877E-01
   H -0.154323667E+02  0.232982148E+00  0.843734114E+00
   H  0.150221721E+02  0.115531965E+01  0.739138969E+00
     4
 # iter = 39000  time[fs]=39.00000
   C -0.294491265E+01 -0.669941377E-01 -0.184206047E-01
   C  0.278446638E+01 -0.103208780E+00  0.534031433E-01
   H -0.158257866E+02  0.239102540E+00  0.865224242E+00
   H  0.153990021E+02  0.118444344E+01  0.757441837E+00
     4
 # iter = 39500  time[fs]=39.50000
   C -0.302587251E+01 -0.682063466E-01 -0.196091178E-01
   C  0.286053837E+01 -0.106229490E+00  0.541152970E-01
   H -0.162199054E+02  0.245236415E+00  0.886754395E+00
   H  0.157765640E+02  0.121363207E+01  0.775780521E+00
     4
 # iter = 40000  time[fs]=40.00000
   C -0.310721104E+01 -0.694179939E-01 -0.208057172E-01
   C  0.293698638E+01 -0.109256986E+00  0.548295081E-01
   H -0.166146898E+02  0.251383135E+00  0.908322722E+00
   H  0.161548235E+02  0.124288254E+01  0.794153378E+00
     4
 # iter = 40500  time[fs]=40.50000
   C -0.318890859E+01 -0.706290678E-01 -0.220100017E-01
   C  0.301379083E+01 -0.112290997E+00  0.555456476E-01
   H -0.170101089E+02  0.257542108E+00  0.929927493E+00
   H  0.165337486E+02  0.127219207E+01  0.812558873E+00
     4
 # iter = 41000  time[fs]=41.00000
   C -0.327094695E+01 -0.718395608E-01 -0.232215987E-01
   C  0.309093358E+01 -0.115331269E+00  0.562635967E-01
   H -0.174061338E+02  0.263712780E+00  0.951567093E+00
   H  0.169133094E+02  0.130155806E+01  0.830995571E+00
     4
 # iter = 41500  time[fs]=41.50000
   C -0.335330914E+01 -0.730494687E-01 -0.244401608E-01
   C  0.316839776E+01 -0.118377560E+00  0.569832461E-01
   H -0.178027375E+02  0.269894634E+00  0.973240012E+00
   H  0.172934780E+02  0.133097806E+01  0.849462130E+00
     4
 # iter = 42000  time[fs]=42.00000
   C -0.343597938E+01 -0.742587905E-01 -0.256653641E-01
   C  0.324616766E+01 -0.121429639E+00  0.577044948E-01
   H -0.181998947E+02  0.276087187E+00  0.994944833E+00
   H  0.176742282E+02  0.136044980E+01  0.867957289E+00
     4
 # iter = 42500  time[fs]=42.50000
   C -0.351894297E+01 -0.754675272E-01 -0.268969065E-01
   C  0.332422863E+01 -0.124487290E+00  0.584272499E-01
   H -0.185975819E+02  0.282289984E+00  0.101668023E+01
   H  0.180555355E+02  0.138997113E+01  0.886479865E+00
     4
 # iter = 43000  time[fs]=43.00000
   C -0.360218616E+01 -0.766756821E-01 -0.281345049E-01
   C  0.340256702E+01 -0.127550305E+00  0.591514251E-01
   H -0.189957769E+02  0.288502600E+00  0.103844495E+01
   H  0.184373768E+02  0.141954002E+01  0.905028747E+00
     4
 # iter = 43500  time[fs]=43.50000
   C -0.368569611E+01 -0.778832598E-01 -0.293778948E-01
   C  0.348117004E+01 -0.130618488E+00  0.598769408E-01
   H -0.193944586E+02  0.294724636E+00  0.106023782E+01
   H  0.188197304E+02  0.144915460E+01  0.923602889E+00
     4
 # iter = 44000  time[fs]=44.00000
   C -0.376946081E+01 -0.790902664E-01 -0.306268277E-01
   C  0.356002576E+01 -0.133691654E+00  0.606037229E-01
   H -0.197936077E+02  0.300955714E+00  0.108205774E+01
   H  0.192025760E+02  0.147881307E+01  0.942201304E+00
     4
 # iter = 44500  time[fs]=44.50000
   C -0.385346899E+01 -0.802967090E-01 -0.318810708E-01
   C  0.363912296E+01 -0.136769625E+00  0.613317028E-01
   H -0.201932055E+02  0.307195480E+00  0.110390367E+01
   H  0.195858944E+02  0.150851374E+01  0.960823061E+00
     4
 # iter = 45000  time[fs]=45.00000
   C -0.393771011E+01 -0.815025955E-01 -0.331404051E-01
   C  0.371845117E+01 -0.139852232E+00  0.620608168E-01
   H -0.205932348E+02  0.313443601E+00  0.112577462E+01
   H  0.199696673E+02  0.153825502E+01  0.979467284E+00
     4
 # iter = 45500  time[fs]=45.50000
   C -0.402217424E+01 -0.827079345E-01 -0.344046244E-01
   C  0.379800051E+01 -0.142939316E+00  0.627910053E-01
   H -0.209936790E+02  0.319699759E+00  0.114766965E+01
   H  0.203538777E+02  0.156803542E+01  0.998133142E+00
     4
 # iter = 46000  time[fs]=46.00000
   C -0.410685205E+01 -0.839127350E-01 -0.356735348E-01
   C  0.387776172E+01 -0.146030725E+00  0.635222131E-01
   H -0.213945226E+02  0.325963658E+00  0.116958790E+01
   H  0.207385093E+02  0.159785350E+01  0.101681985E+01
     4
 # iter = 46500  time[fs]=46.50000
   C -0.419173478E+01 -0.851170065E-01 -0.369469533E-01
   C  0.395772609E+01 -0.149126312E+00  0.642543886E-01
   H -0.217957510E+02  0.332235015E+00  0.119152853E+01
   H  0.211235469E+02  0.162770793E+01  0.103552666E+01
     4
 # iter = 47000  time[fs]=47.00000
   C -0.427681416E+01 -0.863207587E-01 -0.382247071E-01
   C  0.403788538E+01 -0.152225940E+00  0.649874835E-01
   H -0.221973503E+02  0.338513564E+00  0.121349075E+01
   H  0.215089759E+02  0.165759742E+01  0.105425287E+01
     4
 # iter = 47500  time[fs]=47.50000
   C -0.436208240E+01 -0.875240016E-01 -0.395066331E-01
   C  0.411823187E+01 -0.155329477E+00  0.657214528E-01
   H -0.225993072E+02  0.344799050E+00  0.123547382E+01
   H  0.218947825E+02  0.168752076E+01  0.107299781E+01
     4
 # iter = 48000  time[fs]=48.00000
   C -0.444753213E+01 -0.887267451E-01 -0.407925770E-01
   C  0.419875824E+01 -0.158436796E+00  0.664562543E-01
   H -0.230016094E+02  0.351091234E+00  0.125747701E+01
   H  0.222809538E+02  0.171747681E+01  0.109176085E+01
     4
 # iter = 48500  time[fs]=48.50000
   C -0.453315641E+01 -0.899289994E-01 -0.420823926E-01
   C  0.427945759E+01 -0.161547778E+00  0.671918484E-01
   H -0.234042450E+02  0.357389888E+00  0.127949967E+01
   H  0.226674773E+02  0.174746447E+01  0.111054138E+01
     4
 # iter = 49000  time[fs]=49.00000
   C -0.461894866E+01 -0.911307745E-01 -0.433759415E-01
   C  0.436032338E+01 -0.164662308E+00  0.679281983E-01
   H -0.238072026E+02  0.363694795E+00  0.130154114E+01
   H  0.230543412E+02  0.177748270E+01  0.112933882E+01
     4
 # iter = 49500  time[fs]=49.50000
   C -0.470490266E+01 -0.923320805E-01 -0.446730925E-01
   C  0.444134944E+01 -0.167780276E+00  0.686652689E-01
   H -0.242104717E+02  0.370005749E+00  0.132360082E+01
   H  0.234415343E+02  0.180753051E+01  0.114815263E+01
     4
 # iter = 50000  time[fs]=50.00000
   C -0.479101251E+01 -0.935329274E-01 -0.459737209E-01
   C  0.452252992E+01 -0.170901577E+00  0.694030278E-01
   H -0.246140420E+02  0.376322555E+00  0.134567812E+01
   H  0.238290459E+02  0.183760696E+01  0.116698229E+01
     4
 # iter = 50500  time[fs]=50.50000
   C -0.487727263E+01 -0.947333249E-01 -0.472777084E-01
   C  0.460385925E+01 -0.174026112E+00  0.701414440E-01
   H -0.250179038E+02  0.382645024E+00  0.136777249E+01
   H  0.242168659E+02  0.186771115E+01  0.118582730E+01
     4
 # iter = 51000  time[fs]=51.00000
   C -0.496367771E+01 -0.959332829E-01 -0.485849425E-01
   C  0.468533218E+01 -0.177153783E+00  0.708804889E-01
   H -0.254220478E+02  0.388972980E+00  0.138988340E+01
   H  0.246049845E+02  0.189784222E+01  0.120468718E+01
     4
 # iter = 51500  time[fs]=51.50000
   C -0.505022272E+01 -0.971328108E-01 -0.498953162E-01
   C  0.476694370E+01 -0.180284499E+00  0.716201350E-01
   H -0.258264654E+02  0.395306251E+00  0.141201035E+01
   H  0.249933925E+02  0.192799936E+01  0.122356149E+01
     4
 # iter = 52000  time[fs]=52.00000
   C -0.513690286E+01 -0.983319182E-01 -0.512087274E-01
   C  0.484868907E+01 -0.183418172E+00  0.723603567E-01
   H -0.262311480E+02  0.401644677E+00  0.143415285E+01
   H  0.253820811E+02  0.195818177E+01  0.124244978E+01
     4
 # iter = 52500  time[fs]=52.50000
   C -0.522371358E+01 -0.995306143E-01 -0.525250790E-01
   C  0.493056376E+01 -0.186554717E+00  0.731011297E-01
   H -0.266360876E+02  0.407988101E+00  0.145631044E+01
   H  0.257710419E+02  0.198838872E+01  0.126135166E+01
     4
 # iter = 53000  time[fs]=53.00000
   C -0.531065055E+01 -0.100728908E+00 -0.538442784E-01
   C  0.501256348E+01 -0.189694054E+00  0.738424312E-01
   H -0.270412765E+02  0.414336376E+00  0.147848269E+01
   H  0.261602666E+02  0.201861949E+01  0.128026671E+01
     4
 # iter = 53500  time[fs]=53.50000
   C -0.539770965E+01 -0.101926808E+00 -0.551662373E-01
   C  0.509468412E+01 -0.192836104E+00  0.745842395E-01
   H -0.274467074E+02  0.420689360E+00  0.150066916E+01
   H  0.265497478E+02  0.204887339E+01  0.129919457E+01
     4
 # iter = 54000  time[fs]=54.00000
   C -0.548488693E+01 -0.103124324E+00 -0.564908712E-01
   C  0.517692178E+01 -0.195980793E+00  0.753265342E-01
   H -0.278523733E+02  0.427046918E+00  0.152286946E+01
   H  0.269394778E+02  0.207914976E+01  0.131813487E+01
     4
 # iter = 54500  time[fs]=54.50000
   C -0.557217864E+01 -0.104321464E+00 -0.578180994E-01
   C  0.525927274E+01 -0.199128049E+00  0.760692959E-01
   H -0.282582674E+02  0.433408919E+00  0.154508320E+01
   H  0.273294498E+02  0.210944799E+01  0.133708725E+01
     4
 # iter = 55000  time[fs]=55.00000
   C -0.565958121E+01 -0.105518235E+00 -0.591478450E-01
   C  0.534173344E+01 -0.202277804E+00  0.768125061E-01
   H -0.286643833E+02  0.439775239E+00  0.156731000E+01
   H  0.277196568E+02  0.213976746E+01  0.135605140E+01
     4
 # iter = 55500  time[fs]=55.50000
   C -0.574709120E+01 -0.106714647E+00 -0.604800340E-01
   C  0.542430049E+01 -0.205429991E+00  0.775561476E-01
   H -0.290707148E+02  0.446145759E+00  0.158954952E+01
   H  0.281100923E+02  0.217010760E+01  0.137502698E+01
     4
 # iter = 56000  time[fs]=56.00000
   C -0.583470535E+01 -0.107910706E+00 -0.618145960E-01
   C  0.550697064E+01 -0.208584546E+00  0.783002038E-01
   H -0.294772560E+02  0.452520364E+00  0.161180140E+01
   H  0.285007502E+02  0.220046784E+01  0.139401369E+01
     4
 # iter = 56500  time[fs]=56.50000
   C -0.592242054E+01 -0.109106422E+00 -0.631514631E-01
   C  0.558974080E+01 -0.211741408E+00  0.790446591E-01
   H -0.298840012E+02  0.458898945E+00  0.163406532E+01
   H  0.288916245E+02  0.223084767E+01  0.141301124E+01
     4
 # iter = 57000  time[fs]=57.00000
   C -0.601023376E+01 -0.110301800E+00 -0.644905707E-01
   C  0.567260799E+01 -0.214900518E+00  0.797894986E-01
   H -0.302909448E+02  0.465281394E+00  0.165634096E+01
   H  0.292827093E+02  0.226124656E+01  0.143201934E+01
     4
 # iter = 57500  time[fs]=57.50000
   C -0.609814217E+01 -0.111496849E+00 -0.658318565E-01
   C  0.575556938E+01 -0.218061820E+00  0.805347081E-01
   H -0.306980818E+02  0.471667612E+00  0.167862802E+01
   H  0.296739992E+02  0.229166403E+01  0.145103772E+01
     4
 # iter = 58000  time[fs]=58.00000
   C -0.618614300E+01 -0.112691576E+00 -0.671752609E-01
   C  0.583862225E+01 -0.221225258E+00  0.812802741E-01
   H -0.311054070E+02  0.478057500E+00  0.170092622E+01
   H  0.300654887E+02  0.232209959E+01  0.147006611E+01
     4
 # iter = 58500  time[fs]=58.50000
   C -0.627423364E+01 -0.113885987E+00 -0.685207266E-01
   C  0.592176398E+01 -0.224390779E+00  0.820261840E-01
   H -0.315129155E+02  0.484450965E+00  0.172323525E+01
   H  0.304571729E+02  0.235255280E+01  0.148910427E+01
     4
 # iter = 59000  time[fs]=59.00000
   C -0.636241156E+01 -0.115080090E+00 -0.698681986E-01
   C  0.600499207E+01 -0.227558334E+00  0.827724254E-01
   H -0.319206028E+02  0.490847916E+00  0.174555487E+01
   H  0.308490468E+02  0.238302321E+01  0.150815194E+01
     4
 # iter = 59500  time[fs]=59.50000
   C -0.645067433E+01 -0.116273890E+00 -0.712176240E-01
   C  0.608830414E+01 -0.230727872E+00  0.835189868E-01
   H -0.323284642E+02  0.497248267E+00  0.176788480E+01
   H  0.312411056E+02  0.241351039E+01  0.152720891E+01
     4
 # iter = 60000  time[fs]=60.00000
   C -0.653901965E+01 -0.117467395E+00 -0.725689520E-01
   C  0.617169786E+01 -0.233899346E+00  0.842658571E-01
   H -0.327364956E+02  0.503651933E+00  0.179022480E+01
   H  0.316333448E+02  0.244401395E+01  0.154627493E+01
     4
 # iter = 60500  time[fs]=60.50000
   C -0.662744527E+01 -0.118660610E+00 -0.739221338E-01
   C  0.625517105E+01 -0.237072711E+00  0.850130257E-01
   H -0.331446927E+02  0.510058833E+00  0.181257461E+01
   H  0.320257599E+02  0.247453349E+01  0.156534979E+01
     4
 # iter = 61000  time[fs]=61.00000
   C -0.671594906E+01 -0.119853541E+00 -0.752771222E-01
   C  0.633872155E+01 -0.240247923E+00  0.857604826E-01
   H -0.335530514E+02  0.516468891E+00  0.183493402E+01
   H  0.324183468E+02  0.250506862E+01  0.158443329E+01
     4
 # iter = 61500  time[fs]=61.50000
   C -0.680452895E+01 -0.121046195E+00 -0.766338720E-01
   C  0.642234734E+01 -0.243424938E+00  0.865082181E-01
   H -0.339615680E+02  0.522882030E+00  0.185730279E+01
   H  0.328111012E+02  0.253561899E+01  0.160352522E+01
     4
 # iter = 62000  time[fs]=62.00000
   C -0.689318295E+01 -0.122238577E+00 -0.779923395E-01
   C  0.650604646E+01 -0.246603716E+00  0.872562230E-01
   H -0.343702387E+02  0.529298179E+00  0.187968071E+01
   H  0.332040194E+02  0.256618424E+01  0.162262537E+01
     4
 # iter = 62500  time[fs]=62.50000
   C -0.698190917E+01 -0.123430693E+00 -0.793524827E-01
   C  0.658981699E+01 -0.249784216E+00  0.880044885E-01
   H -0.347790598E+02  0.535717267E+00  0.190206756E+01
   H  0.335970974E+02  0.259676402E+01  0.164173358E+01
     4
 # iter = 63000  time[fs]=63.00000
   C -0.707070576E+01 -0.124622547E+00 -0.807142609E-01
   C  0.667365714E+01 -0.252966401E+00  0.887530063E-01
   H -0.351880279E+02  0.542139227E+00  0.192446315E+01
   H  0.339903316E+02  0.262735801E+01  0.166084964E+01
     4
 # iter = 63500  time[fs]=63.50000
   C -0.715957096E+01 -0.125814147E+00 -0.820776351E-01
   C  0.675756514E+01 -0.256150232E+00  0.895017682E-01
   H -0.355971396E+02  0.548563993E+00  0.194686727E+01
   H  0.343837184E+02  0.265796588E+01  0.167997339E+01
     4
 # iter = 64000  time[fs]=64.00000
   C -0.724850305E+01 -0.127005495E+00 -0.834425676E-01
   C  0.684153931E+01 -0.259335674E+00  0.902507666E-01
   H -0.360063917E+02  0.554991503E+00  0.196927974E+01
   H  0.347772543E+02  0.268858734E+01  0.169910466E+01
     4
 # iter = 64500  time[fs]=64.50000
   C -0.733750041E+01 -0.128196598E+00 -0.848090219E-01
   C  0.692557802E+01 -0.262522692E+00  0.909999941E-01
   H -0.364157810E+02  0.561421695E+00  0.199170037E+01
   H  0.351709362E+02  0.271922208E+01  0.171824327E+01
     4
 # iter = 65000  time[fs]=65.00000
   C -0.742656143E+01 -0.129387461E+00 -0.861769628E-01
   C  0.700967969E+01 -0.265711252E+00  0.917494436E-01
   H -0.368253045E+02  0.567854510E+00  0.201412899E+01
   H  0.355647606E+02  0.274986981E+01  0.173738907E+01
     4
 # iter = 65500  time[fs]=65.50000
   C -0.751568460E+01 -0.130578088E+00 -0.875463564E-01
   C  0.709384282E+01 -0.268901321E+00  0.924991083E-01
   H -0.372349592E+02  0.574289892E+00  0.203656542E+01
   H  0.359587246E+02  0.278053025E+01  0.175654191E+01
     4
 # iter = 66000  time[fs]=66.00000
   C -0.760486844E+01 -0.131768483E+00 -0.889171698E-01
   C  0.717806593E+01 -0.272092867E+00  0.932489817E-01
   H -0.376447423E+02  0.580727785E+00  0.205900950E+01
   H  0.363528250E+02  0.281120314E+01  0.177570164E+01
     4
 # iter = 66500  time[fs]=66.50000
   C -0.769411152E+01 -0.132958652E+00 -0.902893711E-01
   C  0.726234763E+01 -0.275285860E+00  0.939990577E-01
   H -0.380546510E+02  0.587168135E+00  0.208146107E+01
   H  0.367470591E+02  0.284188821E+01  0.179486810E+01
     4
 # iter = 67000  time[fs]=67.00000
   C -0.778341246E+01 -0.134148598E+00 -0.916629298E-01
   C  0.734668654E+01 -0.278480270E+00  0.947493301E-01
   H -0.384646827E+02  0.593610891E+00  0.210391997E+01
   H  0.371414239E+02  0.287258520E+01  0.181404116E+01
     4
 # iter = 67500  time[fs]=67.50000
   C -0.787276994E+01 -0.135338326E+00 -0.930378161E-01
   C  0.743108136E+01 -0.281676068E+00  0.954997932E-01
   H -0.388748347E+02  0.600056003E+00  0.212638604E+01
   H  0.375359167E+02  0.290329388E+01  0.183322069E+01
     4
 # iter = 68000  time[fs]=68.00000
   C -0.796218268E+01 -0.136527840E+00 -0.944140012E-01
   C  0.751553080E+01 -0.284873225E+00  0.962504416E-01
   H -0.392851046E+02  0.606503421E+00  0.214885915E+01
   H  0.379305349E+02  0.293401399E+01  0.185240655E+01
     4
 # iter = 68500  time[fs]=68.50000
   C -0.805164942E+01 -0.137717145E+00 -0.957914573E-01
   C  0.760003363E+01 -0.288071715E+00  0.970012699E-01
   H -0.396954900E+02  0.612953099E+00  0.217133915E+01
   H  0.383252760E+02  0.296474532E+01  0.187159861E+01
     4
 # iter = 69000  time[fs]=69.00000
   C -0.814116897E+01 -0.138906243E+00 -0.971701574E-01
   C  0.768458868E+01 -0.291271511E+00  0.977522730E-01
   H -0.401059885E+02  0.619404991E+00  0.219382590E+01
   H  0.387201373E+02  0.299548764E+01  0.189079674E+01
     4
 # iter = 69500  time[fs]=69.50000
   C -0.823074017E+01 -0.140095139E+00 -0.985500754E-01
   C  0.776919477E+01 -0.294472587E+00  0.985034459E-01
   H -0.405165977E+02  0.625859053E+00  0.221631927E+01
   H  0.391151164E+02  0.302624072E+01  0.191000084E+01
     4
 # iter = 70000  time[fs]=70.00000
   C -0.832036188E+01 -0.141283836E+00 -0.999311860E-01
   C  0.785385081E+01 -0.297674919E+00  0.992547840E-01
   H -0.409273156E+02  0.632315241E+00  0.223881913E+01
   H  0.395102112E+02  0.305700436E+01  0.192921078E+01
     4
 # iter = 70500  time[fs]=70.50000
   C -0.841003302E+01 -0.142472339E+00 -0.101313465E+00
   C  0.793855570E+01 -0.300878482E+00  0.100006283E+00
   H -0.413381398E+02  0.638773513E+00  0.226132534E+01
   H  0.399054191E+02  0.308777835E+01  0.194842644E+01
     4
 # iter = 71000  time[fs]=71.00000
   C -0.849975253E+01 -0.143660650E+00 -0.102696887E+00
   C  0.802330841E+01 -0.304083253E+00  0.100757938E+00
   H -0.417490685E+02  0.645233829E+00  0.228383780E+01
   H  0.403007382E+02  0.311856249E+01  0.196764773E+01
     4
 # iter = 71500  time[fs]=71.50000
   C -0.858951939E+01 -0.144848774E+00 -0.104081431E+00
   C  0.810810792E+01 -0.307289208E+00  0.101509745E+00
   H -0.421600994E+02  0.651696150E+00  0.230635638E+01
   H  0.406961661E+02  0.314935659E+01  0.198687452E+01
     4
 # iter = 72000  time[fs]=72.00000
   C -0.867933261E+01 -0.146036713E+00 -0.105467074E+00
   C  0.819295325E+01 -0.310496326E+00  0.102261699E+00
   H -0.425712307E+02  0.658160438E+00  0.232888096E+01
   H  0.410917008E+02  0.318016047E+01  0.200610671E+01
     4
 # iter = 72500  time[fs]=72.50000
   C -0.876919123E+01 -0.147224471E+00 -0.106853793E+00
   C  0.827784344E+01 -0.313704584E+00  0.103013798E+00
   H -0.429824604E+02  0.664626654E+00  0.235141143E+01
   H  0.414873403E+02  0.321097393E+01  0.202534421E+01
     4
 # iter = 73000  time[fs]=73.00000
   C -0.885909431E+01 -0.148412051E+00 -0.108241569E+00
   C  0.836277759E+01 -0.316913962E+00  0.103766037E+00
   H -0.433937867E+02  0.671094763E+00  0.237394769E+01
   H  0.418830826E+02  0.324179679E+01  0.204458692E+01
     4
 # iter = 73500  time[fs]=73.50000
   C -0.894904095E+01 -0.149599456E+00 -0.109630380E+00
   C  0.844775478E+01 -0.320124440E+00  0.104518413E+00
   H -0.438052078E+02  0.677564730E+00  0.239648962E+01
   H  0.422789258E+02  0.327262890E+01  0.206383473E+01
     4
 # iter = 74000  time[fs]=74.00000
   C -0.903903027E+01 -0.150786690E+00 -0.111020206E+00
   C  0.853277415E+01 -0.323335997E+00  0.105270922E+00
   H -0.442167219E+02  0.684036520E+00  0.241903713E+01
   H  0.426748680E+02  0.330347007E+01  0.208308757E+01
     4
 # iter = 74500  time[fs]=74.50000
   C -0.912906142E+01 -0.151973754E+00 -0.112411028E+00
   C  0.861783487E+01 -0.326548614E+00  0.106023560E+00
   H -0.446283273E+02  0.690510101E+00  0.244159010E+01
   H  0.430709074E+02  0.333432015E+01  0.210234532E+01
     4
 # iter = 75000  time[fs]=75.00000
   C -0.921913358E+01 -0.153160653E+00 -0.113802828E+00
   C  0.870293610E+01 -0.329762272E+00  0.106776325E+00
   H -0.450400223E+02  0.696985439E+00  0.246414845E+01
   H  0.434670423E+02  0.336517896E+01  0.212160792E+01
     4
 # iter = 75500  time[fs]=75.50000
   C -0.930924594E+01 -0.154347388E+00 -0.115195587E+00
   C  0.878807706E+01 -0.332976953E+00  0.107529213E+00
   H -0.454518054E+02  0.703462503E+00  0.248671208E+01
   H  0.438632709E+02  0.339604637E+01  0.214087526E+01
     4
 # iter = 76000  time[fs]=76.00000
   C -0.939939772E+01 -0.155533964E+00 -0.116589287E+00
   C  0.887325698E+01 -0.336192639E+00  0.108282221E+00
   H -0.458636749E+02  0.709941263E+00  0.250928089E+01
   H  0.442595915E+02  0.342692222E+01  0.216014728E+01
     4
 # iter = 76500  time[fs]=76.50000
   C -0.948958817E+01 -0.156720381E+00 -0.117983910E+00
   C  0.895847510E+01 -0.339409311E+00  0.109035346E+00
   H -0.462756293E+02  0.716421689E+00  0.253185480E+01
   H  0.446560026E+02  0.345780636E+01  0.217942388E+01
     4
 # iter = 77000  time[fs]=77.00000
   C -0.957981654E+01 -0.157906644E+00 -0.119379441E+00
   C  0.904373069E+01 -0.342626955E+00  0.109788585E+00
   H -0.466876671E+02  0.722903751E+00  0.255443371E+01
   H  0.450525025E+02  0.348869864E+01  0.219870498E+01
     4
 # iter = 77500  time[fs]=77.50000
   C -0.967008212E+01 -0.159092754E+00 -0.120775863E+00
   C  0.912902306E+01 -0.345845552E+00  0.110541937E+00
   H -0.470997869E+02  0.729387421E+00  0.257701755E+01
   H  0.454490897E+02  0.351959893E+01  0.221799052E+01
     4
 # iter = 78000  time[fs]=78.00000
   C -0.976038422E+01 -0.160278714E+00 -0.122173159E+00
   C  0.921435150E+01 -0.349065086E+00  0.111295397E+00
   H -0.475119872E+02  0.735872672E+00  0.259960622E+01
   H  0.458457627E+02  0.355050710E+01  0.223728041E+01
     4
 # iter = 78500  time[fs]=78.50000
   C -0.985072216E+01 -0.161464527E+00 -0.123571315E+00
   C  0.929971535E+01 -0.352285542E+00  0.112048963E+00
   H -0.479242667E+02  0.742359477E+00  0.262219965E+01
   H  0.462425200E+02  0.358142300E+01  0.225657458E+01
     4
 # iter = 79000  time[fs]=79.00000
   C -0.994109528E+01 -0.162650195E+00 -0.124970315E+00
   C  0.938511395E+01 -0.355506905E+00  0.112802633E+00
   H -0.483366240E+02  0.748847809E+00  0.264479775E+01
   H  0.466393602E+02  0.361234651E+01  0.227587296E+01
     4
 # iter = 79500  time[fs]=79.50000
   C -0.100315029E+02 -0.163835720E+00 -0.126370144E+00
   C  0.947054668E+01 -0.358729159E+00  0.113556404E+00
   H -0.487490579E+02  0.755337643E+00  0.266740045E+01
   H  0.470362819E+02  0.364327750E+01  0.229517548E+01
     4
 # iter = 80000  time[fs]=80.00000
   C -0.101219445E+02 -0.165021104E+00 -0.127770788E+00
   C  0.955601291E+01 -0.361952290E+00  0.114310274E+00
   H -0.491615669E+02  0.761828954E+00  0.269000768E+01
   H  0.474332838E+02  0.367421585E+01  0.231448207E+01
