     4
 # iter = 25000  time[fs]=25.00000
   C -0.955089635E+00  0.150323298E-01  0.675545910E-02
   C  0.994213625E+00 -0.548645791E-02  0.182036419E-01
   H -0.526631988E+01 -0.278095348E+00 -0.159861660E+00
   H  0.533214189E+01 -0.321849538E+00 -0.445702945E+00
     4
 # iter = 25500  time[fs]=25.50000
   C -0.998445835E+00  0.170521758E-01  0.820071747E-02
   C  0.103701587E+01 -0.371834796E-02  0.212688737E-01
   H -0.559722888E+01 -0.293757549E+00 -0.168679073E+00
   H  0.564814508E+01 -0.338850198E+00 -0.470875479E+00
     4
 # iter = 26000  time[fs]=26.00000
   C -0.104482335E+01  0.191343950E-01  0.964886241E-02
   C  0.108287601E+01 -0.195852996E-02  0.243856642E-01
   H -0.593377526E+01 -0.309744802E+00 -0.177680420E+00
   H  0.596934676E+01 -0.356174781E+00 -0.496517422E+00
     4
 # iter = 26500  time[fs]=26.50000
   C -0.109397330E+01  0.212719530E-01  0.110975734E-01
   C  0.113153862E+01 -0.206062114E-03  0.275503508E-01
   H -0.627532521E+01 -0.326019382E+00 -0.186844590E+00
   H  0.629519143E+01 -0.373787902E+00 -0.522578087E+00
     4
 # iter = 27000  time[fs]=27.00000
   C -0.114566248E+01  0.234587759E-01  0.125451451E-01
   C  0.118276535E+01  0.153997896E-02  0.307595566E-01
   H -0.662134068E+01 -0.342549595E+00 -0.196153796E+00
   H  0.662520306E+01 -0.391659447E+00 -0.549014277E+00
     4
 # iter = 27500  time[fs]=27.50000
   C -0.119967495E+01  0.256896084E-01  0.139903499E-01
   C  0.123633612E+01  0.328046013E-02  0.340101607E-01
   H -0.697136184E+01 -0.359308588E+00 -0.205592926E+00
   H  0.695897136E+01 -0.409763608E+00 -0.575788917E+00
     4
 # iter = 28000  time[fs]=28.00000
   C -0.125581244E+01  0.279598934E-01  0.154323275E-01
   C  0.129204934E+01  0.501617262E-02  0.372992774E-01
   H -0.732499326E+01 -0.376273431E+00 -0.215149049E+00
   H  0.729614075E+01 -0.428078124E+00 -0.602869990E+00
     4
 # iter = 28500  time[fs]=28.50000
   C -0.131389410E+01  0.302656690E-01  0.168704975E-01
   C  0.134972146E+01  0.674782496E-02  0.406242399E-01
   H -0.768189287E+01 -0.393424399E+00 -0.224811021E+00
   H  0.763640151E+01 -0.446583682E+00 -0.630229672E+00
     4
 # iter = 29000  time[fs]=29.00000
   C -0.137375566E+01  0.326034814E-01  0.183044906E-01
   C  0.140918603E+01  0.847604324E-02  0.439825866E-01
   H -0.804176310E+01 -0.410744414E+00 -0.234569178E+00
   H  0.797948247E+01 -0.465263425E+00 -0.657843658E+00
     4
 # iter = 29500  time[fs]=29.50000
   C -0.143524841E+01  0.349703110E-01  0.197340951E-01
   C  0.147029250E+01  0.102013754E-01  0.473720477E-01
   H -0.840434374E+01 -0.428218600E+00 -0.244415088E+00
   H  0.832514517E+01 -0.484102569E+00 -0.685690599E+00
     4
 # iter = 30000  time[fs]=30.00000
   C -0.149823793E+01  0.373635091E-01  0.211592157E-01
   C  0.153290497E+01  0.119242980E-01  0.507905323E-01
   H -0.876940612E+01 -0.445833924E+00 -0.254341356E+00
   H  0.867317892E+01 -0.503088084E+00 -0.713751659E+00
     4
 # iter = 30500  time[fs]=30.50000
   C -0.156260290E+01  0.397807455E-01  0.225798423E-01
   C  0.159690086E+01  0.136452231E-01  0.542361157E-01
   H -0.913674837E+01 -0.463578908E+00 -0.264341463E+00
   H  0.902339686E+01 -0.522208428E+00 -0.742010136E+00
     4
 # iter = 31000  time[fs]=31.00000
   C -0.162823384E+01  0.422199634E-01  0.239960258E-01
   C  0.166216964E+01  0.153645060E-01  0.577070269E-01
   H -0.950619149E+01 -0.481443394E+00 -0.274409635E+00
   H  0.937563256E+01 -0.541453342E+00 -0.770451165E+00
     4
 # iter = 31500  time[fs]=31.50000
   C -0.169503192E+01  0.446793413E-01  0.254078599E-01
   C  0.172861161E+01  0.170824524E-01  0.612016370E-01
   H -0.987757613E+01 -0.499418356E+00 -0.284540736E+00
   H  0.972973727E+01 -0.560813662E+00 -0.799061459E+00
     4
 # iter = 32000  time[fs]=32.00000
   C -0.176290791E+01  0.471572611E-01  0.268154678E-01
   C  0.179613678E+01  0.187993245E-01  0.647184472E-01
   H -0.102507599E+02 -0.517495733E+00 -0.294730177E+00
   H  0.100855775E+02 -0.580281177E+00 -0.827829099E+00
     4
 # iter = 32500  time[fs]=32.50000
   C -0.183178114E+01  0.496522808E-01  0.282189916E-01
   C  0.186466386E+01  0.205153471E-01  0.682560782E-01
   H -0.106256149E+02 -0.535668303E+00 -0.304973845E+00
   H  0.104430332E+02 -0.599848504E+00 -0.856743355E+00
     4
 # iter = 33000  time[fs]=33.00000
   C -0.190157864E+01  0.521631111E-01  0.296185853E-01
   C  0.193411931E+01  0.222307128E-01  0.718132604E-01
   H -0.110020264E+02 -0.553929570E+00 -0.315268037E+00
   H  0.108019960E+02 -0.619508978E+00 -0.885794537E+00
     4
 # iter = 33500  time[fs]=33.50000
   C -0.197223426E+01  0.546885960E-01  0.310144086E-01
   C  0.200443653E+01  0.239455863E-01  0.753888236E-01
   H -0.113798903E+02 -0.572273672E+00 -0.325609413E+00
   H  0.111623675E+02 -0.639256568E+00 -0.914973865E+00
     4
 # iter = 34000  time[fs]=34.00000
   C -0.204368800E+01  0.572276959E-01  0.324066231E-01
   C  0.207555509E+01  0.256601086E-01  0.789816892E-01
   H -0.117591128E+02 -0.590695300E+00 -0.335994943E+00
   H  0.115240588E+02 -0.659085796E+00 -0.944273360E+00
     4
 # iter = 34500  time[fs]=34.50000
   C -0.211588530E+01  0.597794733E-01  0.337953895E-01
   C  0.214742012E+01  0.273743999E-01  0.825908616E-01
   H -0.121396084E+02 -0.609189632E+00 -0.346421879E+00
   H  0.118869884E+02 -0.678991678E+00 -0.973685755E+00
     4
 # iter = 35000  time[fs]=35.00000
   C -0.218877653E+01  0.623430800E-01  0.351808654E-01
   C  0.221998165E+01  0.290885630E-01  0.862154212E-01
   H -0.125212993E+02 -0.627752278E+00 -0.356887715E+00
   H  0.122510824E+02 -0.698969661E+00 -0.100320441E+01
     4
 # iter = 35500  time[fs]=35.50000
   C -0.226231641E+01  0.649177473E-01  0.365632038E-01
   C  0.229319415E+01  0.308026856E-01  0.898545173E-01
   H -0.129041145E+02 -0.646379227E+00 -0.367390163E+00
   H  0.126162729E+02 -0.719015580E+00 -0.103282324E+01
     4
 # iter = 36000  time[fs]=36.00000
   C -0.233646359E+01  0.675027761E-01  0.379425522E-01
   C  0.236701603E+01  0.325168423E-01  0.935073626E-01
   H -0.132879889E+02 -0.665066808E+00 -0.377927128E+00
   H  0.129824976E+02 -0.739125615E+00 -0.106253666E+01
     4
 # iter = 36500  time[fs]=36.50000
   C -0.241118024E+01  0.700975292E-01  0.393190523E-01
   C  0.244140927E+01  0.342310965E-01  0.971732271E-01
   H -0.136728629E+02 -0.683811649E+00 -0.388496685E+00
   H  0.133496994E+02 -0.759296252E+00 -0.109233955E+01
     4
 # iter = 37000  time[fs]=37.00000
   C -0.248643170E+01  0.727014247E-01  0.406928392E-01
   C  0.251633899E+01  0.359455022E-01  0.100851434E+00
   H -0.140586816E+02 -0.702610652E+00 -0.399097066E+00
   H  0.137178256E+02 -0.779524254E+00 -0.112222715E+01
     4
 # iter = 37500  time[fs]=37.50000
   C -0.256218613E+01  0.753139298E-01  0.420640415E-01
   C  0.259177323E+01  0.376601050E-01  0.104541353E+00
   H -0.144453945E+02 -0.721460957E+00 -0.409726638E+00
   H  0.140868275E+02 -0.799806633E+00 -0.115219510E+01
     4
 # iter = 38000  time[fs]=38.00000
   C -0.263841426E+01  0.779345555E-01  0.434327816E-01
   C  0.266768257E+01  0.393749434E-01  0.108242400E+00
   H -0.148329549E+02 -0.740359924E+00 -0.420383896E+00
   H  0.144566601E+02 -0.820140624E+00 -0.118223936E+01
     4
 # iter = 38500  time[fs]=38.50000
   C -0.271508916E+01  0.805628522E-01  0.447991751E-01
   C  0.274403994E+01  0.410900498E-01  0.111954030E+00
   H -0.152213195E+02 -0.759305111E+00 -0.431067444E+00
   H  0.148272818E+02 -0.840523665E+00 -0.121235615E+01
     4
 # iter = 39000  time[fs]=39.00000
   C -0.279218594E+01  0.831984056E-01  0.461633318E-01
   C  0.282082035E+01  0.428054513E-01  0.115675733E+00
   H -0.156104483E+02 -0.778294249E+00 -0.441775989E+00
   H  0.151986538E+02 -0.860953377E+00 -0.124254199E+01
     4
 # iter = 39500  time[fs]=39.50000
   C -0.286968163E+01  0.858408333E-01  0.475253553E-01
   C  0.289800072E+01  0.445211705E-01  0.119407037E+00
   H -0.160003042E+02 -0.797325233E+00 -0.452508328E+00
   H  0.155707403E+02 -0.881427546E+00 -0.127279364E+01
     4
 # iter = 40000  time[fs]=40.00000
   C -0.294755499E+01  0.884897817E-01  0.488853435E-01
   C  0.297555972E+01  0.462372261E-01  0.123147497E+00
   H -0.163908526E+02 -0.816396104E+00 -0.463263343E+00
   H  0.159435076E+02 -0.901944111E+00 -0.130310807E+01
     4
 # iter = 40500  time[fs]=40.50000
   C -0.302578629E+01  0.911449229E-01  0.502433891E-01
   C  0.305347756E+01  0.479536332E-01  0.126896699E+00
   H -0.167820612E+02 -0.835505035E+00 -0.474039992E+00
   H  0.163169247E+02 -0.922501150E+00 -0.133348246E+01
     4
 # iter = 41000  time[fs]=41.00000
   C -0.310435727E+01  0.938059528E-01  0.515995794E-01
   C  0.313173588E+01  0.496704041E-01  0.130654254E+00
   H -0.171739001E+02 -0.854650321E+00 -0.484837303E+00
   H  0.166909622E+02 -0.943096865E+00 -0.136391416E+01
     4
 # iter = 41500  time[fs]=41.50000
   C -0.318325092E+01  0.964725888E-01  0.529539969E-01
   C  0.321031762E+01  0.513875487E-01  0.134419798E+00
   H -0.175663411E+02 -0.873830368E+00 -0.495654365E+00
   H  0.170655929E+02 -0.963729574E+00 -0.139440070E+01
     4
 # iter = 42000  time[fs]=42.00000
   C -0.326245143E+01  0.991445674E-01  0.543067194E-01
   C  0.328920690E+01  0.531050745E-01  0.138192989E+00
   H -0.179593580E+02 -0.893043682E+00 -0.506490326E+00
   H  0.174407913E+02 -0.984397702E+00 -0.142493977E+01
     4
 # iter = 42500  time[fs]=42.50000
   C -0.334194406E+01  0.101821643E+00  0.556578205E-01
   C  0.336838892E+01  0.548229872E-01  0.141973506E+00
   H -0.183529261E+02 -0.912288865E+00 -0.517344390E+00
   H  0.178165333E+02 -0.100509977E+01 -0.145552918E+01
     4
 # iter = 43000  time[fs]=43.00000
   C -0.342171504E+01  0.104503587E+00  0.570073697E-01
   C  0.344784990E+01  0.565412908E-01  0.145761046E+00
   H -0.187470224E+02 -0.931564603E+00 -0.528215805E+00
   H  0.181927964E+02 -0.102583439E+01 -0.148616690E+01
     4
 # iter = 43500  time[fs]=43.50000
   C -0.350175154E+01  0.107190184E+00  0.583554325E-01
   C  0.352757691E+01  0.582599881E-01  0.149555324E+00
   H -0.191416251E+02 -0.950869659E+00 -0.539103867E+00
   H  0.185695596E+02 -0.104660025E+01 -0.151685099E+01
     4
 # iter = 44000  time[fs]=44.00000
   C -0.358204151E+01  0.109881233E+00  0.597020711E-01
   C  0.360755791E+01  0.599790803E-01  0.153356072E+00
   H -0.195367138E+02 -0.970202872E+00 -0.550007915E+00
   H  0.189468028E+02 -0.106739613E+01 -0.154757965E+01
     4
 # iter = 44500  time[fs]=44.50000
   C -0.366257371E+01  0.112576547E+00  0.610473440E-01
   C  0.368778159E+01  0.616985680E-01  0.157163038E+00
   H -0.199322694E+02 -0.989563147E+00 -0.560927322E+00
   H  0.193245073E+02 -0.108822087E+01 -0.157835117E+01
     4
 # iter = 45000  time[fs]=45.00000
   C -0.374333757E+01  0.115275948E+00  0.623913068E-01
   C  0.376823736E+01  0.634184506E-01  0.160975981E+00
   H -0.203282736E+02 -0.100894945E+01 -0.571861501E+00
   H  0.197026553E+02 -0.110907336E+01 -0.160916393E+01
     4
 # iter = 45500  time[fs]=45.50000
   C -0.382432317E+01  0.117979271E+00  0.637340119E-01
   C  0.384891527E+01  0.651387269E-01  0.164794676E+00
   H -0.207247095E+02 -0.102836081E+01 -0.582809896E+00
   H  0.200812302E+02 -0.112995258E+01 -0.164001641E+01
     4
 # iter = 46000  time[fs]=46.00000
   C -0.390552119E+01  0.120686358E+00  0.650755091E-01
   C  0.392980597E+01  0.668593948E-01  0.168618910E+00
   H -0.211215608E+02 -0.104779629E+01 -0.593771979E+00
   H  0.204602162E+02 -0.115085754E+01 -0.167090715E+01
     4
 # iter = 46500  time[fs]=46.50000
   C -0.398692288E+01  0.123397062E+00  0.664158454E-01
   C  0.401090068E+01  0.685804519E-01  0.172448479E+00
   H -0.215188123E+02 -0.106725504E+01 -0.604747255E+00
   H  0.208395982E+02 -0.117178732E+01 -0.170183481E+01
     4
 # iter = 47000  time[fs]=47.00000
   C -0.406851996E+01  0.126111245E+00  0.677550654E-01
   C  0.409219111E+01  0.703018952E-01  0.176283192E+00
   H -0.219164496E+02 -0.108673621E+01 -0.615735252E+00
   H  0.212193620E+02 -0.119274105E+01 -0.173279807E+01
     4
 # iter = 47500  time[fs]=47.50000
   C -0.415030467E+01  0.128828775E+00  0.690932116E-01
   C  0.417366945E+01  0.720237213E-01  0.180122866E+00
   H -0.223144589E+02 -0.110623903E+01 -0.626735523E+00
   H  0.215994944E+02 -0.121371789E+01 -0.176379571E+01
     4
 # iter = 48000  time[fs]=48.00000
   C -0.423226964E+01  0.131549527E+00  0.704303242E-01
   C  0.425532834E+01  0.737459265E-01  0.183967330E+00
   H -0.227128272E+02 -0.112576276E+01 -0.637747646E+00
   H  0.219799824E+02 -0.123471705E+01 -0.179482656E+01
     4
 # iter = 48500  time[fs]=48.50000
   C -0.431440795E+01  0.134273385E+00  0.717664411E-01
   C  0.433716083E+01  0.754685067E-01  0.187816418E+00
   H -0.231115422E+02 -0.114530668E+01 -0.648771218E+00
   H  0.223608140E+02 -0.125573778E+01 -0.182588952E+01
     4
 # iter = 49000  time[fs]=49.00000
   C -0.439671303E+01  0.137000238E+00  0.731015988E-01
   C  0.441916033E+01  0.771914578E-01  0.191669975E+00
   H -0.235105922E+02 -0.116487013E+01 -0.659805855E+00
   H  0.227419777E+02 -0.127677936E+01 -0.185698352E+01
     4
 # iter = 49500  time[fs]=49.50000
   C -0.447917868E+01  0.139729979E+00  0.744358315E-01
   C  0.450132062E+01  0.789147752E-01  0.195527853E+00
   H -0.239099660E+02 -0.118445246E+01 -0.670851196E+00
   H  0.231234625E+02 -0.129784112E+01 -0.188810757E+01
     4
 # iter = 50000  time[fs]=50.00000
   C -0.456179900E+01  0.142462509E+00  0.757691722E-01
   C  0.458363581E+01  0.806384544E-01  0.199389909E+00
   H -0.243096531E+02 -0.120405307E+01 -0.681906893E+00
   H  0.235052581E+02 -0.131892241E+01 -0.191926070E+01
     4
 # iter = 50500  time[fs]=50.50000
   C -0.464456844E+01  0.145197734E+00  0.771016520E-01
   C  0.466610030E+01  0.823624906E-01  0.203256009E+00
   H -0.247096434E+02 -0.122367139E+01 -0.692972617E+00
   H  0.238873544E+02 -0.134002262E+01 -0.195044200E+01
     4
 # iter = 51000  time[fs]=51.00000
   C -0.472748171E+01  0.147935562E+00  0.784333005E-01
   C  0.474870881E+01  0.840868791E-01  0.207126025E+00
   H -0.251099272E+02 -0.124330685E+01 -0.704048053E+00
   H  0.242697420E+02 -0.136114114E+01 -0.198165060E+01
     4
 # iter = 51500  time[fs]=51.50000
   C -0.481053377E+01  0.150675907E+00  0.797641460E-01
   C  0.483145630E+01  0.858116148E-01  0.210999834E+00
   H -0.255104954E+02 -0.126295892E+01 -0.715132901E+00
   H  0.246524119E+02 -0.138227743E+01 -0.201288568E+01
     4
 # iter = 52000  time[fs]=52.00000
   C -0.489371987E+01  0.153418689E+00  0.810942156E-01
   C  0.491433797E+01  0.875366929E-01  0.214877319E+00
   H -0.259113392E+02 -0.128262712E+01 -0.726226875E+00
   H  0.250353555E+02 -0.140343095E+01 -0.204414643E+01
     4
 # iter = 52500  time[fs]=52.50000
   C -0.497703547E+01  0.156163829E+00  0.824235349E-01
   C  0.499734930E+01  0.892621085E-01  0.218758369E+00
   H -0.263124502E+02 -0.130231095E+01 -0.737329701E+00
   H  0.254185644E+02 -0.142460118E+01 -0.207543209E+01
     4
 # iter = 53000  time[fs]=53.00000
   C -0.506047624E+01  0.158911253E+00  0.837521284E-01
   C  0.508048595E+01  0.909878564E-01  0.222642876E+00
   H -0.267138205E+02 -0.132200995E+01 -0.748441117E+00
   H  0.258020309E+02 -0.144578763E+01 -0.210674194E+01
     4
 # iter = 53500  time[fs]=53.50000
   C -0.514403808E+01  0.161660891E+00  0.850800196E-01
   C  0.516374381E+01  0.927139318E-01  0.226530738E+00
   H -0.271154425E+02 -0.134172369E+01 -0.759560873E+00
   H  0.261857474E+02 -0.146698984E+01 -0.213807529E+01
     4
 # iter = 54000  time[fs]=54.00000
   C -0.522771706E+01  0.164412674E+00  0.864072309E-01
   C  0.524711894E+01  0.944403296E-01  0.230421857E+00
   H -0.275173087E+02 -0.136145174E+01 -0.770688729E+00
   H  0.265697067E+02 -0.148820735E+01 -0.216943147E+01
     4
 # iter = 54500  time[fs]=54.50000
   C -0.531150946E+01  0.167166538E+00  0.877337837E-01
   C  0.533060760E+01  0.961670450E-01  0.234316140E+00
   H -0.279194123E+02 -0.138119370E+01 -0.781824456E+00
   H  0.269539018E+02 -0.150943973E+01 -0.220080983E+01
     4
 # iter = 55000  time[fs]=55.00000
   C -0.539541171E+01  0.169922422E+00  0.890596984E-01
   C  0.541420622E+01  0.978940729E-01  0.238213497E+00
   H -0.283217464E+02 -0.140094918E+01 -0.792967833E+00
   H  0.273383262E+02 -0.153068658E+01 -0.223220977E+01
     4
 # iter = 55500  time[fs]=55.50000
   C -0.547942039E+01  0.172680266E+00  0.903849945E-01
   C  0.549791139E+01  0.996214085E-01  0.242113841E+00
   H -0.287243047E+02 -0.142071781E+01 -0.804118650E+00
   H  0.277229734E+02 -0.155194749E+01 -0.226363071E+01
     4
 # iter = 56000  time[fs]=56.00000
   C -0.556353226E+01  0.175440014E+00  0.917096909E-01
   C  0.558171985E+01  0.101349047E+00  0.246017090E+00
   H -0.291270811E+02 -0.144049924E+01 -0.815276704E+00
   H  0.281078375E+02 -0.157322209E+01 -0.229507206E+01
     4
 # iter = 56500  time[fs]=56.50000
   C -0.564774422E+01  0.178201611E+00  0.930338055E-01
   C  0.566562847E+01  0.103076983E+00  0.249923165E+00
   H -0.295300695E+02 -0.146029311E+01 -0.826441801E+00
   H  0.284929125E+02 -0.159451001E+01 -0.232653331E+01
     4
 # iter = 57000  time[fs]=57.00000
   C -0.573205327E+01  0.180965006E+00  0.943573555E-01
   C  0.574963429E+01  0.104805213E+00  0.253831989E+00
   H -0.299332643E+02 -0.148009912E+01 -0.837613753E+00
   H  0.288781929E+02 -0.161581090E+01 -0.235801391E+01
     4
 # iter = 57500  time[fs]=57.50000
   C -0.581645657E+01  0.183730149E+00  0.956803573E-01
   C  0.583373445E+01  0.106533732E+00  0.257743490E+00
   H -0.303366601E+02 -0.149991693E+01 -0.848792383E+00
   H  0.292636731E+02 -0.163712442E+01 -0.238951338E+01
     4
 # iter = 58000  time[fs]=58.00000
   C -0.590095140E+01  0.186496993E+00  0.970028267E-01
   C  0.591792621E+01  0.108262534E+00  0.261657597E+00
   H -0.307402515E+02 -0.151974624E+01 -0.859977516E+00
   H  0.296493482E+02 -0.165845025E+01 -0.242103123E+01
     4
 # iter = 58500  time[fs]=58.50000
   C -0.598553514E+01  0.189265490E+00  0.983247791E-01
   C  0.600220696E+01  0.109991617E+00  0.265574243E+00
   H -0.311440336E+02 -0.153958676E+01 -0.871168988E+00
   H  0.300352129E+02 -0.167978807E+01 -0.245256699E+01
     4
 # iter = 59000  time[fs]=59.00000
   C -0.607020529E+01  0.192035599E+00  0.996462288E-01
   C  0.608657418E+01  0.111720974E+00  0.269493361E+00
   H -0.315480015E+02 -0.155943822E+01 -0.882366638E+00
   H  0.304212626E+02 -0.170113759E+01 -0.248412023E+01
     4
 # iter = 59500  time[fs]=59.50000
   C -0.615495943E+01  0.194807275E+00  0.100967190E+00
   C  0.617102546E+01  0.113450602E+00  0.273414891E+00
   H -0.319521505E+02 -0.157930034E+01 -0.893570312E+00
   H  0.308074926E+02 -0.172249852E+01 -0.251569051E+01
     4
 # iter = 60000  time[fs]=60.00000
   C -0.623979526E+01  0.197580479E+00  0.102287676E+00
   C  0.625555850E+01  0.115180496E+00  0.277338771E+00
   H -0.323564761E+02 -0.159917285E+01 -0.904779862E+00
   H  0.311938985E+02 -0.174387057E+01 -0.254727741E+01
     4
 # iter = 60500  time[fs]=60.50000
   C -0.632471057E+01  0.200355171E+00  0.103607700E+00
   C  0.634017108E+01  0.116910652E+00  0.281264943E+00
   H -0.327609740E+02 -0.161905551E+01 -0.915995146E+00
   H  0.315804759E+02 -0.176525348E+01 -0.257888054E+01
     4
 # iter = 61000  time[fs]=61.00000
   C -0.640970322E+01  0.203131315E+00  0.104927274E+00
   C  0.642486105E+01  0.118641066E+00  0.285193352E+00
   H -0.331656400E+02 -0.163894807E+01 -0.927216025E+00
   H  0.319672208E+02 -0.178664699E+01 -0.261049952E+01
     4
 # iter = 61500  time[fs]=61.50000
   C -0.649477116E+01  0.205908872E+00  0.106246410E+00
   C  0.650962637E+01  0.120371734E+00  0.289123942E+00
   H -0.335704700E+02 -0.165885031E+01 -0.938442367E+00
   H  0.323541290E+02 -0.180805085E+01 -0.264213396E+01
     4
 # iter = 62000  time[fs]=62.00000
   C -0.657991244E+01  0.208687809E+00  0.107565119E+00
   C  0.659446507E+01  0.122102651E+00  0.293056663E+00
   H -0.339754602E+02 -0.167876199E+01 -0.949674044E+00
   H  0.327411968E+02 -0.182946482E+01 -0.267378351E+01
     4
 # iter = 62500  time[fs]=62.50000
   C -0.666512514E+01  0.211468092E+00  0.108883414E+00
   C  0.667937525E+01  0.123833814E+00  0.296991463E+00
   H -0.343806068E+02 -0.169868289E+01 -0.960910931E+00
   H  0.331284205E+02 -0.185088866E+01 -0.270544783E+01
     4
 # iter = 63000  time[fs]=63.00000
   C -0.675040745E+01  0.214249689E+00  0.110201304E+00
   C  0.676435508E+01  0.125565219E+00  0.300928295E+00
   H -0.347859062E+02 -0.171861281E+01 -0.972152910E+00
   H  0.335157964E+02 -0.187232215E+01 -0.273712658E+01
     4
 # iter = 63500  time[fs]=63.50000
   C -0.683575762E+01  0.217032567E+00  0.111518799E+00
   C  0.684940281E+01  0.127296862E+00  0.304867111E+00
   H -0.351913549E+02 -0.173855154E+01 -0.983399864E+00
   H  0.339033210E+02 -0.189376507E+01 -0.276881943E+01
     4
 # iter = 64000  time[fs]=64.00000
   C -0.692117395E+01  0.219816698E+00  0.112835910E+00
   C  0.693451674E+01  0.129028740E+00  0.308807866E+00
   H -0.355969495E+02 -0.175849888E+01 -0.994651682E+00
   H  0.342909911E+02 -0.191521721E+01 -0.280052607E+01
     4
 # iter = 64500  time[fs]=64.50000
   C -0.700665480E+01  0.222602052E+00  0.114152647E+00
   C  0.701969523E+01  0.130760848E+00  0.312750517E+00
   H -0.360026867E+02 -0.177845465E+01 -0.100590826E+01
   H  0.346788033E+02 -0.193667837E+01 -0.283224620E+01
     4
 # iter = 65000  time[fs]=65.00000
   C -0.709219861E+01  0.225388600E+00  0.115469018E+00
   C  0.710493672E+01  0.132493183E+00  0.316695020E+00
   H -0.364085633E+02 -0.179841866E+01 -0.101716948E+01
   H  0.350667546E+02 -0.195814835E+01 -0.286397952E+01
     4
 # iter = 65500  time[fs]=65.50000
   C -0.717780387E+01  0.228176316E+00  0.116785032E+00
   C  0.719023969E+01  0.134225741E+00  0.320641335E+00
   H -0.368145764E+02 -0.181839073E+01 -0.102843526E+01
   H  0.354548419E+02 -0.197962696E+01 -0.289572576E+01
     4
 # iter = 66000  time[fs]=66.00000
   C -0.726346909E+01  0.230965173E+00  0.118100697E+00
   C  0.727560266E+01  0.135958519E+00  0.324589422E+00
   H -0.372207229E+02 -0.183837069E+01 -0.103970549E+01
   H  0.358430622E+02 -0.200111401E+01 -0.292748463E+01
     4
 # iter = 66500  time[fs]=66.50000
   C -0.734919288E+01  0.233755145E+00  0.119416023E+00
   C  0.736102422E+01  0.137691514E+00  0.328539243E+00
   H -0.376270000E+02 -0.185835837E+01 -0.105098007E+01
   H  0.362314128E+02 -0.202260933E+01 -0.295925588E+01
     4
 # iter = 67000  time[fs]=67.00000
   C -0.743497387E+01  0.236546209E+00  0.120731018E+00
   C  0.744650302E+01  0.139424722E+00  0.332490761E+00
   H -0.380334049E+02 -0.187835361E+01 -0.106225892E+01
   H  0.366198908E+02 -0.204411275E+01 -0.299103923E+01
     4
 # iter = 67500  time[fs]=67.50000
   C -0.752081074E+01  0.239338341E+00  0.122045688E+00
   C  0.753203771E+01  0.141158140E+00  0.336443939E+00
   H -0.384399350E+02 -0.189835625E+01 -0.107354195E+01
   H  0.370084935E+02 -0.206562409E+01 -0.302283445E+01
     4
 # iter = 68000  time[fs]=68.00000
   C -0.760670221E+01  0.242131517E+00  0.123360042E+00
   C  0.761762704E+01  0.142891765E+00  0.340398743E+00
   H -0.388465875E+02 -0.191836615E+01 -0.108482907E+01
   H  0.373972185E+02 -0.208714319E+01 -0.305464129E+01
     4
 # iter = 68500  time[fs]=68.50000
   C -0.769264705E+01  0.244925715E+00  0.124674086E+00
   C  0.770326976E+01  0.144625593E+00  0.344355140E+00
   H -0.392533600E+02 -0.193838315E+01 -0.109612020E+01
   H  0.377860631E+02 -0.210866989E+01 -0.308645951E+01
     4
 # iter = 69000  time[fs]=69.00000
   C -0.777864407E+01  0.247720913E+00  0.125987828E+00
   C  0.778896469E+01  0.146359622E+00  0.348313095E+00
   H -0.396602500E+02 -0.195840710E+01 -0.110741526E+01
   H  0.381750250E+02 -0.213020405E+01 -0.311828889E+01
     4
 # iter = 69500  time[fs]=69.50000
   C -0.786469212E+01  0.250517091E+00  0.127301274E+00
   C  0.787471067E+01  0.148093848E+00  0.352272578E+00
   H -0.400672552E+02 -0.197843789E+01 -0.111871416E+01
   H  0.385641018E+02 -0.215174552E+01 -0.315012921E+01
     4
 # iter = 70000  time[fs]=70.00000
   C -0.795079007E+01  0.253314229E+00  0.128614432E+00
   C  0.796050657E+01  0.149828269E+00  0.356233558E+00
   H -0.404743733E+02 -0.199847535E+01 -0.113001683E+01
   H  0.389532912E+02 -0.217329414E+01 -0.318198025E+01
     4
 # iter = 70500  time[fs]=70.50000
   C -0.803693686E+01  0.256112306E+00  0.129927307E+00
   C  0.804635133E+01  0.151562881E+00  0.360196005E+00
   H -0.408816019E+02 -0.201851938E+01 -0.114132321E+01
   H  0.393425910E+02 -0.219484978E+01 -0.321384180E+01
     4
 # iter = 71000  time[fs]=71.00000
   C -0.812313143E+01  0.258911304E+00  0.131239905E+00
   C  0.813224389E+01  0.153297682E+00  0.364159889E+00
   H -0.412889391E+02 -0.203856983E+01 -0.115263320E+01
   H  0.397319990E+02 -0.221641230E+01 -0.324571366E+01
     4
 # iter = 71500  time[fs]=71.50000
   C -0.820937278E+01  0.261711204E+00  0.132552233E+00
   C  0.821818324E+01  0.155032670E+00  0.368125183E+00
   H -0.416963825E+02 -0.205862659E+01 -0.116394676E+01
   H  0.401215131E+02 -0.223798158E+01 -0.327759563E+01
     4
 # iter = 72000  time[fs]=72.00000
   C -0.829565991E+01  0.264511988E+00  0.133864296E+00
   C  0.830416839E+01  0.156767840E+00  0.372091859E+00
   H -0.421039302E+02 -0.207868953E+01 -0.117526380E+01
   H  0.405111313E+02 -0.225955748E+01 -0.330948753E+01
     4
 # iter = 72500  time[fs]=72.50000
   C -0.838199187E+01  0.267313639E+00  0.135176100E+00
   C  0.839019839E+01  0.158503191E+00  0.376059890E+00
   H -0.425115803E+02 -0.209875855E+01 -0.118658426E+01
   H  0.409008516E+02 -0.228113988E+01 -0.334138916E+01
     4
 # iter = 73000  time[fs]=73.00000
   C -0.846836775E+01  0.270116140E+00  0.136487651E+00
   C  0.847627232E+01  0.160238720E+00  0.380029252E+00
   H -0.429193307E+02 -0.211883352E+01 -0.119790808E+01
   H  0.412906721E+02 -0.230272866E+01 -0.337330034E+01
     4
 # iter = 73500  time[fs]=73.50000
   C -0.855478664E+01  0.272919475E+00  0.137798953E+00
   C  0.856238928E+01  0.161974424E+00  0.383999918E+00
   H -0.433271795E+02 -0.213891434E+01 -0.120923520E+01
   H  0.416805909E+02 -0.232432369E+01 -0.340522091E+01
     4
 # iter = 74000  time[fs]=74.00000
   C -0.864124768E+01  0.275723627E+00  0.139110012E+00
   C  0.864854840E+01  0.163710301E+00  0.387971864E+00
   H -0.437351251E+02 -0.215900090E+01 -0.122056555E+01
   H  0.420706062E+02 -0.234592488E+01 -0.343715068E+01
     4
 # iter = 74500  time[fs]=74.50000
   C -0.872775002E+01  0.278528581E+00  0.140420832E+00
   C  0.873474883E+01  0.165446348E+00  0.391945067E+00
   H -0.441431655E+02 -0.217909309E+01 -0.123189908E+01
   H  0.424607163E+02 -0.236753209E+01 -0.346908950E+01
     4
 # iter = 75000  time[fs]=75.00000
   C -0.881429285E+01  0.281334322E+00  0.141731419E+00
   C  0.882098977E+01  0.167182564E+00  0.395919503E+00
   H -0.445512990E+02 -0.219919081E+01 -0.124323572E+01
   H  0.428509193E+02 -0.238914523E+01 -0.350103719E+01
     4
 # iter = 75500  time[fs]=75.50000
   C -0.890087537E+01  0.284140835E+00  0.143041777E+00
   C  0.890727040E+01  0.168918945E+00  0.399895150E+00
   H -0.449595241E+02 -0.221929397E+01 -0.125457543E+01
   H  0.432412137E+02 -0.241076419E+01 -0.353299361E+01
     4
 # iter = 76000  time[fs]=76.00000
   C -0.898749680E+01  0.286948106E+00  0.144351911E+00
   C  0.899358996E+01  0.170655489E+00  0.403871986E+00
   H -0.453678389E+02 -0.223940247E+01 -0.126591815E+01
   H  0.436315977E+02 -0.243238887E+01 -0.356495860E+01
     4
 # iter = 76500  time[fs]=76.50000
   C -0.907415640E+01  0.289756122E+00  0.145661825E+00
   C  0.907994770E+01  0.172392194E+00  0.407849990E+00
   H -0.457762420E+02 -0.225951622E+01 -0.127726382E+01
   H  0.440220699E+02 -0.245401916E+01 -0.359693200E+01
     4
 # iter = 77000  time[fs]=77.00000
   C -0.916085344E+01  0.292564868E+00  0.146971523E+00
   C  0.916634289E+01  0.174129057E+00  0.411829141E+00
   H -0.461847318E+02 -0.227963512E+01 -0.128861239E+01
   H  0.444126287E+02 -0.247565497E+01 -0.362891368E+01
     4
 # iter = 77500  time[fs]=77.50000
   C -0.924758721E+01  0.295374332E+00  0.148281010E+00
   C  0.925277481E+01  0.175866077E+00  0.415809418E+00
   H -0.465933067E+02 -0.229975908E+01 -0.129996382E+01
   H  0.448032725E+02 -0.249729620E+01 -0.366090349E+01
     4
 # iter = 78000  time[fs]=78.00000
   C -0.933435702E+01  0.298184501E+00  0.149590289E+00
   C  0.933924278E+01  0.177603252E+00  0.419790803E+00
   H -0.470019654E+02 -0.231988802E+01 -0.131131806E+01
   H  0.451939999E+02 -0.251894277E+01 -0.369290129E+01
     4
 # iter = 78500  time[fs]=78.50000
   C -0.942116220E+01  0.300995362E+00  0.150899365E+00
   C  0.942574613E+01  0.179340578E+00  0.423773276E+00
   H -0.474107062E+02 -0.234002186E+01 -0.132267505E+01
   H  0.455848095E+02 -0.254059457E+01 -0.372490695E+01
     4
 # iter = 79000  time[fs]=79.00000
   C -0.950800210E+01  0.303806903E+00  0.152208242E+00
   C  0.951228421E+01  0.181078055E+00  0.427756818E+00
   H -0.478195280E+02 -0.236016051E+01 -0.133403475E+01
   H  0.459756998E+02 -0.256225153E+01 -0.375692034E+01
     4
 # iter = 79500  time[fs]=79.50000
   C -0.959487608E+01  0.306619113E+00  0.153516922E+00
   C  0.959885637E+01  0.182815680E+00  0.431741412E+00
   H -0.482284292E+02 -0.238030389E+01 -0.134539711E+01
   H  0.463666696E+02 -0.258391356E+01 -0.378894133E+01
     4
 # iter = 80000  time[fs]=80.00000
   C -0.968178352E+01  0.309431980E+00  0.154825411E+00
   C  0.968546201E+01  0.184553451E+00  0.435727039E+00
   H -0.486374086E+02 -0.240045192E+01 -0.135676210E+01
   H  0.467577174E+02 -0.260558057E+01 -0.382096979E+01
