     4
 # iter = 25000  time[fs]=25.00000
   C -0.987127903E+00  0.133166795E-01 -0.356123738E-01
   C  0.979069085E+00  0.183050168E-01 -0.283214446E-02
   H -0.526333331E+01 -0.405661472E+00  0.260023891E+00
   H  0.522893342E+01  0.296957361E+00  0.394746219E+00
     4
 # iter = 25500  time[fs]=25.50000
   C -0.103156436E+01  0.145737538E-01 -0.374944773E-01
   C  0.101961924E+01  0.178795854E-01 -0.526797117E-02
   H -0.559595702E+01 -0.432782624E+00  0.275812090E+00
   H  0.554826114E+01  0.316516818E+00  0.415673695E+00
     4
 # iter = 26000  time[fs]=26.00000
   C -0.107891404E+01  0.158438779E-01 -0.394486333E-01
   C  0.106301998E+01  0.174472849E-01 -0.769563571E-02
   H -0.593369834E+01 -0.460337441E+00  0.291877098E+00
   H  0.587345821E+01  0.336435773E+00  0.437091045E+00
     4
 # iter = 26500  time[fs]=26.50000
   C -0.112894112E+01  0.171277049E-01 -0.414655685E-01
   C  0.110904221E+01  0.170066424E-01 -0.101170088E-01
   H -0.627598460E+01 -0.488277572E+00  0.308187226E+00
   H  0.620387100E+01  0.356675709E+00  0.458941129E+00
     4
 # iter = 27000  time[fs]=27.00000
   C -0.118142476E+01  0.184256716E-01 -0.435373379E-01
   C  0.115747092E+01  0.165565473E-01 -0.125338047E-01
   H -0.662232917E+01 -0.516562009E+00  0.324715774E+00
   H  0.653894321E+01  0.377203707E+00  0.481175875E+00
     4
 # iter = 27500  time[fs]=27.50000
   C -0.123616038E+01  0.197380110E-01 -0.456571397E-01
   C  0.120810653E+01  0.160962064E-01 -0.149475385E-01
   H -0.697231581E+01 -0.545155720E+00  0.341440063E+00
   H  0.687819842E+01  0.397991455E+00  0.503754527E+00
     4
 # iter = 28000  time[fs]=28.00000
   C -0.129295993E+01  0.210647790E-01 -0.478191505E-01
   C  0.126076534E+01  0.156250940E-01 -0.173595147E-01
   H -0.732558627E+01 -0.574028579E+00  0.358340674E+00
   H  0.722122617E+01  0.419014467E+00  0.526642271E+00
     4
 # iter = 28500  time[fs]=28.50000
   C -0.135165158E+01  0.224058838E-01 -0.500183796E-01
   C  0.131527930E+01  0.151429042E-01 -0.197708340E-01
   H -0.768183040E+01 -0.603154510E+00  0.375400870E+00
   H  0.756767089E+01  0.440251439E+00  0.549809169E+00
     4
 # iter = 29000  time[fs]=29.00000
   C -0.141207894E+01  0.237611169E-01 -0.522505438E-01
   C  0.137149536E+01  0.146495067E-01 -0.221824103E-01
   H -0.804077821E+01 -0.632510820E+00  0.392606129E+00
   H  0.791722283E+01  0.461683742E+00  0.573229307E+00
     4
 # iter = 29500  time[fs]=29.50000
   C -0.147410013E+01  0.251301799E-01 -0.545119591E-01
   C  0.142927451E+01  0.141449088E-01 -0.245949914E-01
   H -0.840219348E+01 -0.662077645E+00  0.409943777E+00
   H  0.826961088E+01  0.483295006E+00  0.596880128E+00
     4
 # iter = 30000  time[fs]=30.00000
   C -0.153758661E+01  0.265127085E-01 -0.567994492E-01
   C  0.148849081E+01  0.136292235E-01 -0.270091815E-01
   H -0.876586850E+01 -0.691837515E+00  0.427402694E+00
   H  0.862459653E+01  0.505070775E+00  0.620741884E+00
     4
 # iter = 30500  time[fs]=30.50000
   C -0.160242211E+01  0.279082925E-01 -0.591102677E-01
   C  0.154903024E+01  0.131026428E-01 -0.294254614E-01
   H -0.913161982E+01 -0.721774990E+00  0.444973073E+00
   H  0.898196908E+01  0.526998231E+00  0.644797198E+00
     4
 # iter = 31000  time[fs]=31.00000
   C -0.166850143E+01  0.293164914E-01 -0.614420328E-01
   C  0.161078964E+01  0.125654161E-01 -0.318442088E-01
   H -0.949928471E+01 -0.751876364E+00  0.462646224E+00
   H  0.934154158E+01  0.549065959E+00  0.669030709E+00
     4
 # iter = 31500  time[fs]=31.50000
   C -0.173572944E+01  0.307368477E-01 -0.637926724E-01
   C  0.167367564E+01  0.120178334E-01 -0.342657145E-01
   H -0.986871824E+01 -0.782129422E+00  0.480414415E+00
   H  0.970314747E+01  0.571263754E+00  0.693428775E+00
     4
 # iter = 32000  time[fs]=32.00000
   C -0.180402000E+01  0.321688964E-01 -0.661603776E-01
   C  0.173760376E+01  0.114602119E-01 -0.366901979E-01
   H -0.102397908E+02 -0.812523234E+00  0.498270737E+00
   H  0.100666378E+02  0.593582459E+00  0.717979229E+00
     4
 # iter = 32500  time[fs]=32.50000
   C -0.187329512E+01  0.336121729E-01 -0.685435644E-01
   C  0.180249743E+01  0.108928851E-01 -0.391178191E-01
   H -0.106123863E+02 -0.843047983E+00  0.516208992E+00
   H  0.104318790E+02  0.616013832E+00  0.742671181E+00
     4
 # iter = 33000  time[fs]=33.00000
   C -0.194348405E+01  0.350662185E-01 -0.709408406E-01
   C  0.186828722E+01  0.103161952E-01 -0.415486898E-01
   H -0.109863998E+02 -0.873694826E+00  0.534223603E+00
   H  0.107987507E+02  0.638550426E+00  0.767494844E+00
     4
 # iter = 33500  time[fs]=33.50000
   C -0.201452258E+01  0.365305847E-01 -0.733509789E-01
   C  0.193491009E+01  0.973048658E-02 -0.439828823E-01
   H -0.113617370E+02 -0.904455765E+00  0.552309533E+00
   H  0.111671443E+02  0.661185493E+00  0.792441396E+00
     4
 # iter = 34000  time[fs]=34.00000
   C -0.208635231E+01  0.380048361E-01 -0.757728937E-01
   C  0.200230872E+01  0.913610140E-02 -0.464204369E-01
   H -0.117383123E+02 -0.935323549E+00  0.570462218E+00
   H  0.115369612E+02  0.683912904E+00  0.817502856E+00
     4
 # iter = 34500  time[fs]=34.50000
   C -0.215892009E+01  0.394885521E-01 -0.782056214E-01
   C  0.207043092E+01  0.853337620E-02 -0.488613681E-01
   H -0.121160477E+02 -0.966291585E+00  0.588677511E+00
   H  0.119081120E+02  0.706727070E+00  0.842671982E+00
     4
 # iter = 35000  time[fs]=35.00000
   C -0.223217744E+01  0.409813285E-01 -0.806483044E-01
   C  0.213922911E+01  0.792263942E-02 -0.513056696E-01
   H -0.124948726E+02 -0.997353860E+00  0.606951634E+00
   H  0.122805152E+02  0.729622889E+00  0.867942185E+00
     4
 # iter = 35500  time[fs]=35.50000
   C -0.230608008E+01  0.424827782E-01 -0.831001766E-01
   C  0.220865981E+01  0.730420969E-02 -0.537533189E-01
   H -0.128747221E+02 -0.102850488E+01  0.625281135E+00
   H  0.126540964E+02  0.752595687E+00  0.893307453E+00
     4
 # iter = 36000  time[fs]=36.00000
   C -0.238058751E+01  0.439925312E-01 -0.855605520E-01
   C  0.227868326E+01  0.667839470E-02 -0.562042801E-01
   H -0.132555370E+02 -0.105973960E+01  0.643662852E+00
   H  0.130287874E+02  0.775641171E+00  0.918762288E+00
     4
 # iter = 36500  time[fs]=36.50000
   C -0.245566261E+01  0.455102350E-01 -0.880288143E-01
   C  0.234926304E+01  0.604549052E-02 -0.586585075E-01
   H -0.136372631E+02 -0.109105340E+01  0.662093883E+00
   H  0.134045258E+02  0.798755394E+00  0.944301645E+00
     4
 # iter = 37000  time[fs]=37.00000
   C -0.253127133E+01  0.470355536E-01 -0.905044084E-01
   C  0.242036571E+01  0.540578117E-02 -0.611159474E-01
   H -0.140198502E+02 -0.112244201E+01  0.680571557E+00
   H  0.137812539E+02  0.821934716E+00  0.969920891E+00
     4
 # iter = 37500  time[fs]=37.50000
   C -0.260738235E+01  0.485681680E-01 -0.929868328E-01
   C  0.249196053E+01  0.475953858E-02 -0.635765403E-01
   H -0.144032523E+02 -0.115390151E+01  0.699093412E+00
   H  0.141589188E+02  0.845175774E+00  0.995615756E+00
     4
 # iter = 38000  time[fs]=38.00000
   C -0.268396685E+01  0.501077749E-01 -0.954756335E-01
   C  0.256401921E+01  0.410702260E-02 -0.660402222E-01
   H -0.147874268E+02 -0.118542826E+01  0.717657172E+00
   H  0.145374716E+02  0.868475456E+00  0.102138230E+01
     4
 # iter = 38500  time[fs]=38.50000
   C -0.276099824E+01  0.516540866E-01 -0.979703981E-01
   C  0.263651566E+01  0.344848122E-02 -0.685069263E-01
   H -0.151723345E+02 -0.121701890E+01  0.736260731E+00
   H  0.149168669E+02  0.891830873E+00  0.104721688E+01
     4
 # iter = 39000  time[fs]=39.00000
   C -0.283845196E+01  0.532068299E-01 -0.100470751E+00
   C  0.270942579E+01  0.278415089E-02 -0.709765835E-01
   H -0.155579387E+02 -0.124867031E+01  0.754902135E+00
   H  0.152970628E+02  0.915239345E+00  0.107311611E+01
     4
 # iter = 39500  time[fs]=39.50000
   C -0.291630532E+01  0.547657457E-01 -0.102976351E+00
   C  0.278272731E+01  0.211425685E-02 -0.734491235E-01
   H -0.159442057E+02 -0.128037958E+01  0.773579570E+00
   H  0.156780202E+02  0.938698376E+00  0.109907686E+01
     4
 # iter = 40000  time[fs]=40.00000
   C -0.299453727E+01  0.563305882E-01 -0.105486884E+00
   C  0.285639957E+01  0.143901359E-02 -0.759244758E-01
   H -0.163311038E+02 -0.131214402E+01  0.792291345E+00
   H  0.160597030E+02  0.962205639E+00  0.112509622E+01
     4
 # iter = 40500  time[fs]=40.50000
   C -0.307312830E+01  0.579011243E-01 -0.108002064E+00
   C  0.293042344E+01  0.758625286E-03 -0.784025694E-01
   H -0.167186039E+02 -0.134396109E+01  0.811035887E+00
   H  0.164420773E+02  0.985758964E+00  0.115117147E+01
     4
 # iter = 41000  time[fs]=41.00000
   C -0.315206027E+01  0.594771327E-01 -0.110521627E+00
   C  0.300478112E+01  0.732862186E-04 -0.808833341E-01
   H -0.171066783E+02 -0.137582846E+01  0.829811725E+00
   H  0.168251117E+02  0.100935632E+01  0.117730008E+01
     4
 # iter = 41500  time[fs]=41.50000
   C -0.323131632E+01  0.610584037E-01 -0.113045330E+00
   C  0.307945607E+01 -0.616818720E-03 -0.833667004E-01
   H -0.174953017E+02 -0.140774392E+01  0.848617484E+00
   H  0.172087767E+02  0.103299581E+01  0.120347967E+01
     4
 # iter = 42000  time[fs]=42.00000
   C -0.331088073E+01  0.626447380E-01 -0.115572952E+00
   C  0.315443287E+01 -0.131151359E-02 -0.858525998E-01
   H -0.178844500E+02 -0.143970542E+01  0.867451879E+00
   H  0.175930448E+02  0.105667565E+01  0.122970804E+01
     4
 # iter = 42500  time[fs]=42.50000
   C -0.339073886E+01  0.642359464E-01 -0.118104285E+00
   C  0.322969716E+01 -0.201063093E-02 -0.883409651E-01
   H -0.182741007E+02 -0.147171100E+01  0.886313701E+00
   H  0.179778900E+02  0.108039416E+01  0.125598311E+01
     4
 # iter = 43000  time[fs]=43.00000
   C -0.347087702E+01  0.658318493E-01 -0.120639138E+00
   C  0.330523551E+01 -0.271401137E-02 -0.908317304E-01
   H -0.186642329E+02 -0.150375888E+01  0.905201818E+00
   H  0.183632883E+02  0.110414978E+01  0.128230293E+01
     4
 # iter = 43500  time[fs]=43.50000
   C -0.355128241E+01  0.674322760E-01 -0.123177335E+00
   C  0.338103537E+01 -0.342150314E-02 -0.933248316E-01
   H -0.190548267E+02 -0.153584732E+01  0.924115166E+00
   H  0.187492168E+02  0.112794103E+01  0.130866567E+01
     4
 # iter = 44000  time[fs]=44.00000
   C -0.363194304E+01  0.690370642E-01 -0.125718711E+00
   C  0.345708499E+01 -0.413296171E-02 -0.958202060E-01
   H -0.194458635E+02 -0.156797474E+01  0.943052741E+00
   H  0.191356542E+02  0.115176652E+01  0.133506961E+01
     4
 # iter = 44500  time[fs]=44.50000
   C -0.371284768E+01  0.706460596E-01 -0.128263114E+00
   C  0.353337336E+01 -0.484824940E-02 -0.983177924E-01
   H -0.198373259E+02 -0.160013962E+01  0.962013601E+00
   H  0.195225803E+02  0.117562492E+01  0.136151314E+01
     4
 # iter = 45000  time[fs]=45.00000
   C -0.379398581E+01  0.722591153E-01 -0.130810402E+00
   C  0.360989015E+01 -0.556723497E-02 -0.100817532E+00
   H -0.202291973E+02 -0.163234052E+01  0.980996854E+00
   H  0.199099761E+02  0.119951500E+01  0.138799471E+01
     4
 # iter = 45500  time[fs]=45.50000
   C -0.387534751E+01  0.738760915E-01 -0.133360441E+00
   C  0.368662566E+01 -0.628979332E-02 -0.103319366E+00
   H -0.206214621E+02 -0.166457611E+01  0.100000166E+01
   H  0.202978237E+02  0.122343559E+01  0.141451291E+01
     4
 # iter = 46000  time[fs]=46.00000
   C -0.395692348E+01  0.754968552E-01 -0.135913108E+00
   C  0.376357075E+01 -0.701580514E-02 -0.105823240E+00
   H -0.210141056E+02 -0.169684509E+01  0.101902722E+01
   H  0.206861061E+02  0.124738558E+01  0.144106635E+01
     4
 # iter = 46500  time[fs]=46.50000
   C -0.403870494E+01  0.771212794E-01 -0.138468287E+00
   C  0.384071684E+01 -0.774515655E-02 -0.108329099E+00
   H -0.214071139E+02 -0.172914628E+01  0.103807279E+01
   H  0.210748074E+02  0.127136391E+01  0.146765375E+01
     4
 # iter = 47000  time[fs]=47.00000
   C -0.412068366E+01  0.787492431E-01 -0.141025870E+00
   C  0.391805583E+01 -0.847773889E-02 -0.110836891E+00
   H -0.218004739E+02 -0.176147852E+01  0.105713765E+01
   H  0.214639123E+02  0.129536959E+01  0.149427390E+01
     4
 # iter = 47500  time[fs]=47.50000
   C -0.420285182E+01  0.803806310E-01 -0.143585755E+00
   C  0.399558010E+01 -0.921344835E-02 -0.113346564E+00
   H -0.221941729E+02 -0.179384073E+01  0.107622113E+01
   H  0.218534066E+02  0.131940168E+01  0.152092563E+01
     4
 # iter = 48000  time[fs]=48.00000
   C -0.428520208E+01  0.820153330E-01 -0.146147846E+00
   C  0.407328242E+01 -0.995218577E-02 -0.115858070E+00
   H -0.225881992E+02 -0.182623188E+01  0.109532258E+01
   H  0.222432766E+02  0.134345928E+01  0.154760786E+01
     4
 # iter = 48500  time[fs]=48.50000
   C -0.436772749E+01  0.836532438E-01 -0.148712054E+00
   C  0.415115599E+01 -0.106938564E-01 -0.118371361E+00
   H -0.229825416E+02 -0.185865100E+01  0.111444140E+01
   H  0.226335093E+02  0.136754154E+01  0.157431953E+01
     4
 # iter = 49000  time[fs]=49.00000
   C -0.445042146E+01  0.852942630E-01 -0.151278294E+00
   C  0.422919437E+01 -0.114383694E-01 -0.120886391E+00
   H -0.233771893E+02 -0.189109715E+01  0.113357701E+01
   H  0.230240926E+02  0.139164764E+01  0.160105967E+01
     4
 # iter = 49500  time[fs]=49.50000
   C -0.453327777E+01  0.869382945E-01 -0.153846486E+00
   C  0.430739146E+01 -0.121856383E-01 -0.123403115E+00
   H -0.237721322E+02 -0.192356946E+01  0.115272886E+01
   H  0.234150146E+02  0.141577681E+01  0.162782733E+01
     4
 # iter = 50000  time[fs]=50.00000
   C -0.461629053E+01  0.885852465E-01 -0.156416555E+00
   C  0.438574147E+01 -0.129355799E-01 -0.125921490E+00
   H -0.241673607E+02 -0.195606707E+01  0.117189642E+01
   H  0.238062644E+02  0.143992832E+01  0.165462161E+01
     4
 # iter = 50500  time[fs]=50.50000
   C -0.469945413E+01  0.902350311E-01 -0.158988431E+00
   C  0.446423894E+01 -0.136881147E-01 -0.128441474E+00
   H -0.245628655E+02 -0.198858919E+01  0.119107920E+01
   H  0.241978314E+02  0.146410146E+01  0.168144167E+01
     4
 # iter = 51000  time[fs]=51.00000
   C -0.478276328E+01  0.918875640E-01 -0.161562046E+00
   C  0.454287865E+01 -0.144431666E-01 -0.130963028E+00
   H -0.249586379E+02 -0.202113506E+01  0.121027671E+01
   H  0.245897053E+02  0.148829557E+01  0.170828669E+01
     4
 # iter = 51500  time[fs]=51.50000
   C -0.486621292E+01  0.935427648E-01 -0.164137337E+00
   C  0.462165568E+01 -0.152006626E-01 -0.133486111E+00
   H -0.253546695E+02 -0.205370394E+01  0.122948851E+01
   H  0.249818767E+02  0.151251001E+01  0.173515589E+01
     4
 # iter = 52000  time[fs]=52.00000
   C -0.494979826E+01  0.952005562E-01 -0.166714244E+00
   C  0.470056532E+01 -0.159605326E-01 -0.136010687E+00
   H -0.257509524E+02 -0.208629513E+01  0.124871417E+01
   H  0.253743364E+02  0.153674417E+01  0.176204855E+01
     4
 # iter = 52500  time[fs]=52.50000
   C -0.503351473E+01  0.968608641E-01 -0.169292710E+00
   C  0.477960310E+01 -0.167227094E-01 -0.138536719E+00
   H -0.261474789E+02 -0.211890798E+01  0.126795326E+01
   H  0.257670756E+02  0.156099747E+01  0.178896394E+01
     4
 # iter = 53000  time[fs]=53.00000
   C -0.511735801E+01  0.985236174E-01 -0.171872680E+00
   C  0.485876479E+01 -0.174871285E-01 -0.141064171E+00
   H -0.265442417E+02 -0.215154184E+01  0.128720539E+01
   H  0.261600860E+02  0.158526933E+01  0.181590140E+01
     4
 # iter = 53500  time[fs]=53.50000
   C -0.520132394E+01  0.100188748E+00 -0.174454105E+00
   C  0.493804632E+01 -0.182537281E-01 -0.143593010E+00
   H -0.269412339E+02 -0.218419610E+01  0.130647018E+01
   H  0.265533594E+02  0.160955925E+01  0.184286028E+01
     4
 # iter = 54000  time[fs]=54.00000
   C -0.528540859E+01  0.101856190E+00 -0.177036934E+00
   C  0.501744384E+01 -0.190224487E-01 -0.146123202E+00
   H -0.273384488E+02 -0.221687018E+01  0.132574727E+01
   H  0.269468884E+02  0.163386669E+01  0.186983996E+01
     4
 # iter = 54500  time[fs]=54.50000
   C -0.536960820E+01  0.103525882E+00 -0.179621123E+00
   C  0.509695366E+01 -0.197932330E-01 -0.148654715E+00
   H -0.277358801E+02 -0.224956353E+01  0.134503631E+01
   H  0.273406654E+02  0.165819117E+01  0.189683984E+01
     4
 # iter = 55000  time[fs]=55.00000
   C -0.545391917E+01  0.105197762E+00 -0.182206625E+00
   C  0.517657227E+01 -0.205660261E-01 -0.151187519E+00
   H -0.281335215E+02 -0.228227560E+01  0.136433697E+01
   H  0.277346836E+02  0.168253222E+01  0.192385937E+01
     4
 # iter = 55500  time[fs]=55.50000
   C -0.553833807E+01  0.106871772E+00 -0.184793400E+00
   C  0.525629631E+01 -0.213407752E-01 -0.153721583E+00
   H -0.285313673E+02 -0.231500588E+01  0.138364892E+01
   H  0.281289361E+02  0.170688939E+01  0.195089800E+01
     4
 # iter = 56000  time[fs]=56.00000
   C -0.562286163E+01  0.108547857E+00 -0.187381408E+00
   C  0.533612258E+01 -0.221174293E-01 -0.156256879E+00
   H -0.289294119E+02 -0.234775388E+01  0.140297187E+01
   H  0.285234166E+02  0.173126224E+01  0.197795520E+01
     4
 # iter = 56500  time[fs]=56.50000
   C -0.570748670E+01  0.110225962E+00 -0.189970610E+00
   C  0.541604800E+01 -0.228959394E-01 -0.158793377E+00
   H -0.293276498E+02 -0.238051913E+01  0.142230551E+01
   H  0.289181188E+02  0.175565036E+01  0.200503048E+01
     4
 # iter = 57000  time[fs]=57.00000
   C -0.579221030E+01  0.111906037E+00 -0.192560970E+00
   C  0.549606963E+01 -0.236762584E-01 -0.161331052E+00
   H -0.297260758E+02 -0.241330116E+01  0.144164957E+01
   H  0.293130367E+02  0.178005335E+01  0.203212336E+01
     4
 # iter = 57500  time[fs]=57.50000
   C -0.587702953E+01  0.113588030E+00 -0.195152453E+00
   C  0.557618468E+01 -0.244583407E-01 -0.163869877E+00
   H -0.301246850E+02 -0.244609955E+01  0.146100377E+01
   H  0.297081646E+02  0.180447082E+01  0.205923336E+01
     4
 # iter = 58000  time[fs]=58.00000
   C -0.596194166E+01  0.115271895E+00 -0.197745026E+00
   C  0.565639043E+01 -0.252421427E-01 -0.166409826E+00
   H -0.305234726E+02 -0.247891387E+01  0.148036785E+01
   H  0.301034971E+02  0.182890241E+01  0.208636005E+01
     4
 # iter = 58500  time[fs]=58.50000
   C -0.604694405E+01  0.116957584E+00 -0.200338656E+00
   C  0.573668432E+01 -0.260276220E-01 -0.168950875E+00
   H -0.309224340E+02 -0.251174372E+01  0.149974156E+01
   H  0.304990289E+02  0.185334776E+01  0.211350300E+01
     4
 # iter = 59000  time[fs]=59.00000
   C -0.613203416E+01  0.118645053E+00 -0.202933314E+00
   C  0.581706387E+01 -0.268147378E-01 -0.171492999E+00
   H -0.313215648E+02 -0.254458870E+01  0.151912466E+01
   H  0.308947548E+02  0.187780652E+01  0.214066180E+01
     4
 # iter = 59500  time[fs]=59.50000
   C -0.621720956E+01  0.120334260E+00 -0.205528970E+00
   C  0.589752670E+01 -0.276034509E-01 -0.174036176E+00
   H -0.317208607E+02 -0.257744845E+01  0.153851691E+01
   H  0.312906700E+02  0.190227837E+01  0.216783605E+01
     4
 # iter = 60000  time[fs]=60.00000
   C -0.630246792E+01  0.122025162E+00 -0.208125596E+00
   C  0.597807053E+01 -0.283937232E-01 -0.176580382E+00
   H -0.321203176E+02 -0.261032260E+01  0.155791809E+01
   H  0.316867698E+02  0.192676298E+01  0.219502538E+01
     4
 # iter = 60500  time[fs]=60.50000
   C -0.638780701E+01  0.123717719E+00 -0.210723165E+00
   C  0.605869316E+01 -0.291855182E-01 -0.179125596E+00
   H -0.325199315E+02 -0.264321080E+01  0.157732798E+01
   H  0.320830496E+02  0.195126005E+01  0.222222940E+01
     4
 # iter = 61000  time[fs]=61.00000
   C -0.647322468E+01  0.125411893E+00 -0.213321652E+00
   C  0.613939251E+01 -0.299788004E-01 -0.181671797E+00
   H -0.329196987E+02 -0.267611271E+01  0.159674637E+01
   H  0.324795050E+02  0.197576929E+01  0.224944778E+01
     4
 # iter = 61500  time[fs]=61.50000
   C -0.655871884E+01  0.127107646E+00 -0.215921033E+00
   C  0.622016653E+01 -0.307735355E-01 -0.184218964E+00
   H -0.333196154E+02 -0.270902802E+01  0.161617307E+01
   H  0.328761318E+02  0.200029040E+01  0.227668016E+01
     4
 # iter = 62000  time[fs]=62.00000
   C -0.664428752E+01  0.128804942E+00 -0.218521282E+00
   C  0.630101329E+01 -0.315696905E-01 -0.186767078E+00
   H -0.337196782E+02 -0.274195640E+01  0.163560787E+01
   H  0.332729260E+02  0.202482311E+01  0.230392622E+01
     4
 # iter = 62500  time[fs]=62.50000
   C -0.672992880E+01  0.130503745E+00 -0.221122377E+00
   C  0.638193092E+01 -0.323672334E-01 -0.189316118E+00
   H -0.341198835E+02 -0.277489757E+01  0.165505060E+01
   H  0.336698836E+02  0.204936717E+01  0.233118564E+01
     4
 # iter = 63000  time[fs]=63.00000
   C -0.681564083E+01  0.132204023E+00 -0.223724298E+00
   C  0.646291760E+01 -0.331661332E-01 -0.191866066E+00
   H -0.345202282E+02 -0.280785121E+01  0.167450106E+01
   H  0.340670008E+02  0.207392229E+01  0.235845810E+01
     4
 # iter = 63500  time[fs]=63.50000
   C -0.690142183E+01  0.133905743E+00 -0.226327021E+00
   C  0.654397160E+01 -0.339663600E-01 -0.194416904E+00
   H -0.349207089E+02 -0.284081706E+01  0.169395909E+01
   H  0.344642739E+02  0.209848825E+01  0.238574333E+01
     4
 # iter = 64000  time[fs]=64.00000
   C -0.698727010E+01  0.135608872E+00 -0.228930528E+00
   C  0.662509126E+01 -0.347678848E-01 -0.196968614E+00
   H -0.353213226E+02 -0.287379484E+01  0.171342451E+01
   H  0.348616995E+02  0.212306480E+01  0.241304101E+01
     4
 # iter = 64500  time[fs]=64.50000
   C -0.707318398E+01  0.137313380E+00 -0.231534798E+00
   C  0.670627494E+01 -0.355706795E-01 -0.199521178E+00
   H -0.357220664E+02 -0.290678429E+01  0.173289716E+01
   H  0.352592741E+02  0.214765170E+01  0.244035089E+01
     4
 # iter = 65000  time[fs]=65.00000
   C -0.715916189E+01  0.139019238E+00 -0.234139813E+00
   C  0.678752111E+01 -0.363747169E-01 -0.202074581E+00
   H -0.361229373E+02 -0.293978515E+01  0.175237689E+01
   H  0.356569943E+02  0.217224874E+01  0.246767269E+01
     4
 # iter = 65500  time[fs]=65.50000
   C -0.724520229E+01  0.140726417E+00 -0.236745555E+00
   C  0.686882825E+01 -0.371799708E-01 -0.204628805E+00
   H -0.365239326E+02 -0.297279717E+01  0.177186353E+01
   H  0.360548570E+02  0.219685568E+01  0.249500615E+01
     4
 # iter = 66000  time[fs]=66.00000
   C -0.733130368E+01  0.142434888E+00 -0.239352006E+00
   C  0.695019492E+01 -0.379864155E-01 -0.207183835E+00
   H -0.369250496E+02 -0.300582012E+01  0.179135695E+01
   H  0.364528591E+02  0.222147233E+01  0.252235102E+01
     4
 # iter = 66500  time[fs]=66.50000
   C -0.741746466E+01  0.144144625E+00 -0.241959149E+00
   C  0.703161973E+01 -0.387940263E-01 -0.209739656E+00
   H -0.373262856E+02 -0.303885376E+01  0.181085699E+01
   H  0.368509976E+02  0.224609848E+01  0.254970705E+01
     4
 # iter = 67000  time[fs]=67.00000
   C -0.750368382E+01  0.145855602E+00 -0.244566968E+00
   C  0.711310131E+01 -0.396027793E-01 -0.212296252E+00
   H -0.377276381E+02 -0.307189787E+01  0.183036352E+01
   H  0.372492695E+02  0.227073392E+01  0.257707402E+01
     4
 # iter = 67500  time[fs]=67.50000
   C -0.758995984E+01  0.147567793E+00 -0.247175448E+00
   C  0.719463836E+01 -0.404126510E-01 -0.214853608E+00
   H -0.381291047E+02 -0.310495223E+01  0.184987640E+01
   H  0.376476721E+02  0.229537848E+01  0.260445168E+01
     4
 # iter = 68000  time[fs]=68.00000
   C -0.767629142E+01  0.149281173E+00 -0.249784572E+00
   C  0.727622962E+01 -0.412236190E-01 -0.217411712E+00
   H -0.385306829E+02 -0.313801664E+01  0.186939550E+01
   H  0.380462026E+02  0.232003195E+01  0.263183983E+01
     4
 # iter = 68500  time[fs]=68.50000
   C -0.776267732E+01  0.150995720E+00 -0.252394327E+00
   C  0.735787388E+01 -0.420356613E-01 -0.219970548E+00
   H -0.389323706E+02 -0.317109088E+01  0.188892070E+01
   H  0.384448584E+02  0.234469417E+01  0.265923824E+01
     4
 # iter = 69000  time[fs]=69.00000
   C -0.784911633E+01  0.152711408E+00 -0.255004699E+00
   C  0.743956995E+01 -0.428487567E-01 -0.222530104E+00
   H -0.393341654E+02 -0.320417476E+01  0.190845187E+01
   H  0.388436369E+02  0.236936495E+01  0.268664672E+01
     4
 # iter = 69500  time[fs]=69.50000
   C -0.793560727E+01  0.154428217E+00 -0.257615673E+00
   C  0.752131668E+01 -0.436628843E-01 -0.225090367E+00
   H -0.397360652E+02 -0.323726809E+01  0.192798890E+01
   H  0.392425357E+02  0.239404412E+01  0.271406504E+01
     4
 # iter = 70000  time[fs]=70.00000
   C -0.802214903E+01  0.156146124E+00 -0.260227237E+00
   C  0.760311298E+01 -0.444780243E-01 -0.227651323E+00
   H -0.401380679E+02 -0.327037069E+01  0.194753166E+01
   H  0.396415523E+02  0.241873153E+01  0.274149303E+01
     4
 # iter = 70500  time[fs]=70.50000
   C -0.810874049E+01  0.157865108E+00 -0.262839377E+00
   C  0.768495777E+01 -0.452941570E-01 -0.230212960E+00
   H -0.405401715E+02 -0.330348236E+01  0.196708005E+01
   H  0.400406843E+02  0.244342701E+01  0.276893048E+01
     4
 # iter = 71000  time[fs]=71.00000
   C -0.819538061E+01  0.159585148E+00 -0.265452081E+00
   C  0.776685001E+01 -0.461112636E-01 -0.232775267E+00
   H -0.409423739E+02 -0.333660293E+01  0.198663395E+01
   H  0.404399296E+02  0.246813040E+01  0.279637722E+01
     4
 # iter = 71500  time[fs]=71.50000
   C -0.828206835E+01  0.161306224E+00 -0.268065338E+00
   C  0.784878871E+01 -0.469293255E-01 -0.235338231E+00
   H -0.413446733E+02 -0.336973224E+01  0.200619326E+01
   H  0.408392860E+02  0.249284156E+01  0.282383307E+01
     4
 # iter = 72000  time[fs]=72.00000
   C -0.836880272E+01  0.163028317E+00 -0.270679135E+00
   C  0.793077289E+01 -0.477483249E-01 -0.237901841E+00
   H -0.417470678E+02 -0.340287011E+01  0.202575788E+01
   H  0.412387511E+02  0.251756034E+01  0.285129785E+01
     4
 # iter = 72500  time[fs]=72.50000
   C -0.845558274E+01  0.164751407E+00 -0.273293461E+00
   C  0.801280159E+01 -0.485682443E-01 -0.240466086E+00
   H -0.421495555E+02 -0.343601639E+01  0.204532771E+01
   H  0.416383231E+02  0.254228658E+01  0.287877139E+01
     4
 # iter = 73000  time[fs]=73.00000
   C -0.854240749E+01  0.166475477E+00 -0.275908306E+00
   C  0.809487392E+01 -0.493890668E-01 -0.243030954E+00
   H -0.425521348E+02 -0.346917092E+01  0.206490264E+01
   H  0.420379999E+02  0.256702017E+01  0.290625352E+01
     4
 # iter = 73500  time[fs]=73.50000
   C -0.862927606E+01  0.168200507E+00 -0.278523659E+00
   C  0.817698898E+01 -0.502107759E-01 -0.245596436E+00
   H -0.429548038E+02 -0.350233355E+01  0.208448259E+01
   H  0.424377794E+02  0.259176095E+01  0.293374410E+01
     4
 # iter = 74000  time[fs]=74.00000
   C -0.871618756E+01  0.169926482E+00 -0.281139509E+00
   C  0.825914591E+01 -0.510333555E-01 -0.248162521E+00
   H -0.433575610E+02 -0.353550412E+01  0.210406746E+01
   H  0.428376598E+02  0.261650881E+01  0.296124296E+01
     4
 # iter = 74500  time[fs]=74.50000
   C -0.880314113E+01  0.171653383E+00 -0.283755846E+00
   C  0.834134387E+01 -0.518567900E-01 -0.250729198E+00
   H -0.437604047E+02 -0.356868250E+01  0.212365717E+01
   H  0.432376393E+02  0.264126360E+01  0.298874994E+01
     4
 # iter = 75000  time[fs]=75.00000
   C -0.889013596E+01  0.173381195E+00 -0.286372662E+00
   C  0.842358206E+01 -0.526810642E-01 -0.253296459E+00
   H -0.441633333E+02 -0.360186854E+01  0.214325162E+01
   H  0.436377160E+02  0.266602522E+01  0.301626491E+01
     4
 # iter = 75500  time[fs]=75.50000
   C -0.897717122E+01  0.175109900E+00 -0.288989946E+00
   C  0.850585968E+01 -0.535061632E-01 -0.255864292E+00
   H -0.445663453E+02 -0.363506211E+01  0.216285073E+01
   H  0.440378881E+02  0.269079352E+01  0.304378772E+01
     4
 # iter = 76000  time[fs]=76.00000
   C -0.906424613E+01  0.176839484E+00 -0.291607689E+00
   C  0.858817597E+01 -0.543320727E-01 -0.258432690E+00
   H -0.449694393E+02 -0.366826307E+01  0.218245443E+01
   H  0.444381540E+02  0.271556841E+01  0.307131824E+01
     4
 # iter = 76500  time[fs]=76.50000
   C -0.915135994E+01  0.178569931E+00 -0.294225883E+00
   C  0.867053018E+01 -0.551587785E-01 -0.261001642E+00
   H -0.453726136E+02 -0.370147129E+01  0.220206262E+01
   H  0.448385120E+02  0.274034976E+01  0.309885631E+01
     4
 # iter = 77000  time[fs]=77.00000
   C -0.923851190E+01  0.180301227E+00 -0.296844519E+00
   C  0.875292159E+01 -0.559862670E-01 -0.263571140E+00
   H -0.457758671E+02 -0.373468665E+01  0.222167523E+01
   H  0.452389604E+02  0.276513746E+01  0.312640182E+01
     4
 # iter = 77500  time[fs]=77.50000
   C -0.932570130E+01  0.182033356E+00 -0.299463589E+00
   C  0.883534950E+01 -0.568145247E-01 -0.266141175E+00
   H -0.461791981E+02 -0.376790903E+01  0.224129218E+01
   H  0.456394977E+02  0.278993140E+01  0.315395463E+01
     4
 # iter = 78000  time[fs]=78.00000
   C -0.941292743E+01  0.183766304E+00 -0.302083084E+00
   C  0.891781322E+01 -0.576435387E-01 -0.268711738E+00
   H -0.465826055E+02 -0.380113830E+01  0.226091341E+01
   H  0.460401223E+02  0.281473148E+01  0.318151462E+01
     4
 # iter = 78500  time[fs]=78.50000
   C -0.950018961E+01  0.185500058E+00 -0.304702997E+00
   C  0.900031210E+01 -0.584732963E-01 -0.271282822E+00
   H -0.469860879E+02 -0.383437435E+01  0.228053883E+01
   H  0.464408328E+02  0.283953759E+01  0.320908167E+01
     4
 # iter = 79000  time[fs]=79.00000
   C -0.958748718E+01  0.187234604E+00 -0.307323319E+00
   C  0.908284547E+01 -0.593037850E-01 -0.273854417E+00
   H -0.473896440E+02 -0.386761706E+01  0.230016837E+01
   H  0.468416277E+02  0.286434964E+01  0.323665565E+01
     4
 # iter = 79500  time[fs]=79.50000
   C -0.967481949E+01  0.188969929E+00 -0.309944044E+00
   C  0.916541273E+01 -0.601349928E-01 -0.276426517E+00
   H -0.477932726E+02 -0.390086633E+01  0.231980198E+01
   H  0.472425054E+02  0.288916751E+01  0.326423645E+01
     4
 # iter = 80000  time[fs]=80.00000
   C -0.976218592E+01  0.190706021E+00 -0.312565165E+00
   C  0.924801324E+01 -0.609669078E-01 -0.278999112E+00
   H -0.481969725E+02 -0.393412204E+01  0.233943957E+01
   H  0.476434648E+02  0.291399113E+01  0.329182396E+01
