     4
 # iter = 25000  time[fs]=25.00000
   C -0.973075688E+00 -0.171295395E-01 -0.137219980E-01
   C  0.101631257E+01 -0.574359989E-02  0.225455554E-01
   H -0.520649317E+01  0.222612249E+00 -0.341530543E+00
   H  0.536860162E+01 -0.499978748E+00  0.555233072E+00
     4
 # iter = 25500  time[fs]=25.50000
   C -0.101793726E+01 -0.178410101E-01 -0.132103420E-01
   C  0.106153962E+01 -0.427054762E-02  0.206423236E-01
   H -0.554350919E+01  0.239066185E+00 -0.365405335E+00
   H  0.568700963E+01 -0.530815667E+00  0.586327111E+00
     4
 # iter = 26000  time[fs]=26.00000
   C -0.106579597E+01 -0.185793946E-01 -0.127394220E-01
   C  0.110977517E+01 -0.274872618E-02  0.187630867E-01
   H -0.588605764E+01  0.255801406E+00 -0.389677563E+00
   H  0.601081366E+01 -0.562196134E+00  0.618019480E+00
     4
 # iter = 26500  time[fs]=26.50000
   C -0.111640060E+01 -0.193441682E-01 -0.123009441E-01
   C  0.116076328E+01 -0.118077059E-02  0.169012271E-01
   H -0.623350210E+01  0.272786054E+00 -0.414302331E+00
   H  0.633943416E+01 -0.594062968E+00  0.650245166E+00
     4
 # iter = 27000  time[fs]=27.00000
   C -0.116951706E+01 -0.201346207E-01 -0.118879914E-01
   C  0.121426635E+01  0.430773503E-03  0.150512748E-01
   H -0.658530452E+01  0.289993198E+00 -0.439241622E+00
   H  0.667237491E+01 -0.626367215E+00  0.682948789E+00
     4
 # iter = 27500  time[fs]=27.50000
   C -0.122492948E+01 -0.209498995E-01 -0.114948489E-01
   C  0.127006595E+01  0.208344968E-02  0.132087713E-01
   H -0.694100679E+01  0.307399903E+00 -0.464463013E+00
   H  0.700920868E+01 -0.659066691E+00  0.716082850E+00
     4
 # iter = 28000  time[fs]=28.00000
   C -0.128244039E+01 -0.217890520E-01 -0.111168283E-01
   C  0.132796273E+01  0.377489750E-02  0.113701247E-01
   H -0.730021627E+01  0.324986494E+00 -0.489938672E+00
   H  0.734956547E+01 -0.692124829E+00  0.749606358E+00
     4
 # iter = 28500  time[fs]=28.50000
   C -0.134187017E+01 -0.226510629E-01 -0.107501051E-01
   C  0.138777568E+01  0.550286069E-02  0.953247274E-02
   H -0.766259434E+01  0.342735987E+00 -0.515644551E+00
   H  0.769312326E+01 -0.725509753E+00  0.783483721E+00
     4
 # iter = 29000  time[fs]=29.00000
   C -0.140305608E+01 -0.235348853E-01 -0.103915740E-01
   C  0.144934106E+01  0.726519412E-02  0.769355783E-02
   H -0.802784725E+01  0.360633628E+00 -0.541559757E+00
   H  0.803960029E+01 -0.759193529E+00  0.817683870E+00
     4
 # iter = 29500  time[fs]=29.50000
   C -0.146585102E+01 -0.244394658E-01 -0.100387227E-01
   C  0.151251105E+01  0.905986827E-02  0.585161876E-02
   H -0.839571880E+01  0.378666530E+00 -0.567666033E+00
   H  0.838874892E+01 -0.793151558E+00  0.852179537E+00
     4
 # iter = 30000  time[fs]=30.00000
   C -0.153012229E+01 -0.253637630E-01 -0.968952638E-02
   C  0.157715246E+01  0.108849711E-01  0.400529813E-02
   H -0.876598438E+01  0.396823375E+00 -0.593947346E+00
   H  0.874035052E+01 -0.827362074E+00  0.886946679E+00
     4
 # iter = 30500  time[fs]=30.50000
   C -0.159575022E+01 -0.263067610E-01 -0.934235818E-02
   C  0.164314529E+01  0.127387075E-01  0.215356502E-02
   H -0.913844612E+01  0.415094178E+00 -0.620389548E+00
   H  0.909421121E+01 -0.861805740E+00  0.921963997E+00
     4
 # iter = 31000  time[fs]=31.00000
   C -0.166262693E+01 -0.272674794E-01 -0.899591587E-02
   C  0.171038144E+01  0.146193970E-01  0.295651071E-03
   H -0.951292894E+01  0.433470085E+00 -0.646980097E+00
   H  0.945015843E+01 -0.896465304E+00  0.957212543E+00
     4
 # iter = 31500  time[fs]=31.50000
   C -0.173065513E+01 -0.282449790E-01 -0.864916130E-02
   C  0.177876351E+01  0.165254696E-01 -0.156900190E-02
   H -0.988927725E+01  0.451943217E+00 -0.673707829E+00
   H  0.980803797E+01 -0.931325314E+00  0.992675394E+00
     4
 # iter = 32000  time[fs]=32.00000
   C -0.179974698E+01 -0.292383660E-01 -0.830127093E-02
   C  0.184820363E+01  0.184554613E-01 -0.344078449E-02
   H -0.102673522E+02  0.470506527E+00 -0.700562768E+00
   H  0.101677116E+02 -0.966371884E+00  0.102833738E+01
     4
 # iter = 32500  time[fs]=32.50000
   C -0.186982315E+01 -0.302467932E-01 -0.795159546E-02
   C  0.191862245E+01  0.204080080E-01 -0.531995425E-02
   H -0.106470296E+02  0.489153697E+00 -0.727535963E+00
   H  0.105290548E+02 -0.100159249E+01  0.106418484E+01
     4
 # iter = 33000  time[fs]=33.00000
   C -0.194081185E+01 -0.312694609E-01 -0.759962705E-02
   C  0.198994825E+01  0.223818401E-01 -0.720666351E-02
   H -0.110281977E+02  0.507879036E+00 -0.754619359E+00
   H  0.108919554E+02 -0.103697581E+01  0.110020547E+01
     4
 # iter = 33500  time[fs]=33.50000
   C -0.201264805E+01 -0.323056158E-01 -0.724497262E-02
   C  0.206211607E+01  0.243757761E-01 -0.910098187E-02
   H -0.114107557E+02  0.526677403E+00 -0.781805679E+00
   H  0.112563116E+02 -0.107251155E+01  0.113638809E+01
     4
 # iter = 34000  time[fs]=34.00000
   C -0.208527273E+01 -0.333545502E-01 -0.688733215E-02
   C  0.213506700E+01  0.263887167E-01 -0.110029142E-01
   H -0.117946126E+02  0.545544140E+00 -0.809088333E+00
   H  0.116220313E+02 -0.110819036E+01  0.117272258E+01
     4
 # iter = 34500  time[fs]=34.50000
   C -0.215863226E+01 -0.344155997E-01 -0.652648106E-02
   C  0.220874752E+01  0.284196391E-01 -0.129124149E-01
   H -0.121796857E+02  0.564475014E+00 -0.836461330E+00
   H  0.119890302E+02 -0.114400371E+01  0.120919971E+01
     4
 # iter = 35000  time[fs]=35.00000
   C -0.223267782E+01 -0.354881415E-01 -0.616225593E-02
   C  0.228310893E+01  0.304675914E-01 -0.148294001E-01
   H -0.125658998E+02  0.583466167E+00 -0.863919214E+00
   H  0.123572319E+02 -0.117994380E+01  0.124581106E+01
     4
 # iter = 35500  time[fs]=35.50000
   C -0.230736489E+01 -0.365715919E-01 -0.579454276E-02
   C  0.235810685E+01  0.325316871E-01 -0.167537561E-01
   H -0.129531864E+02  0.602514074E+00 -0.891457000E+00
   H  0.127265659E+02 -0.121600345E+01  0.128254889E+01
     4
 # iter = 36000  time[fs]=36.00000
   C -0.238265279E+01 -0.376654041E-01 -0.542326757E-02
   C  0.243370074E+01  0.346111003E-01 -0.186853475E-01
   H -0.133414827E+02  0.621615503E+00 -0.919070122E+00
   H  0.130969681E+02 -0.125217609E+01  0.131940615E+01
     4
 # iter = 36500  time[fs]=36.50000
   C -0.245850429E+01 -0.387690661E-01 -0.504838861E-02
   C  0.250985351E+01  0.367050611E-01 -0.206240226E-01
   H -0.137307314E+02  0.640767491E+00 -0.946754388E+00
   H  0.134683792E+02 -0.128845567E+01  0.135637630E+01
     4
 # iter = 37000  time[fs]=37.00000
   C -0.253488528E+01 -0.398820983E-01 -0.466989004E-02
   C  0.258653119E+01  0.388128510E-01 -0.225696185E-01
   H -0.141208794E+02  0.659967308E+00 -0.974505943E+00
   H  0.138407448E+02 -0.132483658E+01  0.139345337E+01
     4
 # iter = 37500  time[fs]=37.50000
   C -0.261176444E+01 -0.410040511E-01 -0.428777682E-02
   C  0.266370259E+01  0.409337994E-01 -0.245219646E-01
   H -0.145118784E+02  0.679212437E+00 -0.100232123E+01
   H  0.142140145E+02 -0.136131366E+01  0.143063179E+01
     4
 # iter = 38000  time[fs]=38.00000
   C -0.268911294E+01 -0.421345032E-01 -0.390207047E-02
   C  0.274133902E+01  0.430672794E-01 -0.264808858E-01
   H -0.149036833E+02  0.698500552E+00 -0.103019697E+01
   H  0.145881419E+02 -0.139788212E+01  0.146790644E+01
     4
 # iter = 38500  time[fs]=38.50000
   C -0.276690424E+01 -0.432730597E-01 -0.351280563E-02
   C  0.281941409E+01  0.452127048E-01 -0.284462046E-01
   H -0.152962527E+02  0.717829500E+00 -0.105813011E+01
   H  0.149630838E+02 -0.143453749E+01  0.150527257E+01
     4
 # iter = 39000  time[fs]=39.00000
   C -0.284511383E+01 -0.444193499E-01 -0.312002726E-02
   C  0.289790341E+01  0.473695265E-01 -0.304177429E-01
   H -0.156895482E+02  0.737197283E+00 -0.108611785E+01
   H  0.153388003E+02 -0.147127566E+01  0.154272576E+01
     4
 # iter = 39500  time[fs]=39.50000
   C -0.292371909E+01 -0.455730256E-01 -0.272378830E-02
   C  0.297678449E+01  0.495372304E-01 -0.323953237E-01
   H -0.160835342E+02  0.756602044E+00 -0.111415755E+01
   H  0.157152542E+02 -0.150809276E+01  0.158026190E+01
     4
 # iter = 40000  time[fs]=40.00000
   C -0.300269905E+01 -0.467337601E-01 -0.232414782E-02
   C  0.305603648E+01  0.517153341E-01 -0.343787722E-01
   H -0.164781775E+02  0.776042056E+00 -0.114224678E+01
   H  0.160924109E+02 -0.154498520E+01  0.161787717E+01
     4
 # iter = 40500  time[fs]=40.50000
   C -0.308203429E+01 -0.479012460E-01 -0.192116949E-02
   C  0.313564007E+01  0.539033848E-01 -0.363679163E-01
   H -0.168734473E+02  0.795515707E+00 -0.117038327E+01
   H  0.164702381E+02 -0.158194964E+01  0.165556798E+01
     4
 # iter = 41000  time[fs]=41.00000
   C -0.316170676E+01 -0.490751940E-01 -0.151492026E-02
   C  0.321557736E+01  0.561009569E-01 -0.383625876E-01
   H -0.172693149E+02  0.815021494E+00 -0.119856490E+01
   H  0.168487057E+02 -0.161898292E+01  0.169333101E+01
     4
 # iter = 41500  time[fs]=41.50000
   C -0.324169971E+01 -0.502553319E-01 -0.110546939E-02
   C  0.329583168E+01  0.583076503E-01 -0.403626216E-01
   H -0.176657534E+02  0.834558009E+00 -0.122678968E+01
   H  0.172277855E+02 -0.165608210E+01  0.173116313E+01
     4
 # iter = 42000  time[fs]=42.00000
   C -0.332199751E+01 -0.514414032E-01 -0.692887587E-03
   C  0.337638752E+01  0.605230882E-01 -0.423678581E-01
   H -0.180627378E+02  0.854123936E+00 -0.125505575E+01
   H  0.176074510E+02 -0.169324443E+01  0.176906140E+01
     4
 # iter = 42500  time[fs]=42.50000
   C -0.340258561E+01 -0.526331659E-01 -0.277246349E-03
   C  0.345723044E+01  0.627469157E-01 -0.443781418E-01
   H -0.184602444E+02  0.873718039E+00 -0.128336138E+01
   H  0.179876775E+02 -0.173046731E+01  0.180702307E+01
     4
 # iter = 43000  time[fs]=43.00000
   C -0.348345043E+01 -0.538303920E-01  0.141382618E-03
   C  0.353834696E+01  0.649787980E-01 -0.463933218E-01
   H -0.188582513E+02  0.893339158E+00 -0.131170493E+01
   H  0.183684417E+02 -0.176774831E+01  0.184504557E+01
     4
 # iter = 43500  time[fs]=43.50000
   C -0.356457926E+01 -0.550328656E-01  0.562927821E-03
   C  0.361972446E+01  0.672184192E-01 -0.484132520E-01
   H -0.192567377E+02  0.912986204E+00 -0.134008487E+01
   H  0.187497219E+02 -0.180508513E+01  0.188312647E+01
     4
 # iter = 44000  time[fs]=44.00000
   C -0.364596023E+01 -0.562403832E-01  0.987318340E-03
   C  0.370135116E+01  0.694654807E-01 -0.504377912E-01
   H -0.196556842E+02  0.932658148E+00 -0.136849975E+01
   H  0.191314973E+02 -0.184247560E+01  0.192126347E+01
     4
 # iter = 44500  time[fs]=44.50000
   C -0.372758220E+01 -0.574527519E-01  0.141448411E-02
   C  0.378321602E+01  0.717197003E-01 -0.524668028E-01
   H -0.200550724E+02  0.952354026E+00 -0.139694820E+01
   H  0.195137486E+02 -0.187991769E+01  0.195945441E+01
     4
 # iter = 45000  time[fs]=45.00000
   C -0.380943473E+01 -0.586697895E-01  0.184435615E-02
   C  0.386530867E+01  0.739808108E-01 -0.545001553E-01
   H -0.204548852E+02  0.972072923E+00 -0.142542894E+01
   H  0.198964575E+02 -0.191740947E+01  0.199769725E+01
     4
 # iter = 45500  time[fs]=45.50000
   C -0.389150800E+01 -0.598913229E-01  0.227686671E-02
   C  0.394761940E+01  0.762485594E-01 -0.565377213E-01
   H -0.208551062E+02  0.991813979E+00 -0.145394077E+01
   H  0.202796068E+02 -0.195494911E+01  0.203599008E+01
     4
 # iter = 46000  time[fs]=46.00000
   C -0.397379280E+01 -0.611171885E-01  0.271194944E-02
   C  0.403013906E+01  0.785227061E-01 -0.585793783E-01
   H -0.212557201E+02  0.101157638E+01 -0.148248252E+01
   H  0.206631801E+02 -0.199253489E+01  0.207433106E+01
     4
 # iter = 46500  time[fs]=46.50000
   C -0.405628044E+01 -0.623472307E-01  0.314953947E-02
   C  0.411285904E+01  0.808030236E-01 -0.606250079E-01
   H -0.216567122E+02  0.103135935E+01 -0.151105313E+01
   H  0.210471619E+02 -0.203016516E+01  0.211271848E+01
     4
 # iter = 47000  time[fs]=47.00000
   C -0.413896277E+01 -0.635813021E-01  0.358957346E-02
   C  0.419577126E+01  0.830892959E-01 -0.626744964E-01
   H -0.220580690E+02  0.105116217E+01 -0.153965155E+01
   H  0.214315376E+02 -0.206783839E+01  0.215115070E+01
     4
 # iter = 47500  time[fs]=47.50000
   C -0.422183206E+01 -0.648192624E-01  0.403198968E-02
   C  0.427886806E+01  0.853813177E-01 -0.647277337E-01
   H -0.224597773E+02  0.107098413E+01 -0.156827682E+01
   H  0.218162934E+02 -0.210555310E+01  0.218962616E+01
     4
 # iter = 48000  time[fs]=48.00000
   C -0.430488104E+01 -0.660609784E-01  0.447672802E-02
   C  0.436214225E+01  0.876788940E-01 -0.667846142E-01
   H -0.228618247E+02  0.109082459E+01 -0.159692801E+01
   H  0.222014161E+02 -0.214330788E+01  0.222814339E+01
     4
 # iter = 48500  time[fs]=48.50000
   C -0.438810283E+01 -0.673063232E-01  0.492373001E-02
   C  0.444558701E+01  0.899818392E-01 -0.688450358E-01
   H -0.232641997E+02  0.111068291E+01 -0.162560425E+01
   H  0.225868932E+02 -0.218110142E+01  0.226670100E+01
     4
 # iter = 49000  time[fs]=49.00000
   C -0.447149093E+01 -0.685551761E-01  0.537293882E-02
   C  0.452919590E+01  0.922899766E-01 -0.709089004E-01
   H -0.236668910E+02  0.113055852E+01 -0.165430469E+01
   H  0.229727127E+02 -0.221893244E+01  0.230529765E+01
     4
 # iter = 49500  time[fs]=49.50000
   C -0.455503919E+01 -0.698074221E-01  0.582429925E-02
   C  0.461296283E+01  0.946031378E-01 -0.729761132E-01
   H -0.240698880E+02  0.115045083E+01 -0.168302855E+01
   H  0.233588635E+02 -0.225679973E+01  0.234393208E+01
     4
 # iter = 50000  time[fs]=50.00000
   C -0.463874178E+01 -0.710629515E-01  0.627775770E-02
   C  0.469688202E+01  0.969211622E-01 -0.750465832E-01
   H -0.244731808E+02  0.117035932E+01 -0.171177507E+01
   H  0.237453347E+02 -0.229470216E+01  0.238260308E+01
     4
 # iter = 50500  time[fs]=50.50000
   C -0.472259316E+01 -0.723216598E-01  0.673326217E-02
   C  0.478094801E+01  0.992438966E-01 -0.771202223E-01
   H -0.248767597E+02  0.119028346E+01 -0.174054353E+01
   H  0.241321161E+02 -0.233263863E+01  0.242130949E+01
     4
 # iter = 51000  time[fs]=51.00000
   C -0.480658809E+01 -0.735834472E-01  0.719076223E-02
   C  0.486515559E+01  0.101571195E+00 -0.791969459E-01
   H -0.252806156E+02  0.121022279E+01 -0.176933325E+01
   H  0.245191979E+02 -0.237060808E+01  0.246005023E+01
     4
 # iter = 51500  time[fs]=51.50000
   C -0.489072160E+01 -0.748482182E-01  0.765020896E-02
   C  0.494949985E+01  0.103902917E+00 -0.812766724E-01
   H -0.256847398E+02  0.123017681E+01 -0.179814356E+01
   H  0.249065707E+02 -0.240860953E+01  0.249882423E+01
     4
 # iter = 52000  time[fs]=52.00000
   C -0.497498893E+01 -0.761158818E-01  0.811155495E-02
   C  0.503397609E+01  0.106238930E+00 -0.833593230E-01
   H -0.260891240E+02  0.125014510E+01 -0.182697385E+01
   H  0.252942258E+02 -0.244664202E+01  0.253763052E+01
     4
 # iter = 52500  time[fs]=52.50000
   C -0.505938559E+01 -0.773863508E-01  0.857475422E-02
   C  0.511857986E+01  0.108579106E+00 -0.854448218E-01
   H -0.264937603E+02  0.127012723E+01 -0.185582351E+01
   H  0.256821546E+02 -0.248470463E+01  0.257646811E+01
     4
 # iter = 53000  time[fs]=53.00000
   C -0.514390729E+01 -0.786595419E-01  0.903976224E-02
   C  0.520330691E+01  0.110923323E+00 -0.875330957E-01
   H -0.268986412E+02  0.129012279E+01 -0.188469198E+01
   H  0.260703489E+02 -0.252279649E+01  0.261533611E+01
     4
 # iter = 53500  time[fs]=53.50000
   C -0.522854995E+01 -0.799353753E-01  0.950653582E-02
   C  0.528815321E+01  0.113271463E+00 -0.896240739E-01
   H -0.273037592E+02  0.131013138E+01 -0.191357871E+01
   H  0.264588009E+02 -0.256091677E+01  0.265423363E+01
     4
 # iter = 54000  time[fs]=54.00000
   C -0.531330967E+01 -0.812137745E-01  0.997503314E-02
   C  0.537311491E+01  0.115623414E+00 -0.917176883E-01
   H -0.277091076E+02  0.133015265E+01 -0.194248317E+01
   H  0.268475033E+02 -0.259906467E+01  0.269315983E+01
     4
 # iter = 54500  time[fs]=54.50000
   C -0.539818274E+01 -0.824946663E-01  0.104452137E-01
   C  0.545818833E+01  0.117979070E+00 -0.938138732E-01
   H -0.281146798E+02  0.135018622E+01 -0.197140486E+01
   H  0.272364489E+02 -0.263723941E+01  0.273211391E+01
     4
 # iter = 55000  time[fs]=55.00000
   C -0.548316561E+01 -0.837779803E-01  0.109170381E-01
   C  0.554336998E+01  0.120338326E+00 -0.959125650E-01
   H -0.285204692E+02  0.137023177E+01 -0.200034331E+01
   H  0.276256308E+02 -0.267544026E+01  0.277109511E+01
     4
 # iter = 55500  time[fs]=55.50000
   C -0.556825491E+01 -0.850636494E-01  0.113904684E-01
   C  0.562865650E+01  0.122701084E+00 -0.980137025E-01
   H -0.289264700E+02  0.139028895E+01 -0.202929805E+01
   H  0.280150426E+02 -0.271366652E+01  0.281010267E+01
     4
 # iter = 56000  time[fs]=56.00000
   C -0.565344739E+01 -0.863516086E-01  0.118654676E-01
   C  0.571404470E+01  0.125067249E+00 -0.100117226E+00
   H -0.293326762E+02  0.141035746E+01 -0.205826864E+01
   H  0.284046779E+02 -0.275191750E+01  0.284913589E+01
     4
 # iter = 56500  time[fs]=56.50000
   C -0.573873996E+01 -0.876417960E-01  0.123420000E-01
   C  0.579953151E+01  0.127436730E+00 -0.102223079E+00
   H -0.297390822E+02  0.143043699E+01 -0.208725465E+01
   H  0.287945306E+02 -0.279019255E+01  0.288819409E+01
     4
 # iter = 57000  time[fs]=57.00000
   C -0.582412966E+01 -0.889341518E-01  0.128200310E-01
   C  0.588511403E+01  0.129809438E+00 -0.104331206E+00
   H -0.301456826E+02  0.145052726E+01 -0.211625568E+01
   H  0.291845951E+02 -0.282849105E+01  0.292727661E+01
     4
 # iter = 57500  time[fs]=57.50000
   C -0.590961365E+01 -0.902286186E-01  0.132995269E-01
   C  0.597078943E+01  0.132185290E+00 -0.106441554E+00
   H -0.305524724E+02  0.147062798E+01 -0.214527134E+01
   H  0.295748656E+02 -0.286681239E+01  0.296638282E+01
     4
 # iter = 58000  time[fs]=58.00000
   C -0.599518923E+01 -0.915251414E-01  0.137804551E-01
   C  0.605655505E+01  0.134564204E+00 -0.108554070E+00
   H -0.309594465E+02  0.149073888E+01 -0.217430125E+01
   H  0.299653369E+02 -0.290515600E+01  0.300551212E+01
     4
 # iter = 58500  time[fs]=58.50000
   C -0.608085378E+01 -0.928236669E-01  0.142627841E-01
   C  0.614240830E+01  0.136946103E+00 -0.110668704E+00
   H -0.313666001E+02  0.151085971E+01 -0.220334504E+01
   H  0.303560038E+02 -0.294352131E+01  0.304466392E+01
     4
 # iter = 59000  time[fs]=59.00000
   C -0.616660482E+01 -0.941241442E-01  0.147464832E-01
   C  0.622834674E+01  0.139330911E+00 -0.112785410E+00
   H -0.317739287E+02  0.153099021E+01 -0.223240237E+01
   H  0.307468614E+02 -0.298190778E+01  0.308383766E+01
     4
 # iter = 59500  time[fs]=59.50000
   C -0.625243994E+01 -0.954265239E-01  0.152315227E-01
   C  0.631436798E+01  0.141718555E+00 -0.114904139E+00
   H -0.321814278E+02  0.155113015E+01 -0.226147290E+01
   H  0.311379048E+02 -0.302031490E+01  0.312303280E+01
     4
 # iter = 60000  time[fs]=60.00000
   C -0.633835685E+01 -0.967307587E-01  0.157178739E-01
   C  0.640046976E+01  0.144108966E+00 -0.117024846E+00
   H -0.325890932E+02  0.157127930E+01 -0.229055630E+01
   H  0.315291295E+02 -0.305874217E+01  0.316224881E+01
     4
 # iter = 60500  time[fs]=60.50000
   C -0.642435334E+01 -0.980368029E-01  0.162055086E-01
   C  0.648664990E+01  0.146502077E+00 -0.119147487E+00
   H -0.329969208E+02  0.159143743E+01 -0.231965227E+01
   H  0.319205310E+02 -0.309718911E+01  0.320148520E+01
     4
 # iter = 61000  time[fs]=61.00000
   C -0.651042729E+01 -0.993446124E-01  0.166943999E-01
   C  0.657290630E+01  0.148897822E+00 -0.121272021E+00
   H -0.334049066E+02  0.161160434E+01 -0.234876051E+01
   H  0.323121051E+02 -0.313565524E+01  0.324074148E+01
     4
 # iter = 61500  time[fs]=61.50000
   C -0.659657666E+01 -0.100654145E+00  0.171845212E-01
   C  0.665923695E+01  0.151296140E+00 -0.123398405E+00
   H -0.338130469E+02  0.163177980E+01 -0.237788072E+01
   H  0.327038476E+02 -0.317414013E+01  0.328001718E+01
     4
 # iter = 62000  time[fs]=62.00000
   C -0.668279948E+01 -0.101965359E+00  0.176758472E-01
   C  0.674563991E+01  0.153696969E+00 -0.125526600E+00
   H -0.342213378E+02  0.165196363E+01 -0.240701262E+01
   H  0.330957546E+02 -0.321264333E+01  0.331931185E+01
     4
 # iter = 62500  time[fs]=62.50000
   C -0.676909386E+01 -0.103278215E+00  0.181683529E-01
   C  0.683211332E+01  0.156100251E+00 -0.127656568E+00
   H -0.346297760E+02  0.167215562E+01 -0.243615594E+01
   H  0.334878222E+02 -0.325116444E+01  0.335862506E+01
     4
 # iter = 63000  time[fs]=63.00000
   C -0.685545800E+01 -0.104592675E+00  0.186620142E-01
   C  0.691865539E+01  0.158505929E+00 -0.129788271E+00
   H -0.350383580E+02  0.169235560E+01 -0.246531042E+01
   H  0.338800468E+02 -0.328970304E+01  0.339795637E+01
     4
 # iter = 63500  time[fs]=63.50000
   C -0.694189013E+01 -0.105908703E+00  0.191568077E-01
   C  0.700526438E+01  0.160913950E+00 -0.131921672E+00
   H -0.354470805E+02  0.171256338E+01 -0.249447581E+01
   H  0.342724247E+02 -0.332825875E+01  0.343730539E+01
     4
 # iter = 64000  time[fs]=64.00000
   C -0.702838857E+01 -0.107226261E+00  0.196527107E-01
   C  0.709193863E+01  0.163324260E+00 -0.134056736E+00
   H -0.358559402E+02  0.173277879E+01 -0.252365187E+01
   H  0.346649524E+02 -0.336683118E+01  0.347667172E+01
     4
 # iter = 64500  time[fs]=64.50000
   C -0.711495170E+01 -0.108545317E+00  0.201497010E-01
   C  0.717867653E+01  0.165736809E+00 -0.136193429E+00
   H -0.362649341E+02  0.175300166E+01 -0.255283835E+01
   H  0.350576267E+02 -0.340541997E+01  0.351605498E+01
     4
 # iter = 65000  time[fs]=65.00000
   C -0.720157793E+01 -0.109865836E+00  0.206477571E-01
   C  0.726547654E+01  0.168151547E+00 -0.138331719E+00
   H -0.366740592E+02  0.177323183E+01 -0.258203504E+01
   H  0.354504442E+02 -0.344402477E+01  0.355545480E+01
     4
 # iter = 65500  time[fs]=65.50000
   C -0.728826577E+01 -0.111187786E+00  0.211468583E-01
   C  0.735233716E+01  0.170568427E+00 -0.140471572E+00
   H -0.370833126E+02  0.179346913E+01 -0.261124170E+01
   H  0.358434019E+02 -0.348264523E+01  0.359487083E+01
     4
 # iter = 66000  time[fs]=66.00000
   C -0.737501374E+01 -0.112511136E+00  0.216469841E-01
   C  0.743925695E+01  0.172987402E+00 -0.142612957E+00
   H -0.374926916E+02  0.181371342E+01 -0.264045813E+01
   H  0.362364968E+02 -0.352128102E+01  0.363430271E+01
     4
 # iter = 66500  time[fs]=66.50000
   C -0.746182045E+01 -0.113835856E+00  0.221481148E-01
   C  0.752623453E+01  0.175408427E+00 -0.144755845E+00
   H -0.379021933E+02  0.183396455E+01 -0.266968412E+01
   H  0.366297258E+02 -0.355993183E+01  0.367375011E+01
     4
 # iter = 67000  time[fs]=67.00000
   C -0.754868452E+01 -0.115161916E+00  0.226502312E-01
   C  0.761326854E+01  0.177831460E+00 -0.146900205E+00
   H -0.383118153E+02  0.185422238E+01 -0.269891946E+01
   H  0.370230862E+02 -0.359859733E+01  0.371321272E+01
     4
 # iter = 67500  time[fs]=67.50000
   C -0.763560463E+01 -0.116489288E+00  0.231533147E-01
   C  0.770035769E+01  0.180256458E+00 -0.149046009E+00
   H -0.387215549E+02  0.187448676E+01 -0.272816397E+01
   H  0.374165752E+02 -0.363727722E+01  0.375269021E+01
     4
 # iter = 68000  time[fs]=68.00000
   C -0.772257953E+01 -0.117817944E+00  0.236573470E-01
   C  0.778750072E+01  0.182683380E+00 -0.151193229E+00
   H -0.391314097E+02  0.189475757E+01 -0.275741744E+01
   H  0.378101901E+02 -0.367597122E+01  0.379218228E+01
     4
 # iter = 68500  time[fs]=68.50000
   C -0.780960797E+01 -0.119147858E+00  0.241623104E-01
   C  0.787469642E+01  0.185112187E+00 -0.153341838E+00
   H -0.395413774E+02  0.191503467E+01 -0.278667972E+01
   H  0.382039283E+02 -0.371467904E+01  0.383168864E+01
     4
 # iter = 69000  time[fs]=69.00000
   C -0.789668876E+01 -0.120479005E+00  0.246681878E-01
   C  0.796194362E+01  0.187542842E+00 -0.155491810E+00
   H -0.399514556E+02  0.193531793E+01 -0.281595060E+01
   H  0.385977873E+02 -0.375340041E+01  0.387120899E+01
     4
 # iter = 69500  time[fs]=69.50000
   C -0.798382076E+01 -0.121811358E+00  0.251749624E-01
   C  0.804924118E+01  0.189975306E+00 -0.157643118E+00
   H -0.403616420E+02  0.195560723E+01 -0.284522993E+01
   H  0.389917648E+02 -0.379213504E+01  0.391074306E+01
     4
 # iter = 70000  time[fs]=70.00000
   C -0.807100285E+01 -0.123144893E+00  0.256826178E-01
   C  0.813658799E+01  0.192409543E+00 -0.159795739E+00
   H -0.407719345E+02  0.197590246E+01 -0.287451753E+01
   H  0.393858583E+02 -0.383088270E+01  0.395029059E+01
     4
 # iter = 70500  time[fs]=70.50000
   C -0.815823394E+01 -0.124479588E+00  0.261911381E-01
   C  0.822398301E+01  0.194845519E+00 -0.161949648E+00
   H -0.411823310E+02  0.199620350E+01 -0.290381325E+01
   H  0.397800655E+02 -0.386964312E+01  0.398985130E+01
     4
 # iter = 71000  time[fs]=71.00000
   C -0.824551300E+01 -0.125815418E+00  0.267005079E-01
   C  0.831142519E+01  0.197283200E+00 -0.164104821E+00
   H -0.415928295E+02  0.201651023E+01 -0.293311692E+01
   H  0.401743842E+02 -0.390841605E+01  0.402942495E+01
     4
 # iter = 71500  time[fs]=71.50000
   C -0.833283901E+01 -0.127152362E+00  0.272107121E-01
   C  0.839891354E+01  0.199722552E+00 -0.166261235E+00
   H -0.420034279E+02  0.203682254E+01 -0.296242839E+01
   H  0.405688123E+02 -0.394720127E+01  0.406901128E+01
     4
 # iter = 72000  time[fs]=72.00000
   C -0.842021099E+01 -0.128490399E+00  0.277217360E-01
   C  0.848644708E+01  0.202163544E+00 -0.168418868E+00
   H -0.424141244E+02  0.205714034E+01 -0.299174752E+01
   H  0.409633476E+02 -0.398599853E+01  0.410861006E+01
     4
 # iter = 72500  time[fs]=72.50000
   C -0.850762798E+01 -0.129829506E+00  0.282335651E-01
   C  0.857402489E+01  0.204606144E+00 -0.170577698E+00
   H -0.428249170E+02  0.207746351E+01 -0.302107416E+01
   H  0.413579882E+02 -0.402480762E+01  0.414822105E+01
     4
 # iter = 73000  time[fs]=73.00000
   C -0.859508907E+01 -0.131169664E+00  0.287461857E-01
   C  0.866164605E+01  0.207050323E+00 -0.172737704E+00
   H -0.432358039E+02  0.209779196E+01 -0.305040817E+01
   H  0.417527319E+02 -0.406362832E+01  0.418784402E+01
     4
 # iter = 73500  time[fs]=73.50000
   C -0.868259335E+01 -0.132510853E+00  0.292595840E-01
   C  0.874930968E+01  0.209496050E+00 -0.174898866E+00
   H -0.436467834E+02  0.211812559E+01 -0.307974942E+01
   H  0.421475770E+02 -0.410246041E+01  0.422747876E+01
     4
 # iter = 74000  time[fs]=74.00000
   C -0.877013996E+01 -0.133853054E+00  0.297737467E-01
   C  0.883701492E+01  0.211943297E+00 -0.177061162E+00
   H -0.440578537E+02  0.213846430E+01 -0.310909776E+01
   H  0.425425215E+02 -0.414130368E+01  0.426712505E+01
     4
 # iter = 74500  time[fs]=74.50000
   C -0.885772806E+01 -0.135196248E+00  0.302886609E-01
   C  0.892476094E+01  0.214392036E+00 -0.179224575E+00
   H -0.444690132E+02  0.215880801E+01 -0.313845308E+01
   H  0.429375636E+02 -0.418015794E+01  0.430678268E+01
     4
 # iter = 75000  time[fs]=75.00000
   C -0.894535682E+01 -0.136540416E+00  0.308043140E-01
   C  0.901254694E+01  0.216842240E+00 -0.181389083E+00
   H -0.448802602E+02  0.217915662E+01 -0.316781524E+01
   H  0.433327015E+02 -0.421902298E+01  0.434645144E+01
     4
 # iter = 75500  time[fs]=75.50000
   C -0.903302546E+01 -0.137885541E+00  0.313206937E-01
   C  0.910037213E+01  0.219293883E+00 -0.183554669E+00
   H -0.452915932E+02  0.219951004E+01 -0.319718412E+01
   H  0.437279335E+02 -0.425789862E+01  0.438613115E+01
     4
 # iter = 76000  time[fs]=76.00000
   C -0.912073319E+01 -0.139231605E+00  0.318377878E-01
   C  0.918823574E+01  0.221746939E+00 -0.185721315E+00
   H -0.457030106E+02  0.221986819E+01 -0.322655961E+01
   H  0.441232579E+02 -0.429678467E+01  0.442582160E+01
     4
 # iter = 76500  time[fs]=76.50000
   C -0.920847926E+01 -0.140578592E+00  0.323555847E-01
   C  0.927613705E+01  0.224201383E+00 -0.187889003E+00
   H -0.461145108E+02  0.224023099E+01 -0.325594159E+01
   H  0.445186731E+02 -0.433568096E+01  0.446552261E+01
     4
 # iter = 77000  time[fs]=77.00000
   C -0.929626296E+01 -0.141926486E+00  0.328740729E-01
   C  0.936407533E+01  0.226657190E+00 -0.190057715E+00
   H -0.465260925E+02  0.226059836E+01 -0.328532995E+01
   H  0.449141775E+02 -0.437458729E+01  0.450523399E+01
     4
 # iter = 77500  time[fs]=77.50000
   C -0.938408356E+01 -0.143275270E+00  0.333932412E-01
   C  0.945204989E+01  0.229114337E+00 -0.192227435E+00
   H -0.469377543E+02  0.228097022E+01 -0.331472457E+01
   H  0.453097696E+02 -0.441350351E+01  0.454495557E+01
     4
 # iter = 78000  time[fs]=78.00000
   C -0.947194038E+01 -0.144624929E+00  0.339130786E-01
   C  0.954006003E+01  0.231572801E+00 -0.194398146E+00
   H -0.473494946E+02  0.230134648E+01 -0.334412535E+01
   H  0.457054478E+02 -0.445242944E+01  0.458468717E+01
     4
 # iter = 78500  time[fs]=78.50000
   C -0.955983275E+01 -0.145975447E+00  0.344335745E-01
   C  0.962810511E+01  0.234032559E+00 -0.196569832E+00
   H -0.477613122E+02  0.232172708E+01 -0.337353219E+01
   H  0.461012106E+02 -0.449136492E+01  0.462442862E+01
     4
 # iter = 79000  time[fs]=79.00000
   C -0.964776002E+01 -0.147326811E+00  0.349547185E-01
   C  0.971618449E+01  0.236493590E+00 -0.198742478E+00
   H -0.481732058E+02  0.234211195E+01 -0.340294497E+01
   H  0.464970566E+02 -0.453030979E+01  0.466417976E+01
     4
 # iter = 79500  time[fs]=79.50000
   C -0.973572154E+01 -0.148679005E+00  0.354765004E-01
   C  0.980429752E+01  0.238955871E+00 -0.200916067E+00
   H -0.485851741E+02  0.236250101E+01 -0.343236361E+01
   H  0.468929844E+02 -0.456926390E+01  0.470394043E+01
     4
 # iter = 80000  time[fs]=80.00000
   C -0.982371671E+01 -0.150032015E+00  0.359989102E-01
   C  0.989244361E+01  0.241419382E+00 -0.203090586E+00
   H -0.489972158E+02  0.238289419E+01 -0.346178801E+01
   H  0.472889927E+02 -0.460822709E+01  0.474371047E+01
