     4
 # iter = 25000  time[fs]=25.00000
   C -0.999016069E+00  0.505495765E-01  0.164496710E-01
   C  0.995444865E+00 -0.416457870E-01 -0.337241375E-01
   H -0.525140222E+01 -0.431879534E+00  0.482955219E-01
   H  0.541957987E+01 -0.209113785E+00 -0.291855232E+00
     4
 # iter = 25500  time[fs]=25.50000
   C -0.104578107E+01  0.539024490E-01  0.173897913E-01
   C  0.103956819E+01 -0.414956444E-01 -0.333344670E-01
   H -0.558911450E+01 -0.460071512E+00  0.516697458E-01
   H  0.573901242E+01 -0.218574494E+00 -0.309125725E+00
     4
 # iter = 26000  time[fs]=26.00000
   C -0.109550403E+01  0.574417357E-01  0.184109312E-01
   C  0.108669839E+01 -0.414709635E-01 -0.330075635E-01
   H -0.593258386E+01 -0.488811608E+00  0.551022591E-01
   H  0.606361509E+01 -0.228218515E+00 -0.326673539E+00
     4
 # iter = 26500  time[fs]=26.50000
   C -0.114793671E+01  0.611487452E-01  0.195038550E-01
   C  0.113657790E+01 -0.415600339E-01 -0.327359978E-01
   H -0.628114911E+01 -0.518036427E+00  0.585862183E-01
   H  0.639283852E+01 -0.238025471E+00 -0.344470152E+00
     4
 # iter = 27000  time[fs]=27.00000
   C -0.120284786E+01  0.650069300E-01  0.206604472E-01
   C  0.118896813E+01 -0.417521924E-01 -0.325132184E-01
   H -0.663425099E+01 -0.547692700E+00  0.621158247E-01
   H  0.672621159E+01 -0.247978021E+00 -0.362490998E+00
     4
 # iter = 27500  time[fs]=27.50000
   C -0.126002436E+01  0.690016501E-01  0.218736050E-01
   C  0.124365013E+01 -0.420377984E-01 -0.323334830E-01
   H -0.699141315E+01 -0.577735281E+00  0.656861383E-01
   H  0.706332801E+01 -0.258061315E+00 -0.380714810E+00
     4
 # iter = 28000  time[fs]=28.00000
   C -0.131927134E+01  0.731199536E-01  0.231371257E-01
   C  0.130042434E+01 -0.424081798E-01 -0.321917791E-01
   H -0.735222720E+01 -0.608125605E+00  0.692929282E-01
   H  0.740383544E+01 -0.268262560E+00 -0.399123073E+00
     4
 # iter = 28500  time[fs]=28.50000
   C -0.138041157E+01  0.773503768E-01  0.244455980E-01
   C  0.135910979E+01 -0.428555623E-01 -0.320837414E-01
   H -0.771634087E+01 -0.638830492E+00  0.729325511E-01
   H  0.774742676E+01 -0.278570669E+00 -0.417699596E+00
     4
 # iter = 29000  time[fs]=29.00000
   C -0.144328454E+01  0.816827647E-01  0.257943010E-01
   C  0.141954289E+01 -0.433729905E-01 -0.320055723E-01
   H -0.808344850E+01 -0.669821200E+00  0.766018536E-01
   H  0.809383294E+01 -0.288975984E+00 -0.436430145E+00
     4
 # iter = 29500  time[fs]=29.50000
   C -0.150774518E+01  0.861081093E-01  0.271791127E-01
   C  0.148157610E+01 -0.439542487E-01 -0.319539680E-01
   H -0.845328348E+01 -0.701072681E+00  0.802980924E-01
   H  0.844281723E+01 -0.299470045E+00 -0.455302154E+00
     4
 # iter = 30000  time[fs]=30.00000
   C -0.157366263E+01  0.906184079E-01  0.285964287E-01
   C  0.154507652E+01 -0.445937835E-01 -0.319260529E-01
   H -0.882561202E+01 -0.732562987E+00  0.840188693E-01
   H  0.879417040E+01 -0.310045411E+00 -0.474304484E+00
     4
 # iter = 30500  time[fs]=30.50000
   C -0.164091892E+01  0.952065377E-01  0.300430914E-01
   C  0.160992447E+01 -0.452866317E-01 -0.319193201E-01
   H -0.920022815E+01 -0.764272778E+00  0.877620781E-01
   H  0.914770670E+01 -0.320695505E+00 -0.493427218E+00
     4
 # iter = 31000  time[fs]=31.00000
   C -0.170940767E+01  0.998661460E-01  0.315163285E-01
   C  0.167601220E+01 -0.460283536E-01 -0.319315810E-01
   H -0.957694962E+01 -0.796184935E+00  0.915258612E-01
   H  0.950326066E+01 -0.331414490E+00 -0.512661495E+00
     4
 # iter = 31500  time[fs]=31.50000
   C -0.177903296E+01  0.104591555E+00  0.330136999E-01
   C  0.174324260E+01 -0.468149736E-01 -0.319609205E-01
   H -0.995561444E+01 -0.828284236E+00  0.953085732E-01
   H  0.986068427E+01 -0.342197162E+00 -0.531999370E+00
     4
 # iter = 32000  time[fs]=32.00000
   C -0.184970820E+01  0.109377678E+00  0.345330524E-01
   C  0.181152813E+01 -0.476429261E-01 -0.320056593E-01
   H -0.103360781E+02 -0.860557086E+00  0.991087506E-01
   H  0.102198447E+02 -0.353038870E+00 -0.551433692E+00
     4
 # iter = 32500  time[fs]=32.50000
   C -0.192135517E+01  0.114219950E+00  0.360724807E-01
   C  0.188078972E+01 -0.485090082E-01 -0.320643210E-01
   H -0.107182111E+02 -0.892991300E+00  0.102925087E+00
   H  0.105806224E+02 -0.363935436E+00 -0.570958008E+00
     4
 # iter = 33000  time[fs]=33.00000
   C -0.199390308E+01  0.119114260E+00  0.376302944E-01
   C  0.195095592E+01 -0.494103374E-01 -0.321356046E-01
   H -0.111018972E+02 -0.925575912E+00  0.106756413E+00
   H  0.109429092E+02 -0.374883100E+00 -0.590566474E+00
     4
 # iter = 33500  time[fs]=33.50000
   C -0.206728781E+01  0.124056901E+00  0.392049892E-01
   C  0.202196201E+01 -0.503443149E-01 -0.322183605E-01
   H -0.114870315E+02 -0.958301023E+00  0.110601677E+00
   H  0.113066074E+02 -0.385878462E+00 -0.610253784E+00
     4
 # iter = 34000  time[fs]=34.00000
   C -0.214145117E+01  0.129044523E+00  0.407952232E-01
   C  0.209374930E+01 -0.513085931E-01 -0.323115702E-01
   H -0.118735191E+02 -0.991157667E+00  0.114459930E+00
   H  0.116716280E+02 -0.396918443E+00 -0.630015108E+00
     4
 # iter = 34500  time[fs]=34.50000
   C -0.221634027E+01  0.134074087E+00  0.423997955E-01
   C  0.216626448E+01 -0.523010468E-01 -0.324143291E-01
   H -0.122612739E+02 -0.102413770E+01  0.118330314E+00
   H  0.120378900E+02 -0.408000243E+00 -0.649846033E+00
     4
 # iter = 35000  time[fs]=35.00000
   C -0.229190696E+01  0.139142836E+00  0.440176290E-01
   C  0.223945904E+01 -0.533197488E-01 -0.325258315E-01
   H -0.126502177E+02 -0.105723369E+01  0.122212051E+00
   H  0.124053195E+02 -0.419121315E+00 -0.669742524E+00
     4
 # iter = 35500  time[fs]=35.50000
   C -0.236810731E+01  0.144248258E+00  0.456477549E-01
   C  0.231328874E+01 -0.543629472E-01 -0.326453580E-01
   H -0.130402789E+02 -0.109043888E+01  0.126104435E+00
   H  0.127738486E+02 -0.430279326E+00 -0.689700879E+00
     4
 # iter = 36000  time[fs]=36.00000
   C -0.244490121E+01  0.149388064E+00  0.472892992E-01
   C  0.238771321E+01 -0.554290472E-01 -0.327722648E-01
   H -0.134313923E+02 -0.112374703E+01  0.130006819E+00
   H  0.131434154E+02 -0.441472145E+00 -0.709717693E+00
     4
 # iter = 36500  time[fs]=36.50000
   C -0.252225194E+01  0.154560160E+00  0.489414722E-01
   C  0.246269550E+01 -0.565165933E-01 -0.329059742E-01
   H -0.138234980E+02 -0.115715247E+01  0.133918613E+00
   H  0.135139626E+02 -0.452697813E+00 -0.729789830E+00
     4
 # iter = 37000  time[fs]=37.00000
   C -0.260012584E+01  0.159762628E+00  0.506035578E-01
   C  0.253820174E+01 -0.576242554E-01 -0.330459663E-01
   H -0.142165409E+02 -0.119064993E+01  0.137839277E+00
   H  0.138854375E+02 -0.463954529E+00 -0.749914396E+00
     4
 # iter = 37500  time[fs]=37.50000
   C -0.267849199E+01  0.164993709E+00  0.522749057E-01
   C  0.261420086E+01 -0.587508148E-01 -0.331917727E-01
   H -0.146104705E+02 -0.122423459E+01  0.141768315E+00
   H  0.142577917E+02 -0.475240633E+00 -0.770088712E+00
     4
 # iter = 38000  time[fs]=38.00000
   C -0.275732196E+01  0.170251783E+00  0.539549238E-01
   C  0.269066427E+01 -0.598951537E-01 -0.333429699E-01
   H -0.150052400E+02 -0.125790197E+01  0.145705269E+00
   H  0.146309800E+02 -0.486554592E+00 -0.790310296E+00
     4
 # iter = 38500  time[fs]=38.50000
   C -0.283658955E+01  0.175535362E+00  0.556430718E-01
   C  0.276756566E+01 -0.610562444E-01 -0.334991745E-01
   H -0.154008061E+02 -0.129164793E+01  0.149649718E+00
   H  0.150049608E+02 -0.497894986E+00 -0.810576846E+00
     4
 # iter = 39000  time[fs]=39.00000
   C -0.291627058E+01  0.180843068E+00  0.573388555E-01
   C  0.284488072E+01 -0.622331406E-01 -0.336600383E-01
   H -0.157971289E+02 -0.132546864E+01  0.153601273E+00
   H  0.153796954E+02 -0.509260500E+00 -0.830886219E+00
     4
 # iter = 39500  time[fs]=39.50000
   C -0.299634271E+01  0.186173629E+00  0.590418222E-01
   C  0.292258703E+01 -0.634249693E-01 -0.338252450E-01
   H -0.161941712E+02 -0.135936052E+01  0.157559573E+00
   H  0.157551477E+02 -0.520649913E+00 -0.851236419E+00
     4
 # iter = 40000  time[fs]=40.00000
   C -0.307678524E+01  0.191525869E+00  0.607515562E-01
   C  0.300066381E+01 -0.646309243E-01 -0.339945058E-01
   H -0.165918986E+02 -0.139332027E+01  0.161524283E+00
   H  0.161312844E+02 -0.532062088E+00 -0.871625586E+00
     4
 # iter = 40500  time[fs]=40.50000
   C -0.315757901E+01  0.196898693E+00  0.624676749E-01
   C  0.307909181E+01 -0.658502591E-01 -0.341675575E-01
   H -0.169902789E+02 -0.142734477E+01  0.165495094E+00
   H  0.165080740E+02 -0.543495967E+00 -0.892051981E+00
     4
 # iter = 41000  time[fs]=41.00000
   C -0.323870620E+01  0.202291088E+00  0.641898260E-01
   C  0.315785315E+01 -0.670822820E-01 -0.343441591E-01
   H -0.173892820E+02 -0.146143115E+01  0.169471715E+00
   H  0.168854874E+02 -0.554950561E+00 -0.912513977E+00
     4
 # iter = 41500  time[fs]=41.50000
   C -0.332015024E+01  0.207702109E+00  0.659176840E-01
   C  0.323693124E+01 -0.683263509E-01 -0.345240896E-01
   H -0.177888802E+02 -0.149557670E+01  0.173453879E+00
   H  0.172634973E+02 -0.566424947E+00 -0.933010051E+00
     4
 # iter = 42000  time[fs]=42.00000
   C -0.340189574E+01  0.213130877E+00  0.676509480E-01
   C  0.331631061E+01 -0.695818688E-01 -0.347071463E-01
   H -0.181890471E+02 -0.152977888E+01  0.177441332E+00
   H  0.176420779E+02 -0.577918261E+00 -0.953538772E+00
     4
 # iter = 42500  time[fs]=42.50000
   C -0.348392830E+01  0.218576569E+00  0.693893392E-01
   C  0.339597684E+01 -0.708482802E-01 -0.348931426E-01
   H -0.185897584E+02 -0.156403533E+01  0.181433841E+00
   H  0.180212054E+02 -0.589429695E+00 -0.974098797E+00
     4
 # iter = 43000  time[fs]=43.00000
   C -0.356623453E+01  0.224038420E+00  0.711325987E-01
   C  0.347591648E+01 -0.721250669E-01 -0.350819069E-01
   H -0.189909909E+02 -0.159834381E+01  0.185431185E+00
   H  0.184008571E+02 -0.600958487E+00 -0.994688864E+00
     4
 # iter = 43500  time[fs]=43.50000
   C -0.364880186E+01  0.229515710E+00  0.728804863E-01
   C  0.355611696E+01 -0.734117453E-01 -0.352732804E-01
   H -0.193927232E+02 -0.163270222E+01  0.189433158E+00
   H  0.187810118E+02 -0.612503925E+00 -0.101530778E+01
     4
 # iter = 44000  time[fs]=44.00000
   C -0.373161856E+01  0.235007769E+00  0.746327781E-01
   C  0.363656651E+01 -0.747078635E-01 -0.354671168E-01
   H -0.197949350E+02 -0.166710860E+01  0.193439566E+00
   H  0.191616495E+02 -0.624065336E+00 -0.103595444E+01
     4
 # iter = 44500  time[fs]=44.50000
   C -0.381467364E+01  0.240513965E+00  0.763892655E-01
   C  0.371725412E+01 -0.760129984E-01 -0.356632804E-01
   H -0.201976071E+02 -0.170156109E+01  0.197450227E+00
   H  0.195427515E+02 -0.635642090E+00 -0.105662776E+01
     4
 # iter = 45000  time[fs]=45.00000
   C -0.389795678E+01  0.246033707E+00  0.781497540E-01
   C  0.379816946E+01 -0.773267536E-01 -0.358616457E-01
   H -0.206007216E+02 -0.173605793E+01  0.201464971E+00
   H  0.199242998E+02 -0.647233590E+00 -0.107732677E+01
     4
 # iter = 45500  time[fs]=45.50000
   C -0.398145829E+01  0.251566436E+00  0.799140616E-01
   C  0.387930280E+01 -0.786487573E-01 -0.360620958E-01
   H -0.210042615E+02 -0.177059746E+01  0.205483636E+00
   H  0.203062779E+02 -0.658839274E+00 -0.109805050E+01
     4
 # iter = 46000  time[fs]=46.00000
   C -0.406516905E+01  0.257111630E+00  0.816820180E-01
   C  0.396064504E+01 -0.799786604E-01 -0.362645224E-01
   H -0.214082109E+02 -0.180517813E+01  0.209506071E+00
   H  0.206886697E+02 -0.670458611E+00 -0.111879807E+01
     4
 # iter = 46500  time[fs]=46.50000
   C -0.414908049E+01  0.262668795E+00  0.834534637E-01
   C  0.404218758E+01 -0.813161343E-01 -0.364688247E-01
   H -0.218125545E+02 -0.183979843E+01  0.213532131E+00
   H  0.210714602E+02 -0.682091097E+00 -0.113956863E+01
     4
 # iter = 47000  time[fs]=47.00000
   C -0.423318453E+01  0.268237464E+00  0.852282492E-01
   C  0.412392234E+01 -0.826608702E-01 -0.366749087E-01
   H -0.222172780E+02 -0.187445698E+01  0.217561681E+00
   H  0.214546353E+02 -0.693736258E+00 -0.116036138E+01
     4
 # iter = 47500  time[fs]=47.50000
   C -0.431747357E+01  0.273817199E+00  0.870062337E-01
   C  0.420584169E+01 -0.840125767E-01 -0.368826865E-01
   H -0.226223678E+02 -0.190915244E+01  0.221594594E+00
   H  0.218381815E+02 -0.705393642E+00 -0.118117555E+01
     4
 # iter = 48000  time[fs]=48.00000
   C -0.440194039E+01  0.279407583E+00  0.887872852E-01
   C  0.428793844E+01 -0.853709794E-01 -0.370920764E-01
   H -0.230278111E+02 -0.194388355E+01  0.225630747E+00
   H  0.222220859E+02 -0.717062823E+00 -0.120201043E+01
     4
 # iter = 48500  time[fs]=48.50000
   C -0.448657821E+01  0.285008224E+00  0.905712793E-01
   C  0.437020579E+01 -0.867358187E-01 -0.373030017E-01
   H -0.234335957E+02 -0.197864910E+01  0.229670027E+00
   H  0.226063363E+02 -0.728743395E+00 -0.122286531E+01
     4
 # iter = 49000  time[fs]=49.00000
   C -0.457138061E+01  0.290618749E+00  0.923580987E-01
   C  0.445263730E+01 -0.881068499E-01 -0.375153906E-01
   H -0.238397099E+02 -0.201344795E+01  0.233712323E+00
   H  0.229909213E+02 -0.740434972E+00 -0.124373955E+01
     4
 # iter = 49500  time[fs]=49.50000
   C -0.465634149E+01  0.296238806E+00  0.941476329E-01
   C  0.453522690E+01 -0.894838410E-01 -0.377291760E-01
   H -0.242461428E+02 -0.204827903E+01  0.237757532E+00
   H  0.233758298E+02 -0.752137188E+00 -0.126463253E+01
     4
 # iter = 50000  time[fs]=50.00000
   C -0.474145509E+01  0.301868059E+00  0.959397775E-01
   C  0.461796880E+01 -0.908665728E-01 -0.379442948E-01
   H -0.246528838E+02 -0.208314128E+01  0.241805555E+00
   H  0.237610514E+02 -0.763849694E+00 -0.128554364E+01
     4
 # iter = 50500  time[fs]=50.50000
   C -0.482671595E+01  0.307506191E+00  0.977344337E-01
   C  0.470085756E+01 -0.922548372E-01 -0.381606878E-01
   H -0.250599230E+02 -0.211803374E+01  0.245856300E+00
   H  0.241465760E+02 -0.775572158E+00 -0.130647232E+01
     4
 # iter = 51000  time[fs]=51.00000
   C -0.491211889E+01  0.313152901E+00  0.995315083E-01
   C  0.478388798E+01 -0.936484372E-01 -0.383782992E-01
   H -0.254672509E+02 -0.215295546E+01  0.249909677E+00
   H  0.245323942E+02 -0.787304264E+00 -0.132741804E+01
     4
 # iter = 51500  time[fs]=51.50000
   C -0.499765896E+01  0.318807901E+00  0.101330913E+00
   C  0.486705513E+01 -0.950471856E-01 -0.385970767E-01
   H -0.258748583E+02 -0.218790553E+01  0.253965602E+00
   H  0.249184969E+02 -0.799045710E+00 -0.134838027E+01
     4
 # iter = 52000  time[fs]=52.00000
   C -0.508333150E+01  0.324470918E+00  0.103132563E+00
   C  0.495035435E+01 -0.964509046E-01 -0.388169709E-01
   H -0.262827367E+02 -0.222288312E+01  0.258023993E+00
   H  0.253048754E+02 -0.810796208E+00 -0.136935852E+01
     4
 # iter = 52500  time[fs]=52.50000
   C -0.516913205E+01  0.330141692E+00  0.104936381E+00
   C  0.503378116E+01 -0.978594254E-01 -0.390379352E-01
   H -0.266908778E+02 -0.225788739E+01  0.262084773E+00
   H  0.256915214E+02 -0.822555483E+00 -0.139035231E+01
     4
 # iter = 53000  time[fs]=53.00000
   C -0.525505636E+01  0.335819975E+00  0.106742290E+00
   C  0.511733135E+01 -0.992725872E-01 -0.392599259E-01
   H -0.270992737E+02 -0.229291756E+01  0.266147869E+00
   H  0.260784270E+02 -0.834323272E+00 -0.141136120E+01
     4
 # iter = 53500  time[fs]=53.50000
   C -0.534110041E+01  0.341505531E+00  0.108550218E+00
   C  0.520100086E+01 -0.100690237E+00 -0.394829013E-01
   H -0.275079168E+02 -0.232797289E+01  0.270213211E+00
   H  0.264655847E+02 -0.846099323E+00 -0.143238476E+01
     4
 # iter = 54000  time[fs]=54.00000
   C -0.542726034E+01  0.347198134E+00  0.110360098E+00
   C  0.528478586E+01 -0.102112229E+00 -0.397068223E-01
   H -0.279167999E+02 -0.236305265E+01  0.274280732E+00
   H  0.268529871E+02 -0.857883398E+00 -0.145342257E+01
     4
 # iter = 54500  time[fs]=54.50000
   C -0.551353247E+01  0.352897568E+00  0.112171864E+00
   C  0.536868268E+01 -0.103538424E+00 -0.399316518E-01
   H -0.283259161E+02 -0.239815617E+01  0.278350366E+00
   H  0.272406273E+02 -0.869675264E+00 -0.147447422E+01
     4
 # iter = 55000  time[fs]=55.00000
   C -0.559991330E+01  0.358603629E+00  0.113985455E+00
   C  0.545268780E+01 -0.104968689E+00 -0.401573548E-01
   H -0.287352588E+02 -0.243328278E+01  0.282422054E+00
   H  0.276284987E+02 -0.881474701E+00 -0.149553935E+01
     4
 # iter = 55500  time[fs]=55.50000
   C -0.568639949E+01  0.364316118E+00  0.115800813E+00
   C  0.553679790E+01 -0.106402899E+00 -0.403838978E-01
   H -0.291448217E+02 -0.246843184E+01  0.286495735E+00
   H  0.280165949E+02 -0.893281498E+00 -0.151661758E+01
     4
 # iter = 56000  time[fs]=56.00000
   C -0.577298784E+01  0.370034848E+00  0.117617880E+00
   C  0.562100977E+01 -0.107840931E+00 -0.406112495E-01
   H -0.295545986E+02 -0.250360276E+01  0.290571354E+00
   H  0.284049097E+02 -0.905095452E+00 -0.153770857E+01
     4
 # iter = 56500  time[fs]=56.50000
   C -0.585967527E+01  0.375759637E+00  0.119436604E+00
   C  0.570532035E+01 -0.109282671E+00 -0.408393798E-01
   H -0.299645838E+02 -0.253879495E+01  0.294648856E+00
   H  0.287934373E+02 -0.916916369E+00 -0.155881197E+01
     4
 # iter = 57000  time[fs]=57.00000
   C -0.594645888E+01  0.381490314E+00  0.121256933E+00
   C  0.578972673E+01 -0.110728007E+00 -0.410682604E-01
   H -0.303747716E+02 -0.257400785E+01  0.298728190E+00
   H  0.291821719E+02 -0.928744061E+00 -0.157992747E+01
     4
 # iter = 57500  time[fs]=57.50000
   C -0.603333584E+01  0.387226713E+00  0.123078819E+00
   C  0.587422609E+01 -0.112176835E+00 -0.412978642E-01
   H -0.307851566E+02 -0.260924093E+01  0.302809306E+00
   H  0.295711083E+02 -0.940578348E+00 -0.160105475E+01
     4
 # iter = 58000  time[fs]=58.00000
   C -0.612030348E+01  0.392968675E+00  0.124902214E+00
   C  0.595881577E+01 -0.113629053E+00 -0.415281655E-01
   H -0.311957336E+02 -0.264449365E+01  0.306892156E+00
   H  0.299602410E+02 -0.952419059E+00 -0.162219350E+01
     4
 # iter = 58500  time[fs]=58.50000
   C -0.620735922E+01  0.398716047E+00  0.126727074E+00
   C  0.604349319E+01 -0.115084563E+00 -0.417591400E-01
   H -0.316064978E+02 -0.267976554E+01  0.310976694E+00
   H  0.303495652E+02 -0.964266027E+00 -0.164334345E+01
     4
 # iter = 59000  time[fs]=59.00000
   C -0.629450059E+01  0.404468684E+00  0.128553357E+00
   C  0.612825588E+01 -0.116543272E+00 -0.419907643E-01
   H -0.320174442E+02 -0.271505610E+01  0.315062876E+00
   H  0.307390760E+02 -0.976119092E+00 -0.166450431E+01
     4
 # iter = 59500  time[fs]=59.50000
   C -0.638172522E+01  0.410226444E+00  0.130381021E+00
   C  0.621310149E+01 -0.118005092E+00 -0.422230163E-01
   H -0.324285684E+02 -0.275036488E+01  0.319150660E+00
   H  0.311287687E+02 -0.987978102E+00 -0.168567582E+01
     4
 # iter = 60000  time[fs]=60.00000
   C -0.646903085E+01  0.415989192E+00  0.132210027E+00
   C  0.629802773E+01 -0.119469936E+00 -0.424558748E-01
   H -0.328398658E+02 -0.278569143E+01  0.323240004E+00
   H  0.315186388E+02 -0.999842907E+00 -0.170685772E+01
     4
 # iter = 60500  time[fs]=60.50000
   C -0.655641527E+01  0.421756799E+00  0.134040337E+00
   C  0.638303243E+01 -0.120937723E+00 -0.426893197E-01
   H -0.332513321E+02 -0.282103532E+01  0.327330870E+00
   H  0.319086820E+02 -0.101171336E+01 -0.172804975E+01
     4
 # iter = 61000  time[fs]=61.00000
   C -0.664387640E+01  0.427529140E+00  0.135871916E+00
   C  0.646811350E+01 -0.122408373E+00 -0.429233317E-01
   H -0.336629634E+02 -0.285639614E+01  0.331423220E+00
   H  0.322988942E+02 -0.102358934E+01 -0.174925168E+01
     4
 # iter = 61500  time[fs]=61.50000
   C -0.673141221E+01  0.433306094E+00  0.137704729E+00
   C  0.655326892E+01 -0.123881811E+00 -0.431578925E-01
   H -0.340747555E+02 -0.289177349E+01  0.335517017E+00
   H  0.326892713E+02 -0.103547069E+01 -0.177046328E+01
     4
 # iter = 62000  time[fs]=62.00000
   C -0.681902077E+01  0.439087546E+00  0.139538742E+00
   C  0.663849675E+01 -0.125357963E+00 -0.433929844E-01
   H -0.344867047E+02 -0.292716699E+01  0.339612225E+00
   H  0.330798094E+02 -0.104735731E+01 -0.179168432E+01
     4
 # iter = 62500  time[fs]=62.50000
   C -0.690670019E+01  0.444873384E+00  0.141373923E+00
   C  0.672379512E+01 -0.126836759E+00 -0.436285908E-01
   H -0.348988073E+02 -0.296257625E+01  0.343708812E+00
   H  0.334705047E+02 -0.105924905E+01 -0.181291458E+01
     4
 # iter = 63000  time[fs]=63.00000
   C -0.699444870E+01  0.450663501E+00  0.143210242E+00
   C  0.680916225E+01 -0.128318131E+00 -0.438646955E-01
   H -0.353110597E+02 -0.299800093E+01  0.347806744E+00
   H  0.338613538E+02 -0.107114580E+01 -0.183415387E+01
     4
 # iter = 63500  time[fs]=63.50000
   C -0.708226454E+01  0.456457793E+00  0.145047669E+00
   C  0.689459641E+01 -0.129802015E+00 -0.441012832E-01
   H -0.357234585E+02 -0.303344068E+01  0.351905990E+00
   H  0.342523530E+02 -0.108304746E+01 -0.185540196E+01
     4
 # iter = 64000  time[fs]=64.00000
   C -0.717014606E+01  0.462256159E+00  0.146886175E+00
   C  0.698009592E+01 -0.131288347E+00 -0.443383392E-01
   H -0.361360002E+02 -0.306889516E+01  0.356006519E+00
   H  0.346434989E+02 -0.109495390E+01 -0.187665868E+01
     4
 # iter = 64500  time[fs]=64.50000
   C -0.725809164E+01  0.468058504E+00  0.148725734E+00
   C  0.706565919E+01 -0.132777068E+00 -0.445758492E-01
   H -0.365486818E+02 -0.310436404E+01  0.360108302E+00
   H  0.350347884E+02 -0.110686501E+01 -0.189792382E+01
     4
 # iter = 65000  time[fs]=65.00000
   C -0.734609972E+01  0.473864735E+00  0.150566319E+00
   C  0.715128466E+01 -0.134268119E+00 -0.448137999E-01
   H -0.369615001E+02 -0.313984702E+01  0.364211310E+00
   H  0.354262183E+02 -0.111878071E+01 -0.191919722E+01
     4
 # iter = 65500  time[fs]=65.50000
   C -0.743416882E+01  0.479674761E+00  0.152407903E+00
   C  0.723697084E+01 -0.135761443E+00 -0.450521783E-01
   H -0.373744520E+02 -0.317534378E+01  0.368315516E+00
   H  0.358177854E+02 -0.113070087E+01 -0.194047868E+01
     4
 # iter = 66000  time[fs]=66.00000
   C -0.752229748E+01  0.485488495E+00  0.154250464E+00
   C  0.732271629E+01 -0.137256986E+00 -0.452909719E-01
   H -0.377875348E+02 -0.321085403E+01  0.372420893E+00
   H  0.362094868E+02 -0.114262541E+01 -0.196176804E+01
     4
 # iter = 66500  time[fs]=66.50000
   C -0.761048431E+01  0.491305855E+00  0.156093977E+00
   C  0.740851962E+01 -0.138754697E+00 -0.455301687E-01
   H -0.382007455E+02 -0.324637749E+01  0.376527416E+00
   H  0.366013197E+02 -0.115455424E+01 -0.198306514E+01
     4
 # iter = 67000  time[fs]=67.00000
   C -0.769872796E+01  0.497126757E+00  0.157938419E+00
   C  0.749437948E+01 -0.140254524E+00 -0.457697573E-01
   H -0.386140814E+02 -0.328191389E+01  0.380635060E+00
   H  0.369932813E+02 -0.116648726E+01 -0.200436981E+01
     4
 # iter = 67500  time[fs]=67.50000
   C -0.778702713E+01  0.502951125E+00  0.159783769E+00
   C  0.758029457E+01 -0.141756419E+00 -0.460097268E-01
   H -0.390275399E+02 -0.331746295E+01  0.384743800E+00
   H  0.373853689E+02 -0.117842437E+01 -0.202568189E+01
     4
 # iter = 68000  time[fs]=68.00000
   C -0.787538055E+01  0.508778881E+00  0.161630005E+00
   C  0.766626363E+01 -0.143260334E+00 -0.462500664E-01
   H -0.394411184E+02 -0.335302441E+01  0.388853613E+00
   H  0.377775799E+02 -0.119036551E+01 -0.204700124E+01
     4
 # iter = 68500  time[fs]=68.50000
   C -0.796378701E+01  0.514609953E+00  0.163477106E+00
   C  0.775228547E+01 -0.144766224E+00 -0.464907661E-01
   H -0.398548145E+02 -0.338859803E+01  0.392964477E+00
   H  0.381699117E+02 -0.120231058E+01 -0.206832770E+01
     4
 # iter = 69000  time[fs]=69.00000
   C -0.805224534E+01  0.520444269E+00  0.165325053E+00
   C  0.783835888E+01 -0.146274045E+00 -0.467318159E-01
   H -0.402686257E+02 -0.342418356E+01  0.397076369E+00
   H  0.385623619E+02 -0.121425951E+01 -0.208966114E+01
     4
 # iter = 69500  time[fs]=69.50000
   C -0.814075438E+01  0.526281760E+00  0.167173827E+00
   C  0.792448276E+01 -0.147783753E+00 -0.469732066E-01
   H -0.406825497E+02 -0.345978076E+01  0.401189269E+00
   H  0.389549282E+02 -0.122621221E+01 -0.211100142E+01
     4
 # iter = 70000  time[fs]=70.00000
   C -0.822931304E+01  0.532122360E+00  0.169023409E+00
   C  0.801065598E+01 -0.149295308E+00 -0.472149289E-01
   H -0.410965842E+02 -0.349538940E+01  0.405303156E+00
   H  0.393476082E+02 -0.123816861E+01 -0.213234840E+01
     4
 # iter = 70500  time[fs]=70.50000
   C -0.831792025E+01  0.537966003E+00  0.170873781E+00
   C  0.809687749E+01 -0.150808670E+00 -0.474569743E-01
   H -0.415107270E+02 -0.353100926E+01  0.409418009E+00
   H  0.397403996E+02 -0.125012863E+01 -0.215370195E+01
     4
 # iter = 71000  time[fs]=71.00000
   C -0.840657497E+01  0.543812628E+00  0.172724926E+00
   C  0.818314625E+01 -0.152323800E+00 -0.476993342E-01
   H -0.419249761E+02 -0.356664012E+01  0.413533810E+00
   H  0.401333003E+02 -0.126209221E+01 -0.217506195E+01
     4
 # iter = 71500  time[fs]=71.50000
   C -0.849527620E+01  0.549662173E+00  0.174576827E+00
   C  0.826946127E+01 -0.153840660E+00 -0.479420005E-01
   H -0.423393293E+02 -0.360228178E+01  0.417650540E+00
   H  0.405263082E+02 -0.127405928E+01 -0.219642828E+01
     4
 # iter = 72000  time[fs]=72.00000
   C -0.858402297E+01  0.555514579E+00  0.176429467E+00
   C  0.835582158E+01 -0.155359214E+00 -0.481849654E-01
   H -0.427537846E+02 -0.363793402E+01  0.421768180E+00
   H  0.409194213E+02 -0.128602977E+01 -0.221780080E+01
     4
 # iter = 72500  time[fs]=72.50000
   C -0.867281434E+01  0.561369788E+00  0.178282832E+00
   C  0.844222623E+01 -0.156879426E+00 -0.484282213E-01
   H -0.431683401E+02 -0.367359665E+01  0.425886713E+00
   H  0.413126375E+02 -0.129800361E+01 -0.223917942E+01
     4
 # iter = 73000  time[fs]=73.00000
   C -0.876164939E+01  0.567227746E+00  0.180136905E+00
   C  0.852867433E+01 -0.158401264E+00 -0.486717610E-01
   H -0.435829938E+02 -0.370926948E+01  0.430006121E+00
   H  0.417059548E+02 -0.130998073E+01 -0.226056401E+01
     4
 # iter = 73500  time[fs]=73.50000
   C -0.885052723E+01  0.573088399E+00  0.181991672E+00
   C  0.861516497E+01 -0.159924692E+00 -0.489155775E-01
   H -0.439977440E+02 -0.374495231E+01  0.434126388E+00
   H  0.420993715E+02 -0.132196109E+01 -0.228195447E+01
     4
 # iter = 74000  time[fs]=74.00000
   C -0.893944700E+01  0.578951693E+00  0.183847119E+00
   C  0.870169732E+01 -0.161449680E+00 -0.491596638E-01
   H -0.444125888E+02 -0.378064497E+01  0.438247498E+00
   H  0.424928857E+02 -0.133394462E+01 -0.230335068E+01
     4
 # iter = 74500  time[fs]=74.50000
   C -0.902840788E+01  0.584817578E+00  0.185703232E+00
   C  0.878827052E+01 -0.162976196E+00 -0.494040136E-01
   H -0.448275265E+02 -0.381634728E+01  0.442369434E+00
   H  0.428864956E+02 -0.134593125E+01 -0.232475255E+01
     4
 # iter = 75000  time[fs]=75.00000
   C -0.911740904E+01  0.590686005E+00  0.187559996E+00
   C  0.887488379E+01 -0.164504209E+00 -0.496486203E-01
   H -0.452425554E+02 -0.385205906E+01  0.446492181E+00
   H  0.432801994E+02 -0.135792094E+01 -0.234615997E+01
     4
 # iter = 75500  time[fs]=75.50000
   C -0.920644970E+01  0.596556925E+00  0.189417400E+00
   C  0.896153633E+01 -0.166033691E+00 -0.498934780E-01
   H -0.456576738E+02 -0.388778014E+01  0.450615725E+00
   H  0.436739955E+02 -0.136991362E+01 -0.236757285E+01
     4
 # iter = 76000  time[fs]=76.00000
   C -0.929552910E+01  0.602430292E+00  0.191275430E+00
   C  0.904822738E+01 -0.167564612E+00 -0.501385807E-01
   H -0.460728801E+02 -0.392351036E+01  0.454740051E+00
   H  0.440678822E+02 -0.138190925E+01 -0.238899108E+01
     4
 # iter = 76500  time[fs]=76.50000
   C -0.938464650E+01  0.608306060E+00  0.193134074E+00
   C  0.913495620E+01 -0.169096945E+00 -0.503839226E-01
   H -0.464881728E+02 -0.395924957E+01  0.458865144E+00
   H  0.444618579E+02 -0.139390777E+01 -0.241041458E+01
     4
 # iter = 77000  time[fs]=77.00000
   C -0.947380116E+01  0.614184185E+00  0.194993321E+00
   C  0.922172207E+01 -0.170630664E+00 -0.506294982E-01
   H -0.469035503E+02 -0.399499760E+01  0.462990992E+00
   H  0.448559211E+02 -0.140590913E+01 -0.243184326E+01
     4
 # iter = 77500  time[fs]=77.50000
   C -0.956299239E+01  0.620064625E+00  0.196853157E+00
   C  0.930852429E+01 -0.172165741E+00 -0.508753022E-01
   H -0.473190111E+02 -0.403075430E+01  0.467117580E+00
   H  0.452500702E+02 -0.141791328E+01 -0.245327702E+01
     4
 # iter = 78000  time[fs]=78.00000
   C -0.965221951E+01  0.625947336E+00  0.198713573E+00
   C  0.939536219E+01 -0.173702151E+00 -0.511213293E-01
   H -0.477345539E+02 -0.406651953E+01  0.471244895E+00
   H  0.456443038E+02 -0.142992017E+01 -0.247471578E+01
     4
 # iter = 78500  time[fs]=78.50000
   C -0.974148184E+01  0.631832279E+00  0.200574557E+00
   C  0.948223509E+01 -0.175239870E+00 -0.513675746E-01
   H -0.481501772E+02 -0.410229314E+01  0.475372925E+00
   H  0.460386204E+02 -0.144192976E+01 -0.249615945E+01
     4
 # iter = 79000  time[fs]=79.00000
   C -0.983077875E+01  0.637719414E+00  0.202436099E+00
   C  0.956914236E+01 -0.176778873E+00 -0.516140331E-01
   H -0.485658795E+02 -0.413807500E+01  0.479501657E+00
   H  0.464330187E+02 -0.145394200E+01 -0.251760796E+01
     4
 # iter = 79500  time[fs]=79.50000
   C -0.992010961E+01  0.643608702E+00  0.204298187E+00
   C  0.965608337E+01 -0.178319136E+00 -0.518607002E-01
   H -0.489816597E+02 -0.417386495E+01  0.483631080E+00
   H  0.468274972E+02 -0.146595684E+01 -0.253906122E+01
     4
 # iter = 80000  time[fs]=80.00000
   C -0.100094738E+02  0.649500106E+00  0.206160812E+00
   C  0.974305751E+01 -0.179860638E+00 -0.521075712E-01
   H -0.493975164E+02 -0.420966288E+01  0.487761181E+00
   H  0.472220546E+02 -0.147797424E+01 -0.256051915E+01
