     4
 # iter = 25000  time[fs]=25.00000
   C -0.102844428E+01 -0.858734470E-02  0.189386280E-01
   C  0.957441407E+00  0.320584936E-01 -0.604604887E-01
   H -0.525055183E+01 -0.419503814E+00 -0.563499529E+00
   H  0.530192710E+01  0.264776985E+00  0.559089293E+00
     4
 # iter = 25500  time[fs]=25.50000
   C -0.107735857E+01 -0.778588828E-02  0.215621343E-01
   C  0.999538138E+00  0.321813426E-01 -0.634757595E-01
   H -0.558544631E+01 -0.446697429E+00 -0.601006733E+00
   H  0.561493021E+01  0.281316520E+00  0.596739994E+00
     4
 # iter = 26000  time[fs]=26.00000
   C -0.112925040E+01 -0.702110336E-02  0.243445691E-01
   C  0.104464080E+01  0.323599314E-01 -0.666475382E-01
   H -0.592595821E+01 -0.474388959E+00 -0.639188996E+00
   H  0.593321009E+01  0.298125151E+00  0.635036705E+00
     4
 # iter = 26500  time[fs]=26.50000
   C -0.118386715E+01 -0.628733497E-02  0.272735986E-01
   C  0.109249040E+01  0.325861781E-01 -0.699642280E-01
   H -0.627144777E+01 -0.502521638E+00 -0.677970437E+00
   H  0.625620341E+01  0.315175233E+00  0.673912393E+00
     4
 # iter = 27000  time[fs]=27.00000
   C -0.124097399E+01 -0.557966773E-02  0.303378337E-01
   C  0.114284718E+01  0.328531560E-01 -0.734149948E-01
   H -0.662137295E+01 -0.531047504E+00 -0.717286886E+00
   H  0.658342726E+01  0.332442943E+00  0.713309546E+00
     4
 # iter = 27500  time[fs]=27.50000
   C -0.130035491E+01 -0.489387903E-02  0.335267903E-01
   C  0.119549129E+01  0.331549599E-01 -0.769897741E-01
   H -0.697527139E+01 -0.559925728E+00 -0.757083657E+00
   H  0.691446536E+01  0.349907641E+00  0.753178511E+00
     4
 # iter = 28000  time[fs]=28.00000
   C -0.136181270E+01 -0.422637128E-02  0.368308457E-01
   C  0.125022250E+01  0.334865734E-01 -0.806792614E-01
   H -0.733274618E+01 -0.589121311E+00 -0.797313810E+00
   H  0.724895690E+01  0.367551353E+00  0.793476169E+00
     4
 # iter = 28500  time[fs]=28.50000
   C -0.142516825E+01 -0.357409690E-02  0.402411895E-01
   C  0.130685936E+01  0.338437432E-01 -0.844748881E-01
   H -0.769345449E+01 -0.618604059E+00 -0.837936789E+00
   H  0.758658750E+01  0.385358356E+00  0.834164865E+00
     4
 # iter = 29000  time[fs]=29.00000
   C -0.149025956E+01 -0.293448410E-02  0.437497715E-01
   C  0.136523797E+01  0.342228650E-01 -0.883687879E-01
   H -0.805709858E+01 -0.648347759E+00 -0.878917338E+00
   H  0.792708193E+01  0.403314826E+00  0.875211551E+00
     4
 # iter = 29500  time[fs]=29.50000
   C -0.155694038E+01 -0.230536782E-02  0.473492466E-01
   C  0.142521059E+01  0.346208844E-01 -0.923537553E-01
   H -0.842341846E+01 -0.678329534E+00 -0.920224634E+00
   H  0.827019812E+01  0.421408559E+00  0.916587078E+00
     4
 # iter = 30000  time[fs]=30.00000
   C -0.162507894E+01 -0.168492790E-02  0.510329189E-01
   C  0.148664426E+01  0.350352098E-01 -0.964232000E-01
   H -0.879218595E+01 -0.708529307E+00 -0.961831589E+00
   H  0.861572217E+01  0.439628732E+00  0.958265624E+00
     4
 # iter = 30500  time[fs]=30.50000
   C -0.169455652E+01 -0.107163510E-02  0.547946876E-01
   C  0.154941931E+01  0.354636394E-01 -0.100571100E+00
   H -0.916319987E+01 -0.738929373E+00 -0.100371428E+01
   H  0.896346435E+01  0.457965714E+00  0.100022422E+01
     4
 # iter = 31000  time[fs]=31.00000
   C -0.176526619E+01 -0.464204614E-03  0.586289941E-01
   C  0.161342805E+01  0.359042987E-01 -0.104791957E+00
   H -0.953628205E+01 -0.769514049E+00 -0.104585147E+01
   H  0.931325568E+01  0.476410898E+00  0.104244233E+01
     4
 # iter = 31500  time[fs]=31.50000
   C -0.183711159E+01  0.138443313E-03  0.625307724E-01
   C  0.167857349E+01  0.363555883E-01 -0.109080746E+00
   H -0.991127404E+01 -0.800269383E+00 -0.108822426E+01
   H  0.966494509E+01  0.494956566E+00  0.108490157E+01
     4
 # iter = 32000  time[fs]=32.00000
   C -0.191000581E+01  0.737216666E-03  0.664954029E-01
   C  0.174476824E+01  0.368161403E-01 -0.113432879E+00
   H -0.102880344E+02 -0.831182910E+00 -0.113081572E+01
   H  0.100183971E+02  0.513595776E+00  0.112758539E+01
     4
 # iter = 32500  time[fs]=32.50000
   C -0.198387037E+01  0.133287953E-02  0.705186697E-01
   C  0.181193341E+01  0.372847816E-01 -0.117844161E+00
   H -0.106664363E+02 -0.862243458E+00 -0.117361067E+01
   H  0.103734896E+02  0.532322258E+00  0.117047883E+01
     4
 # iter = 33000  time[fs]=33.00000
   C -0.205863431E+01  0.192607539E-02  0.745967216E-01
   C  0.187999773E+01  0.377605037E-01 -0.122310754E+00
   H -0.110463659E+02 -0.893440969E+00 -0.121659540E+01
   H  0.107301127E+02  0.551130339E+00  0.121356838E+01
     4
 # iter = 33500  time[fs]=33.50000
   C -0.213423338E+01  0.251734661E-02  0.787260366E-01
   C  0.194889667E+01  0.382424371E-01 -0.126829142E+00
   H -0.114277203E+02 -0.924766367E+00 -0.125975756E+01
   H  0.110881665E+02  0.570014866E+00  0.125684175E+01
     4
 # iter = 34000  time[fs]=34.00000
   C -0.221060929E+01  0.310715061E-02  0.829033897E-01
   C  0.201857175E+01  0.387298302E-01 -0.131396105E+00
   H -0.118104064E+02 -0.956211430E+00 -0.130308591E+01
   H  0.114475605E+02  0.588971150E+00  0.130028774E+01
     4
 # iter = 34500  time[fs]=34.50000
   C -0.228770910E+01  0.369587339E-02  0.871258245E-01
   C  0.208896987E+01  0.392220315E-01 -0.136008685E+00
   H -0.121943398E+02 -0.987768692E+00 -0.134657025E+01
   H  0.118082121E+02  0.607994907E+00  0.134389614E+01
     4
 # iter = 35000  time[fs]=35.00000
   C -0.236548463E+01  0.428384081E-02  0.913906264E-01
   C  0.216004271E+01  0.397184748E-01 -0.140664163E+00
   H -0.125794437E+02 -0.101943135E+01 -0.139020127E+01
   H  0.121700462E+02  0.627082221E+00  0.138765760E+01
     4
 # iter = 35500  time[fs]=35.50000
   C -0.244389194E+01  0.487132801E-02  0.956952998E-01
   C  0.223174624E+01  0.402186669E-01 -0.145360038E+00
   H -0.129656479E+02 -0.105119319E+01 -0.143397046E+01
   H  0.125329937E+02  0.646229497E+00  0.143156353E+01
     4
 # iter = 36000  time[fs]=36.00000
   C -0.252289092E+01  0.545856723E-02  0.100037547E+00
   C  0.230404026E+01  0.407221768E-01 -0.150094004E+00
   H -0.133528883E+02 -0.108304853E+01 -0.147787002E+01
   H  0.128969916E+02  0.665433431E+00  0.147560604E+01
     4
 # iter = 36500  time[fs]=36.50000
   C -0.260244487E+01  0.604575447E-02  0.104415250E+00
   C  0.237688802E+01  0.412286271E-01 -0.154863936E+00
   H -0.137411061E+02 -0.111499215E+01 -0.152189278E+01
   H  0.132619816E+02  0.684690981E+00  0.151977786E+01
     4
 # iter = 37000  time[fs]=37.00000
   C -0.268252016E+01  0.663305494E-02  0.108826453E+00
   C  0.245025582E+01  0.417376867E-01 -0.159667866E+00
   H -0.141302471E+02 -0.114701924E+01 -0.156603214E+01
   H  0.136279103E+02  0.703999336E+00  0.156407227E+01
     4
 # iter = 37500  time[fs]=37.50000
   C -0.276308589E+01  0.722060774E-02  0.113269346E+00
   C  0.252411277E+01  0.422490642E-01 -0.164503976E+00
   H -0.145202616E+02 -0.117912538E+01 -0.161028200E+01
   H  0.139947282E+02  0.723355899E+00  0.160848306E+01
     4
 # iter = 38000  time[fs]=38.00000
   C -0.284411369E+01  0.780852976E-02  0.117742256E+00
   C  0.259843044E+01  0.427625025E-01 -0.169370581E+00
   H -0.149111037E+02 -0.121130648E+01 -0.165463674E+01
   H  0.143623897E+02  0.742758262E+00  0.165300447E+01
     4
 # iter = 38500  time[fs]=38.50000
   C -0.292557738E+01  0.839691897E-02  0.122243628E+00
   C  0.267318266E+01  0.432777748E-01 -0.174266116E+00
   H -0.153027308E+02 -0.124355876E+01 -0.169909114E+01
   H  0.147308524E+02  0.762204190E+00  0.169763113E+01
     4
 # iter = 39000  time[fs]=39.00000
   C -0.300745283E+01  0.898585721E-02  0.126772022E+00
   C  0.274834530E+01  0.437946799E-01 -0.179189128E+00
   H -0.156951037E+02 -0.127587871E+01 -0.174364035E+01
   H  0.151000770E+02  0.781691606E+00  0.174235809E+01
     4
 # iter = 39500  time[fs]=39.50000
   C -0.308971775E+01  0.957541253E-02  0.131326096E+00
   C  0.282389606E+01  0.443130396E-01 -0.184138265E+00
   H -0.160881857E+02 -0.130826307E+01 -0.178827988E+01
   H  0.154700269E+02  0.801218573E+00  0.178718070E+01
     4
 # iter = 40000  time[fs]=40.00000
   C -0.317235149E+01  0.101656412E-01  0.135904601E+00
   C  0.289981429E+01  0.448326953E-01 -0.189112267E+00
   H -0.164819430E+02 -0.134070882E+01 -0.183300552E+01
   H  0.158406683E+02  0.820783288E+00  0.183209463E+01
     4
 # iter = 40500  time[fs]=40.50000
   C -0.325533492E+01  0.107565895E-01  0.140506375E+00
   C  0.297608087E+01  0.453535058E-01 -0.194109960E+00
   H -0.168763439E+02 -0.137321311E+01 -0.187781338E+01
   H  0.162119692E+02  0.840384062E+00  0.187709584E+01
     4
 # iter = 41000  time[fs]=41.00000
   C -0.333865027E+01  0.113482949E-01  0.145130330E+00
   C  0.305267807E+01  0.458753454E-01 -0.199130245E+00
   H -0.172713589E+02 -0.140577333E+01 -0.192269980E+01
   H  0.165839001E+02  0.860019320E+00  0.192218054E+01
     4
 # iter = 41500  time[fs]=41.50000
   C -0.342228104E+01  0.119407877E-01  0.149775451E+00
   C  0.312958937E+01  0.463981015E-01 -0.204172096E+00
   H -0.176669605E+02 -0.143838699E+01 -0.196766136E+01
   H  0.169564332E+02  0.879687583E+00  0.196734519E+01
     4
 # iter = 42000  time[fs]=42.00000
   C -0.350621186E+01  0.125340917E-01  0.154440787E+00
   C  0.320679943E+01  0.469216735E-01 -0.209234554E+00
   H -0.180631230E+02 -0.147105180E+01 -0.201269486E+01
   H  0.173295427E+02  0.899387465E+00  0.201258646E+01
     4
 # iter = 42500  time[fs]=42.50000
   C -0.359042838E+01  0.131282254E-01  0.159125449E+00
   C  0.328429393E+01  0.474459712E-01 -0.214316716E+00
   H -0.184598221E+02 -0.150376559E+01 -0.205779729E+01
   H  0.177032041E+02  0.919117664E+00  0.205790122E+01
     4
 # iter = 43000  time[fs]=43.00000
   C -0.367491725E+01  0.137232024E-01  0.163828602E+00
   C  0.336205952E+01  0.479709137E-01 -0.219417738E+00
   H -0.188570354E+02 -0.153652633E+01 -0.210296584E+01
   H  0.180773945E+02  0.938876956E+00  0.210328653E+01
     4
 # iter = 43500  time[fs]=43.50000
   C -0.375966596E+01  0.143190325E-01  0.168549461E+00
   C  0.344008373E+01  0.484964282E-01 -0.224536826E+00
   H -0.192547414E+02 -0.156933211E+01 -0.214819786E+01
   H  0.184520925E+02  0.958664188E+00  0.214873961E+01
     4
 # iter = 44000  time[fs]=44.00000
   C -0.384466281E+01  0.149157222E-01  0.173287289E+00
   C  0.351835488E+01  0.490224493E-01 -0.229673234E+00
   H -0.196529204E+02 -0.160218114E+01 -0.219349083E+01
   H  0.188272779E+02  0.978478273E+00  0.219425786E+01
     4
 # iter = 44500  time[fs]=44.50000
   C -0.392989685E+01  0.155132748E-01  0.178041393E+00
   C  0.359686202E+01  0.495489181E-01 -0.234826257E+00
   H -0.200515534E+02 -0.163507173E+01 -0.223884242E+01
   H  0.192029315E+02  0.998318187E+00  0.223983880E+01
     4
 # iter = 45000  time[fs]=45.00000
   C -0.401535778E+01  0.161116912E-01  0.182811120E+00
   C  0.367559491E+01  0.500757814E-01 -0.239995235E+00
   H -0.204506227E+02 -0.166800227E+01 -0.228425039E+01
   H  0.195790354E+02  0.101818296E+01  0.228548011E+01
     4
 # iter = 45500  time[fs]=45.50000
   C -0.410103597E+01  0.167109703E-01  0.187595852E+00
   C  0.375454391E+01  0.506029913E-01 -0.245179542E+00
   H -0.208501116E+02 -0.170097127E+01 -0.232971265E+01
   H  0.199555725E+02  0.103807168E+01  0.233117958E+01
     4
 # iter = 46000  time[fs]=46.00000
   C -0.418692234E+01  0.173111089E-01  0.192395009E+00
   C  0.383369997E+01  0.511305043E-01 -0.250378587E+00
   H -0.212500044E+02 -0.173397731E+01 -0.237522721E+01
   H  0.203325269E+02  0.105798348E+01  0.237693513E+01
     4
 # iter = 46500  time[fs]=46.50000
   C -0.427300834E+01  0.179121024E-01  0.197208041E+00
   C  0.391305457E+01  0.516582814E-01 -0.255591814E+00
   H -0.216502861E+02 -0.176701902E+01 -0.242079219E+01
   H  0.207098832E+02  0.107791753E+01  0.242274477E+01
     4
 # iter = 47000  time[fs]=47.00000
   C -0.435928593E+01  0.185139451E-01  0.202034429E+00
   C  0.399259970E+01  0.521862869E-01 -0.260818695E+00
   H -0.220509426E+02 -0.180009515E+01 -0.246640582E+01
   H  0.210876272E+02  0.109787307E+01  0.246860664E+01
     4
 # iter = 47500  time[fs]=47.50000
   C -0.444574753E+01  0.191166298E-01  0.206873681E+00
   C  0.407232778E+01  0.527144887E-01 -0.266058730E+00
   H -0.224519604E+02 -0.183320448E+01 -0.251206640E+01
   H  0.214657452E+02  0.111784934E+01  0.251451894E+01
     4
 # iter = 48000  time[fs]=48.00000
   C -0.453238597E+01  0.197201486E-01  0.211725330E+00
   C  0.415223169E+01  0.532428578E-01 -0.271311445E+00
   H -0.228533270E+02 -0.186634586E+01 -0.255777233E+01
   H  0.218442241E+02  0.113784565E+01  0.256047998E+01
     4
 # iter = 48500  time[fs]=48.50000
   C -0.461919449E+01  0.203244929E-01  0.216588936E+00
   C  0.423230467E+01  0.537713676E-01 -0.276576393E+00
   H -0.232550302E+02 -0.189951821E+01 -0.260352208E+01
   H  0.222230518E+02  0.115786134E+01  0.260648816E+01
     4
 # iter = 49000  time[fs]=49.00000
   C -0.470616669E+01  0.209296533E-01  0.221464078E+00
   C  0.431254034E+01  0.542999941E-01 -0.281853146E+00
   H -0.236570588E+02 -0.193272049E+01 -0.264931421E+01
   H  0.226022166E+02  0.117789576E+01  0.265254195E+01
     4
 # iter = 49500  time[fs]=49.50000
   C -0.479329651E+01  0.215356198E-01  0.226350360E+00
   C  0.439293268E+01  0.548287156E-01 -0.287141300E+00
   H -0.240594016E+02 -0.196595171E+01 -0.269514735E+01
   H  0.229817072E+02  0.119794831E+01  0.269863987E+01
     4
 # iter = 50000  time[fs]=50.00000
   C -0.488057822E+01  0.221423823E-01  0.231247402E+00
   C  0.447347596E+01  0.553575123E-01 -0.292440470E+00
   H -0.244620486E+02 -0.199921094E+01 -0.274102016E+01
   H  0.233615131E+02  0.121801842E+01  0.274478056E+01
     4
 # iter = 50500  time[fs]=50.50000
   C -0.496800637E+01  0.227499301E-01  0.236154844E+00
   C  0.455416477E+01  0.558863661E-01 -0.297750290E+00
   H -0.248649897E+02 -0.203249730E+01 -0.278693142E+01
   H  0.237416243E+02  0.123810554E+01  0.279096266E+01
     4
 # iter = 51000  time[fs]=51.00000
   C -0.505557581E+01  0.233582522E-01  0.241072345E+00
   C  0.463499396E+01  0.564152609E-01 -0.303070411E+00
   H -0.252682156E+02 -0.206580991E+01 -0.283287992E+01
   H  0.241220312E+02  0.125820914E+01  0.283718493E+01
     4
 # iter = 51500  time[fs]=51.50000
   C -0.514328163E+01  0.239673377E-01  0.245999577E+00
   C  0.471595865E+01  0.569441815E-01 -0.308400501E+00
   H -0.256717175E+02 -0.209914798E+01 -0.287886452E+01
   H  0.245027244E+02  0.127832872E+01  0.288344614E+01
     4
 # iter = 52000  time[fs]=52.00000
   C -0.523111916E+01  0.245771753E-01  0.250936230E+00
   C  0.479705420E+01  0.574731146E-01 -0.313740243E+00
   H -0.260754866E+02 -0.213251073E+01 -0.292488414E+01
   H  0.248836954E+02  0.129846380E+01  0.292974515E+01
     4
 # iter = 52500  time[fs]=52.50000
   C -0.531908398E+01  0.251877537E-01  0.255882007E+00
   C  0.487827620E+01  0.580020479E-01 -0.319089334E+00
   H -0.264795150E+02 -0.216589742E+01 -0.297093773E+01
   H  0.252649357E+02  0.131861394E+01  0.297608084E+01
     4
 # iter = 53000  time[fs]=53.00000
   C -0.540717188E+01  0.257990615E-01  0.260836624E+00
   C  0.495962043E+01  0.585309702E-01 -0.324447487E+00
   H -0.268837948E+02 -0.219930734E+01 -0.301702430E+01
   H  0.256464373E+02  0.133877868E+01  0.302245216E+01
     4
 # iter = 53500  time[fs]=53.50000
   C -0.549537882E+01  0.264110873E-01  0.265799812E+00
   C  0.504108291E+01  0.590598713E-01 -0.329814425E+00
   H -0.272883186E+02 -0.223273981E+01 -0.306314290E+01
   H  0.260281925E+02  0.135895761E+01  0.306885809E+01
     4
 # iter = 54000  time[fs]=54.00000
   C -0.558370098E+01  0.270238199E-01  0.270771311E+00
   C  0.512265982E+01  0.595887420E-01 -0.335189885E+00
   H -0.276930793E+02 -0.226619419E+01 -0.310929262E+01
   H  0.264101942E+02  0.137915033E+01  0.311529766E+01
     4
 # iter = 54500  time[fs]=54.50000
   C -0.567213471E+01  0.276372479E-01  0.275750874E+00
   C  0.520434752E+01  0.601175738E-01 -0.340573614E+00
   H -0.280980699E+02 -0.229966984E+01 -0.315547259E+01
   H  0.267924351E+02  0.139935646E+01  0.316176994E+01
     4
 # iter = 55000  time[fs]=55.00000
   C -0.576067652E+01  0.282513602E-01  0.280738265E+00
   C  0.528614254E+01  0.606463593E-01 -0.345965372E+00
   H -0.285032841E+02 -0.233316619E+01 -0.320168196E+01
   H  0.271749086E+02  0.141957562E+01  0.320827403E+01
     4
 # iter = 55500  time[fs]=55.50000
   C -0.584932307E+01  0.288661454E-01  0.285733258E+00
   C  0.536804157E+01  0.611750914E-01 -0.351364928E+00
   H -0.289087156E+02 -0.236668266E+01 -0.324791993E+01
   H  0.275576083E+02  0.143980746E+01  0.325480908E+01
     4
 # iter = 56000  time[fs]=56.00000
   C -0.593807119E+01  0.294815928E-01  0.290735634E+00
   C  0.545004143E+01  0.617037639E-01 -0.356772059E+00
   H -0.293143583E+02 -0.240021869E+01 -0.329418574E+01
   H  0.279405280E+02  0.146005164E+01  0.330137427E+01
     4
 # iter = 56500  time[fs]=56.50000
   C -0.602691782E+01  0.300976912E-01  0.295745186E+00
   C  0.553213910E+01  0.622323711E-01 -0.362186553E+00
   H -0.297202064E+02 -0.243377377E+01 -0.334047863E+01
   H  0.283236617E+02  0.148030784E+01  0.334796879E+01
     4
 # iter = 57000  time[fs]=57.00000
   C -0.611586006E+01  0.307144300E-01  0.300761715E+00
   C  0.561433169E+01  0.627609078E-01 -0.367608207E+00
   H -0.301262546E+02 -0.246734739E+01 -0.338679791E+01
   H  0.287070037E+02  0.150057574E+01  0.339459190E+01
     4
 # iter = 57500  time[fs]=57.50000
   C -0.620489512E+01  0.313317986E-01  0.305785029E+00
   C  0.569661640E+01  0.632893695E-01 -0.373036825E+00
   H -0.305324974E+02 -0.250093906E+01 -0.343314288E+01
   H  0.290905485E+02  0.152085503E+01  0.344124285E+01
     4
 # iter = 58000  time[fs]=58.00000
   C -0.629402033E+01  0.319497864E-01  0.310814943E+00
   C  0.577899060E+01  0.638177518E-01 -0.378472220E+00
   H -0.309389297E+02 -0.253454832E+01 -0.347951289E+01
   H  0.294742909E+02  0.154114544E+01  0.348792094E+01
     4
 # iter = 58500  time[fs]=58.50000
   C -0.638323312E+01  0.325683831E-01  0.315851282E+00
   C  0.586145172E+01  0.643460511E-01 -0.383914211E+00
   H -0.313455467E+02 -0.256817472E+01 -0.352590730E+01
   H  0.298582258E+02  0.156144667E+01  0.353462550E+01
     4
 # iter = 59000  time[fs]=59.00000
   C -0.647253104E+01  0.331875787E-01  0.320893876E+00
   C  0.594399734E+01  0.648742638E-01 -0.389362624E+00
   H -0.317523437E+02 -0.260181783E+01 -0.357232551E+01
   H  0.302423484E+02  0.158175846E+01  0.358135586E+01
     4
 # iter = 59500  time[fs]=59.50000
   C -0.656191173E+01  0.338073630E-01  0.325942561E+00
   C  0.602662509E+01  0.654023870E-01 -0.394817293E+00
   H -0.321593159E+02 -0.263547722E+01 -0.361876693E+01
   H  0.306266538E+02  0.160208055E+01  0.362811141E+01
     4
 # iter = 60000  time[fs]=60.00000
   C -0.665137293E+01  0.344277262E-01  0.330997180E+00
   C  0.610933274E+01  0.659304180E-01 -0.400278057E+00
   H -0.325664592E+02 -0.266915251E+01 -0.366523099E+01
   H  0.310111376E+02  0.162241269E+01  0.367489153E+01
     4
 # iter = 60500  time[fs]=60.50000
   C -0.674091247E+01  0.350486588E-01  0.336057583E+00
   C  0.619211813E+01  0.664583541E-01 -0.405744763E+00
   H -0.329737693E+02 -0.270284329E+01 -0.371171714E+01
   H  0.313957955E+02  0.164275463E+01  0.372169563E+01
     4
 # iter = 61000  time[fs]=61.00000
   C -0.683052825E+01  0.356701512E-01  0.341123623E+00
   C  0.627497917E+01  0.669861934E-01 -0.411217260E+00
   H -0.333812421E+02 -0.273654921E+01 -0.375822486E+01
   H  0.317806232E+02  0.166310616E+01  0.376852316E+01
     4
 # iter = 61500  time[fs]=61.50000
   C -0.692021828E+01  0.362921942E-01  0.346195161E+00
   C  0.635791387E+01  0.675139338E-01 -0.416695406E+00
   H -0.337888737E+02 -0.277026990E+01 -0.380475364E+01
   H  0.321656166E+02  0.168346703E+01  0.381537356E+01
     4
 # iter = 62000  time[fs]=62.00000
   C -0.700998062E+01  0.369147785E-01  0.351272062E+00
   C  0.644092031E+01  0.680415737E-01 -0.422179063E+00
   H -0.341966603E+02 -0.280400502E+01 -0.385130300E+01
   H  0.325507719E+02  0.170383704E+01  0.386224632E+01
     4
 # iter = 62500  time[fs]=62.50000
   C -0.709981341E+01  0.375378953E-01  0.356354195E+00
   C  0.652399665E+01  0.685691116E-01 -0.427668097E+00
   H -0.346045983E+02 -0.283775422E+01 -0.389787246E+01
   H  0.329360853E+02  0.172421597E+01  0.390914091E+01
     4
 # iter = 63000  time[fs]=63.00000
   C -0.718971486E+01  0.381615358E-01  0.361441434E+00
   C  0.660714110E+01  0.690965461E-01 -0.433162379E+00
   H -0.350126842E+02 -0.287151719E+01 -0.394446155E+01
   H  0.333215531E+02  0.174460363E+01  0.395605685E+01
     4
 # iter = 63500  time[fs]=63.50000
   C -0.727968325E+01  0.387856913E-01  0.366533658E+00
   C  0.669035195E+01  0.696238762E-01 -0.438661787E+00
   H -0.354209145E+02 -0.290529361E+01 -0.399106985E+01
   H  0.337071718E+02  0.176499981E+01  0.400299366E+01
     4
 # iter = 64000  time[fs]=64.00000
   C -0.736971692E+01  0.394103534E-01  0.371630751E+00
   C  0.677362755E+01  0.701511010E-01 -0.444166199E+00
   H -0.358292860E+02 -0.293908319E+01 -0.403769691E+01
   H  0.340929380E+02  0.178540433E+01  0.404995089E+01
     4
 # iter = 64500  time[fs]=64.50000
   C -0.745981426E+01  0.400355138E-01  0.376732599E+00
   C  0.685696632E+01  0.706782195E-01 -0.449675501E+00
   H -0.362377954E+02 -0.297288563E+01 -0.408434234E+01
   H  0.344788484E+02  0.180581700E+01  0.409692808E+01
     4
 # iter = 65000  time[fs]=65.00000
   C -0.754997374E+01  0.406611645E-01  0.381839093E+00
   C  0.694036671E+01  0.712052311E-01 -0.455189580E+00
   H -0.366464398E+02 -0.300670064E+01 -0.413100572E+01
   H  0.348648998E+02  0.182623766E+01  0.414392481E+01
     4
 # iter = 65500  time[fs]=65.50000
   C -0.764019387E+01  0.412872974E-01  0.386950127E+00
   C  0.702382724E+01  0.717321354E-01 -0.460708329E+00
   H -0.370552162E+02 -0.304052796E+01 -0.417768668E+01
   H  0.352510891E+02  0.184666611E+01  0.419094066E+01
     4
 # iter = 66000  time[fs]=66.00000
   C -0.773047320E+01  0.419139048E-01  0.392065601E+00
   C  0.710734650E+01  0.722589318E-01 -0.466231643E+00
   H -0.374641216E+02 -0.307436732E+01 -0.422438483E+01
   H  0.356374134E+02  0.186710221E+01  0.423797523E+01
     4
 # iter = 66500  time[fs]=66.50000
   C -0.782081035E+01  0.425409790E-01  0.397185414E+00
   C  0.719092309E+01  0.727856200E-01 -0.471759421E+00
   H -0.378731534E+02 -0.310821846E+01 -0.427109981E+01
   H  0.360238698E+02  0.188754579E+01  0.428502812E+01
     4
 # iter = 67000  time[fs]=67.00000
   C -0.791120397E+01  0.431685126E-01  0.402309471E+00
   C  0.727455569E+01  0.733121999E-01 -0.477291566E+00
   H -0.382823087E+02 -0.314208114E+01 -0.431783128E+01
   H  0.364104554E+02  0.190799669E+01  0.433209895E+01
     4
 # iter = 67500  time[fs]=67.50000
   C -0.800165278E+01  0.437964983E-01  0.407437681E+00
   C  0.735824300E+01  0.738386713E-01 -0.482827982E+00
   H -0.386915850E+02 -0.317595512E+01 -0.436457889E+01
   H  0.367971675E+02  0.192845477E+01  0.437918737E+01
     4
 # iter = 68000  time[fs]=68.00000
   C -0.809215552E+01  0.444249288E-01  0.412569953E+00
   C  0.744198379E+01  0.743650342E-01 -0.488368578E+00
   H -0.391009798E+02 -0.320984015E+01 -0.441134232E+01
   H  0.371840036E+02  0.194891987E+01  0.442629300E+01
     4
 # iter = 68500  time[fs]=68.50000
   C -0.818271097E+01  0.450537973E-01  0.417706201E+00
   C  0.752577685E+01  0.748912885E-01 -0.493913265E+00
   H -0.395104906E+02 -0.324373603E+01 -0.445812123E+01
   H  0.375709611E+02  0.196939185E+01  0.447341551E+01
     4
 # iter = 69000  time[fs]=69.00000
   C -0.827331797E+01  0.456830967E-01  0.422846341E+00
   C  0.760962102E+01  0.754174344E-01 -0.499461958E+00
   H -0.399201151E+02 -0.327764252E+01 -0.450491533E+01
   H  0.379580375E+02  0.198987059E+01  0.452055455E+01
     4
 # iter = 69500  time[fs]=69.50000
   C -0.836397538E+01  0.463128203E-01  0.427990292E+00
   C  0.769351517E+01  0.759434721E-01 -0.505014573E+00
   H -0.403298509E+02 -0.331155941E+01 -0.455172430E+01
   H  0.383452303E+02  0.201035593E+01  0.456770981E+01
     4
 # iter = 70000  time[fs]=70.00000
   C -0.845468211E+01  0.469429617E-01  0.433137975E+00
   C  0.777745822E+01  0.764694018E-01 -0.510571028E+00
   H -0.407396958E+02 -0.334548651E+01 -0.459854786E+01
   H  0.387325374E+02  0.203084776E+01  0.461488097E+01
     4
 # iter = 70500  time[fs]=70.50000
   C -0.854543709E+01  0.475735142E-01  0.438289313E+00
   C  0.786144910E+01  0.769952237E-01 -0.516131247E+00
   H -0.411496477E+02 -0.337942360E+01 -0.464538572E+01
   H  0.391199564E+02  0.205134594E+01  0.466206771E+01
     4
 # iter = 71000  time[fs]=71.00000
   C -0.863623930E+01  0.482044716E-01  0.443444233E+00
   C  0.794548679E+01  0.775209382E-01 -0.521695153E+00
   H -0.415597043E+02 -0.341337050E+01 -0.469223760E+01
   H  0.395074852E+02  0.207185036E+01  0.470926975E+01
     4
 # iter = 71500  time[fs]=71.50000
   C -0.872708773E+01  0.488358276E-01  0.448602663E+00
   C  0.802957031E+01  0.780465457E-01 -0.527262671E+00
   H -0.419698638E+02 -0.344732701E+01 -0.473910325E+01
   H  0.398951215E+02  0.209236090E+01  0.475648679E+01
     4
 # iter = 72000  time[fs]=72.00000
   C -0.881798143E+01  0.494675763E-01  0.453764532E+00
   C  0.811369869E+01  0.785720465E-01 -0.532833732E+00
   H -0.423801241E+02 -0.348129296E+01 -0.478598239E+01
   H  0.402828635E+02  0.211287744E+01  0.480371855E+01
     4
 # iter = 72500  time[fs]=72.50000
   C -0.890891944E+01  0.500997116E-01  0.458929773E+00
   C  0.819787101E+01  0.790974412E-01 -0.538408264E+00
   H -0.427904832E+02 -0.351526816E+01 -0.483287478E+01
   H  0.406707089E+02  0.213339986E+01  0.485096475E+01
     4
 # iter = 73000  time[fs]=73.00000
   C -0.899990088E+01  0.507322278E-01  0.464098320E+00
   C  0.828208636E+01  0.796227302E-01 -0.543986201E+00
   H -0.432009393E+02 -0.354925243E+01 -0.487978016E+01
   H  0.410586560E+02  0.215392806E+01  0.489822513E+01
     4
 # iter = 73500  time[fs]=73.50000
   C -0.909092484E+01  0.513651190E-01  0.469270110E+00
   C  0.836634387E+01  0.801479140E-01 -0.549567476E+00
   H -0.436114907E+02 -0.358324562E+01 -0.492669830E+01
   H  0.414467027E+02  0.217446193E+01  0.494549943E+01
     4
 # iter = 74000  time[fs]=74.00000
   C -0.918199049E+01  0.519983799E-01  0.474445079E+00
   C  0.845064269E+01  0.806729932E-01 -0.555152027E+00
   H -0.440221354E+02 -0.361724756E+01 -0.497362897E+01
   H  0.418348473E+02  0.219500138E+01  0.499278740E+01
     4
 # iter = 74500  time[fs]=74.50000
   C -0.927309698E+01  0.526320048E-01  0.479623168E+00
   C  0.853498199E+01  0.811979683E-01 -0.560739792E+00
   H -0.444328718E+02 -0.365125809E+01 -0.502057193E+01
   H  0.422230879E+02  0.221554629E+01  0.504008879E+01
     4
 # iter = 75000  time[fs]=75.00000
   C -0.936424351E+01  0.532659884E-01  0.484804318E+00
   C  0.861936098E+01  0.817228400E-01 -0.566330709E+00
   H -0.448436982E+02 -0.368527705E+01 -0.506752698E+01
   H  0.426114228E+02  0.223609657E+01  0.508740336E+01
     4
 # iter = 75500  time[fs]=75.50000
   C -0.945542931E+01  0.539003254E-01  0.489988473E+00
   C  0.870377887E+01  0.822476088E-01 -0.571924721E+00
   H -0.452546130E+02 -0.371930429E+01 -0.511449388E+01
   H  0.429998504E+02  0.225665213E+01  0.513473088E+01
     4
 # iter = 76000  time[fs]=76.00000
   C -0.954665360E+01  0.545350108E-01  0.495175575E+00
   C  0.878823491E+01  0.827722754E-01 -0.577521770E+00
   H -0.456656145E+02 -0.375333967E+01 -0.516147244E+01
   H  0.433883689E+02  0.227721286E+01  0.518207112E+01
     4
 # iter = 76500  time[fs]=76.50000
   C -0.963791565E+01  0.551700394E-01  0.500365573E+00
   C  0.887272837E+01  0.832968405E-01 -0.583121802E+00
   H -0.460767014E+02 -0.378738304E+01 -0.520846245E+01
   H  0.437769767E+02  0.229777870E+01  0.522942387E+01
     4
 # iter = 77000  time[fs]=77.00000
   C -0.972921475E+01  0.558054064E-01  0.505558412E+00
   C  0.895725854E+01  0.838213047E-01 -0.588724762E+00
   H -0.464878719E+02 -0.382143426E+01 -0.525546372E+01
   H  0.441656723E+02  0.231834953E+01  0.527678890E+01
     4
 # iter = 77500  time[fs]=77.50000
   C -0.982055019E+01  0.564411068E-01  0.510754042E+00
   C  0.904182472E+01  0.843456686E-01 -0.594330598E+00
   H -0.468991248E+02 -0.385549320E+01 -0.530247604E+01
   H  0.445544542E+02  0.233892528E+01  0.532416602E+01
     4
 # iter = 78000  time[fs]=78.00000
   C -0.991192129E+01  0.570771359E-01  0.515952413E+00
   C  0.912642624E+01  0.848699330E-01 -0.599939258E+00
   H -0.473104584E+02 -0.388955972E+01 -0.534949923E+01
   H  0.449433208E+02  0.235950587E+01  0.537155500E+01
     4
 # iter = 78500  time[fs]=78.50000
   C -0.100033274E+02  0.577134891E-01  0.521153477E+00
   C  0.921106245E+01  0.853940986E-01 -0.605550693E+00
   H -0.477218716E+02 -0.392363370E+01 -0.539653311E+01
   H  0.453322707E+02  0.238009121E+01  0.541895566E+01
     4
 # iter = 79000  time[fs]=79.00000
   C -0.100947679E+02  0.583501618E-01  0.526357187E+00
   C  0.929573270E+01  0.859181661E-01 -0.611164855E+00
   H -0.481333628E+02 -0.395771501E+01 -0.544357750E+01
   H  0.457213025E+02  0.240068122E+01  0.546636780E+01
     4
 # iter = 79500  time[fs]=79.50000
   C -0.101862421E+02  0.589871496E-01  0.531563495E+00
   C  0.938043638E+01  0.864421362E-01 -0.616781696E+00
   H -0.485449309E+02 -0.399180353E+01 -0.549063222E+01
   H  0.461104148E+02  0.242127583E+01  0.551379123E+01
     4
 # iter = 80000  time[fs]=80.00000
   C -0.102777494E+02  0.596244480E-01  0.536772359E+00
   C  0.946517287E+01  0.869660097E-01 -0.622401170E+00
   H -0.489565744E+02 -0.402589913E+01 -0.553769711E+01
   H  0.464996063E+02  0.244187495E+01  0.556122577E+01
