     4
 # iter = 25000  time[fs]=25.00000
   C -0.945371659E+00 -0.837918999E-02 -0.202937118E-01
   C  0.103349593E+01 -0.372517297E-01 -0.442329264E-01
   H -0.525222987E+01  0.325085805E+00  0.344051973E+00
   H  0.536254120E+01 -0.456977570E+00 -0.502440226E+00
     4
 # iter = 25500  time[fs]=25.50000
   C -0.987641881E+00 -0.915447712E-02 -0.208181565E-01
   C  0.107766244E+01 -0.371476545E-01 -0.432798534E-01
   H -0.558411350E+01  0.347217477E+00  0.368475824E+00
   H  0.568538823E+01 -0.485284719E+00 -0.531598816E+00
     4
 # iter = 26000  time[fs]=26.00000
   C -0.103286639E+01 -0.989842135E-02 -0.213206235E-01
   C  0.112473682E+01 -0.370621433E-01 -0.423348456E-01
   H -0.592111897E+01  0.369706222E+00  0.393287116E+00
   H  0.601391419E+01 -0.514102288E+00 -0.561311798E+00
     4
 # iter = 26500  time[fs]=26.50000
   C -0.108080383E+01 -0.106159295E-01 -0.218056896E-01
   C  0.117448193E+01 -0.369915507E-01 -0.413947584E-01
   H -0.626267343E+01  0.392512298E+00  0.418442627E+00
   H  0.634749542E+01 -0.543375397E+00 -0.591518760E+00
     4
 # iter = 27000  time[fs]=27.00000
   C -0.113122845E+01 -0.113112547E-01 -0.222772342E-01
   C  0.122667580E+01 -0.369327168E-01 -0.404569438E-01
   H -0.660829012E+01  0.415601973E+00  0.443905691E+00
   H  0.668560005E+01 -0.573057197E+00 -0.622168264E+00
     4
 # iter = 27500  time[fs]=27.50000
   C -0.118393140E+01 -0.119880443E-01 -0.227385031E-01
   C  0.128111291E+01 -0.368829458E-01 -0.395192194E-01
   H -0.695755272E+01  0.438946414E+00  0.469644981E+00
   H  0.702777169E+01 -0.603107435E+00 -0.653216219E+00
     4
 # iter = 28000  time[fs]=28.00000
   C -0.123872093E+01 -0.126494021E-01 -0.231921852E-01
   C  0.133760446E+01 -0.368399664E-01 -0.385798211E-01
   H -0.731010288E+01  0.462520814E+00  0.495633558E+00
   H  0.737361642E+01 -0.633491313E+00 -0.684624589E+00
     4
 # iter = 28500  time[fs]=28.50000
   C -0.129542201E+01 -0.132979546E-01 -0.236404896E-01
   C  0.139597808E+01 -0.368018837E-01 -0.376373474E-01
   H -0.766563037E+01  0.486303697E+00  0.521848105E+00
   H  0.772279237E+01 -0.664178579E+00 -0.716360367E+00
     4
 # iter = 29000  time[fs]=29.00000
   C -0.135387558E+01 -0.139359162E-01 -0.240852190E-01
   C  0.145607704E+01 -0.367671286E-01 -0.366907051E-01
   H -0.802386515E+01  0.510276362E+00  0.548268331E+00
   H  0.807500126E+01 -0.695142787E+00 -0.748394747E+00
     4
 # iter = 29500  time[fs]=29.50000
   C -0.141393741E+01 -0.145651487E-01 -0.245278356E-01
   C  0.151775923E+01 -0.367344114E-01 -0.357390580E-01
   H -0.838457090E+01  0.534422443E+00  0.574876476E+00
   H  0.842998158E+01 -0.726360704E+00 -0.780702458E+00
     4
 # iter = 30000  time[fs]=30.00000
   C -0.147547702E+01 -0.151872156E-01 -0.249695183E-01
   C  0.158089605E+01 -0.367026778E-01 -0.347817817E-01
   H -0.874753983E+01  0.558727541E+00  0.601656924E+00
   H  0.878750295E+01 -0.757811823E+00 -0.813261227E+00
     4
 # iter = 30500  time[fs]=30.50000
   C -0.153837646E+01 -0.158034281E-01 -0.254112127E-01
   C  0.164537123E+01 -0.366710712E-01 -0.338184247E-01
   H -0.911258840E+01  0.583178930E+00  0.628595872E+00
   H  0.914736155E+01 -0.789477961E+00 -0.846051325E+00
     4
 # iter = 31000  time[fs]=31.00000
   C -0.160252911E+01 -0.164148860E-01 -0.258536722E-01
   C  0.171107967E+01 -0.366388997E-01 -0.328486750E-01
   H -0.947955380E+01  0.607765312E+00  0.655681071E+00
   H  0.950937630E+01 -0.821342927E+00 -0.879055207E+00
     4
 # iter = 31500  time[fs]=31.50000
   C -0.166783862E+01 -0.170225113E-01 -0.262974929E-01
   C  0.177792640E+01 -0.366056079E-01 -0.318723321E-01
   H -0.984829099E+01  0.632476619E+00  0.682901607E+00
   H  0.987338569E+01 -0.853392251E+00 -0.912257208E+00
     4
 # iter = 32000  time[fs]=32.00000
   C -0.173421783E+01 -0.176270776E-01 -0.267431425E-01
   C  0.184582552E+01 -0.365707535E-01 -0.308892849E-01
   H -0.102186703E+02  0.657303840E+00  0.710247713E+00
   H  0.102392451E+02 -0.885612950E+00 -0.945643283E+00
     4
 # iter = 32500  time[fs]=32.50000
   C -0.180158786E+01 -0.182292338E-01 -0.271909842E-01
   C  0.191469926E+01 -0.365339872E-01 -0.298994921E-01
   H -0.105905755E+02  0.682238884E+00  0.737710618E+00
   H  0.106068247E+02 -0.917993335E+00 -0.979200802E+00
     4
 # iter = 33000  time[fs]=33.00000
   C -0.186987723E+01 -0.188295248E-01 -0.276412956E-01
   C  0.198447715E+01 -0.364950363E-01 -0.289029677E-01
   H -0.109639016E+02  0.707274460E+00  0.765282423E+00
   H  0.109760073E+02 -0.950522851E+00 -0.101291836E+01
     4
 # iter = 33500  time[fs]=33.50000
   C -0.193902105E+01 -0.194284079E-01 -0.280942856E-01
   C  0.205509527E+01 -0.364536912E-01 -0.278997678E-01
   H -0.113385543E+02  0.732403978E+00  0.792955985E+00
   H  0.113466872E+02 -0.983191932E+00 -0.104678564E+01
     4
 # iter = 34000  time[fs]=34.00000
   C -0.200896038E+01 -0.200262674E-01 -0.285501065E-01
   C  0.212649553E+01 -0.364097939E-01 -0.268899815E-01
   H -0.117144476E+02  0.757621459E+00  0.820724829E+00
   H  0.117187683E+02 -0.101599189E+01 -0.108079327E+01
     4
 # iter = 34500  time[fs]=34.50000
   C -0.207964158E+01 -0.206234261E-01 -0.290088656E-01
   C  0.219862507E+01 -0.363632287E-01 -0.258737223E-01
   H -0.120915038E+02  0.782921471E+00  0.848583067E+00
   H  0.120921634E+02 -0.104891480E+01 -0.111493271E+01
     4
 # iter = 35000  time[fs]=35.00000
   C -0.215101576E+01 -0.212201550E-01 -0.294706333E-01
   C  0.227143572E+01 -0.363139146E-01 -0.248511219E-01
   H -0.124696520E+02  0.808299057E+00  0.876525331E+00
   H  0.124667928E+02 -0.108195343E+01 -0.114919616E+01
     4
 # iter = 35500  time[fs]=35.50000
   C -0.222303827E+01 -0.218166817E-01 -0.299354503E-01
   C  0.234488349E+01 -0.362617985E-01 -0.238223250E-01
   H -0.128488272E+02  0.833749686E+00  0.904546712E+00
   H  0.128425839E+02 -0.111510115E+01 -0.118357650E+01
     4
 # iter = 36000  time[fs]=36.00000
   C -0.229566830E+01 -0.224131970E-01 -0.304033339E-01
   C  0.241892819E+01 -0.362068504E-01 -0.227874853E-01
   H -0.132289703E+02  0.859269209E+00  0.932642714E+00
   H  0.132194699E+02 -0.114835188E+01 -0.121806718E+01
     4
 # iter = 36500  time[fs]=36.50000
   C -0.236886847E+01 -0.230098609E-01 -0.308742819E-01
   C  0.249353298E+01 -0.361490592E-01 -0.217467620E-01
   H -0.136100268E+02  0.884853810E+00  0.960809207E+00
   H  0.135973897E+02 -0.118170003E+01 -0.125266217E+01
     4
 # iter = 37000  time[fs]=37.00000
   C -0.244260446E+01 -0.236068071E-01 -0.313482775E-01
   C  0.256866409E+01 -0.360884285E-01 -0.207003179E-01
   H -0.139919466E+02  0.910499981E+00  0.989042388E+00
   H  0.139762870E+02 -0.121514044E+01 -0.128735594E+01
     4
 # iter = 37500  time[fs]=37.50000
   C -0.251684476E+01 -0.242041470E-01 -0.318252915E-01
   C  0.264429048E+01 -0.360249741E-01 -0.196483164E-01
   H -0.143746836E+02  0.936204481E+00  0.101733875E+01
   H  0.143561098E+02 -0.124866833E+01 -0.132214335E+01
     4
 # iter = 38000  time[fs]=38.00000
   C -0.259156035E+01 -0.248019735E-01 -0.323052857E-01
   C  0.272038358E+01 -0.359587216E-01 -0.185909209E-01
   H -0.147581951E+02  0.961964320E+00  0.104569505E+01
   H  0.147368100E+02 -0.128227930E+01 -0.135701966E+01
     4
 # iter = 38500  time[fs]=38.50000
   C -0.266672449E+01 -0.254003633E-01 -0.327882144E-01
   C  0.279691706E+01 -0.358897042E-01 -0.175282930E-01
   H -0.151424417E+02  0.987776723E+00  0.107410829E+01
   H  0.151183434E+02 -0.131596926E+01 -0.139198049E+01
     4
 # iter = 39000  time[fs]=39.00000
   C -0.274231247E+01 -0.259993796E-01 -0.332740266E-01
   C  0.287386662E+01 -0.358179611E-01 -0.164605919E-01
   H -0.155273869E+02  0.101363912E+01  0.110257568E+01
   H  0.155006686E+02 -0.134973440E+01 -0.142702175E+01
     4
 # iter = 39500  time[fs]=39.50000
   C -0.281830147E+01 -0.265990741E-01 -0.337626669E-01
   C  0.295120978E+01 -0.357435362E-01 -0.153879735E-01
   H -0.159129967E+02  0.103954912E+01  0.113109463E+01
   H  0.158837473E+02 -0.138357118E+01 -0.146213964E+01
     4
 # iter = 40000  time[fs]=40.00000
   C -0.289467032E+01 -0.271994887E-01 -0.342540772E-01
   C  0.302892572E+01 -0.356664768E-01 -0.143105899E-01
   H -0.162992395E+02  0.106550450E+01  0.115966274E+01
   H  0.162675440E+02 -0.141747632E+01 -0.149733062E+01
     4
 # iter = 40500  time[fs]=40.50000
   C -0.297139940E+01 -0.278006570E-01 -0.347481974E-01
   C  0.310699513E+01 -0.355868331E-01 -0.132285893E-01
   H -0.166860860E+02  0.109150318E+01  0.118827775E+01
   H  0.166520255E+02 -0.145144672E+01 -0.153259140E+01
     4
 # iter = 41000  time[fs]=41.00000
   C -0.304847051E+01 -0.284026053E-01 -0.352449658E-01
   C  0.318540011E+01 -0.355046570E-01 -0.121421154E-01
   H -0.170735087E+02  0.111754323E+01  0.121693757E+01
   H  0.170371606E+02 -0.148547952E+01 -0.156791888E+01
     4
 # iter = 41500  time[fs]=41.50000
   C -0.312586667E+01 -0.290053539E-01 -0.357443203E-01
   C  0.326412396E+01 -0.354200015E-01 -0.110513077E-01
   H -0.174614820E+02  0.114362283E+01  0.124564023E+01
   H  0.174229205E+02 -0.151957203E+01 -0.160331018E+01
     4
 # iter = 42000  time[fs]=42.00000
   C -0.320357212E+01 -0.296089181E-01 -0.362461986E-01
   C  0.334315118E+01 -0.353329205E-01 -0.995630071E-02
   H -0.178499818E+02  0.116974028E+01  0.127438391E+01
   H  0.178092780E+02 -0.155372171E+01 -0.163876260E+01
     4
 # iter = 42500  time[fs]=42.50000
   C -0.328157213E+01 -0.302133086E-01 -0.367505386E-01
   C  0.342246727E+01 -0.352434682E-01 -0.885722476E-02
   H -0.182389856E+02  0.119589401E+01  0.130316686E+01
   H  0.181962077E+02 -0.158792619E+01 -0.167427359E+01
     4
 # iter = 43000  time[fs]=43.00000
   C -0.335985296E+01 -0.308185324E-01 -0.372572788E-01
   C  0.350205873E+01 -0.351516986E-01 -0.775420543E-02
   H -0.186284724E+02  0.122208250E+01  0.133198749E+01
   H  0.185836857E+02 -0.162218325E+01 -0.170984076E+01
     4
 # iter = 43500  time[fs]=43.50000
   C -0.343840174E+01 -0.314245932E-01 -0.377663584E-01
   C  0.358191292E+01 -0.350576656E-01 -0.664736384E-02
   H -0.190184224E+02  0.124830436E+01  0.136084425E+01
   H  0.189716896E+02 -0.165649080E+01 -0.174546187E+01
     4
 # iter = 44000  time[fs]=44.00000
   C -0.351720645E+01 -0.320314923E-01 -0.382777176E-01
   C  0.366201802E+01 -0.349614224E-01 -0.553681669E-02
   H -0.194088168E+02  0.127455826E+01  0.138973573E+01
   H  0.193601984E+02 -0.169084685E+01 -0.178113480E+01
     4
 # iter = 44500  time[fs]=44.50000
   C -0.359625581E+01 -0.326392284E-01 -0.387912978E-01
   C  0.374236294E+01 -0.348630215E-01 -0.442267637E-02
   H -0.197996382E+02  0.130084296E+01  0.141866058E+01
   H  0.197491920E+02 -0.172524955E+01 -0.181685757E+01
     4
 # iter = 45000  time[fs]=45.00000
   C -0.367553925E+01 -0.332477983E-01 -0.393070416E-01
   C  0.382293728E+01 -0.347625148E-01 -0.330505109E-02
   H -0.201908699E+02  0.132715729E+01  0.144761751E+01
   H  0.201386518E+02 -0.175969714E+01 -0.185262828E+01
     4
 # iter = 45500  time[fs]=45.50000
   C -0.375504683E+01 -0.338571973E-01 -0.398248930E-01
   C  0.390373128E+01 -0.346599529E-01 -0.218404495E-02
   H -0.205824964E+02  0.135350012E+01  0.147660533E+01
   H  0.205285601E+02 -0.179418795E+01 -0.188844516E+01
     4
 # iter = 46000  time[fs]=46.00000
   C -0.383476919E+01 -0.344674192E-01 -0.403447974E-01
   C  0.398473576E+01 -0.345553855E-01 -0.105975814E-02
   H -0.209745029E+02  0.137987042E+01  0.150562291E+01
   H  0.209189001E+02 -0.182872041E+01 -0.192430652E+01
     4
 # iter = 46500  time[fs]=46.50000
   C -0.391469756E+01 -0.350784567E-01 -0.408667015E-01
   C  0.406594208E+01 -0.344488613E-01  0.677129648E-04
   H -0.213668754E+02  0.140626718E+01  0.153466915E+01
   H  0.213096561E+02 -0.186329303E+01 -0.196021077E+01
     4
 # iter = 47000  time[fs]=47.00000
   C -0.399482363E+01 -0.356903016E-01 -0.413905536E-01
   C  0.414734209E+01 -0.343404278E-01  0.119827564E-02
   H -0.217596008E+02  0.143268948E+01  0.156374306E+01
   H  0.217008130E+02 -0.189790441E+01 -0.199615640E+01
     4
 # iter = 47500  time[fs]=47.50000
   C -0.407513960E+01 -0.363029447E-01 -0.419163034E-01
   C  0.422892813E+01 -0.342301312E-01  0.233184069E-02
   H -0.221526665E+02  0.145913640E+01  0.159284365E+01
   H  0.220923567E+02 -0.193255320E+01 -0.203214198E+01
     4
 # iter = 48000  time[fs]=48.00000
   C -0.415563807E+01 -0.369163764E-01 -0.424439019E-01
   C  0.431069294E+01 -0.341180168E-01  0.346832231E-02
   H -0.225460606E+02  0.148560712E+01  0.162197002E+01
   H  0.224842737E+02 -0.196723813E+01 -0.206816614E+01
     4
 # iter = 48500  time[fs]=48.50000
   C -0.423631208E+01 -0.375305864E-01 -0.429733020E-01
   C  0.439262967E+01 -0.340041284E-01  0.460763796E-02
   H -0.229397719E+02  0.151210082E+01  0.165112129E+01
   H  0.228765513E+02 -0.200195799E+01 -0.210422759E+01
     4
 # iter = 49000  time[fs]=49.00000
   C -0.431715504E+01 -0.381455641E-01 -0.435044575E-01
   C  0.447473185E+01 -0.338885087E-01  0.574970819E-02
   H -0.233337896E+02  0.153861674E+01  0.168029663E+01
   H  0.232691772E+02 -0.203671164E+01 -0.214032511E+01
     4
 # iter = 49500  time[fs]=49.50000
   C -0.439816069E+01 -0.387612985E-01 -0.440373240E-01
   C  0.455699334E+01 -0.337711995E-01  0.689445655E-02
   H -0.237281036E+02  0.156515416E+01  0.170949526E+01
   H  0.236621400E+02 -0.207149797E+01 -0.217645752E+01
     4
 # iter = 50000  time[fs]=50.00000
   C -0.447932311E+01 -0.393777783E-01 -0.445718582E-01
   C  0.463940834E+01 -0.336522409E-01  0.804180947E-02
   H -0.241227042E+02  0.159171237E+01  0.173871643E+01
   H  0.240554286E+02 -0.210631595E+01 -0.221262371E+01
     4
 # iter = 50500  time[fs]=50.50000
   C -0.456063671E+01 -0.399949923E-01 -0.451080183E-01
   C  0.472197134E+01 -0.335316723E-01  0.919169611E-02
   H -0.245175822E+02  0.161829073E+01  0.176795942E+01
   H  0.244490325E+02 -0.214116458E+01 -0.224882262E+01
     4
 # iter = 51000  time[fs]=51.00000
   C -0.464209614E+01 -0.406129288E-01 -0.456457639E-01
   C  0.480467712E+01 -0.334095318E-01  0.103440482E-01
   H -0.249127287E+02  0.164488860E+01  0.179722354E+01
   H  0.248429419E+02 -0.217604292E+01 -0.228505323E+01
     4
 # iter = 51500  time[fs]=51.50000
   C -0.472369637E+01 -0.412315763E-01 -0.461850556E-01
   C  0.488752071E+01 -0.332858563E-01  0.114988002E-01
   H -0.253081355E+02  0.167150538E+01  0.182650816E+01
   H  0.252371472E+02 -0.221095005E+01 -0.232131457E+01
     4
 # iter = 52000  time[fs]=52.00000
   C -0.480543256E+01 -0.418509232E-01 -0.467258556E-01
   C  0.497049738E+01 -0.331606817E-01  0.126558887E-01
   H -0.257037944E+02  0.169814049E+01  0.185581265E+01
   H  0.256316392E+02 -0.224588512E+01 -0.235760572E+01
     4
 # iter = 52500  time[fs]=52.50000
   C -0.488730016E+01 -0.424709579E-01 -0.472681269E-01
   C  0.505360267E+01 -0.330340429E-01  0.138152527E-01
   H -0.260996979E+02  0.172479340E+01  0.188513642E+01
   H  0.260264093E+02 -0.228084730E+01 -0.239392579E+01
     4
 # iter = 53000  time[fs]=53.00000
   C -0.496929481E+01 -0.430916689E-01 -0.478118340E-01
   C  0.513683229E+01 -0.329059737E-01  0.149768334E-01
   H -0.264958386E+02  0.175146357E+01  0.191447889E+01
   H  0.264214493E+02 -0.231583579E+01 -0.243027395E+01
     4
 # iter = 53500  time[fs]=53.50000
   C -0.505141237E+01 -0.437130447E-01 -0.483569425E-01
   C  0.522018218E+01 -0.327765069E-01  0.161405742E-01
   H -0.268922095E+02  0.177815051E+01  0.194383953E+01
   H  0.268167511E+02 -0.235084983E+01 -0.246664937E+01
     4
 # iter = 54000  time[fs]=54.00000
   C -0.513364887E+01 -0.443350739E-01 -0.489034188E-01
   C  0.530364845E+01 -0.326456742E-01  0.173064204E-01
   H -0.272888040E+02  0.180485373E+01  0.197321781E+01
   H  0.272123072E+02 -0.238588872E+01 -0.250305129E+01
     4
 # iter = 54500  time[fs]=54.50000
   C -0.521600055E+01 -0.449577453E-01 -0.494512308E-01
   C  0.538722741E+01 -0.325135066E-01  0.184743193E-01
   H -0.276856157E+02  0.183157277E+01  0.200261324E+01
   H  0.276081104E+02 -0.242095174E+01 -0.253947897E+01
     4
 # iter = 55000  time[fs]=55.00000
   C -0.529846380E+01 -0.455810477E-01 -0.500003470E-01
   C  0.547091554E+01 -0.323800341E-01  0.196442200E-01
   H -0.280826384E+02  0.185830720E+01  0.203202534E+01
   H  0.280041535E+02 -0.245603823E+01 -0.257593168E+01
     4
 # iter = 55500  time[fs]=55.50000
   C -0.538103519E+01 -0.462049702E-01 -0.505507372E-01
   C  0.555470945E+01 -0.322452856E-01  0.208160734E-01
   H -0.284798663E+02  0.188505659E+01  0.206145366E+01
   H  0.284004301E+02 -0.249114755E+01 -0.261240875E+01
     4
 # iter = 56000  time[fs]=56.00000
   C -0.546371144E+01 -0.468295019E-01 -0.511023720E-01
   C  0.563860592E+01 -0.321092894E-01  0.219898321E-01
   H -0.288772937E+02  0.191182054E+01  0.209089774E+01
   H  0.287969336E+02 -0.252627909E+01 -0.264890953E+01
     4
 # iter = 56500  time[fs]=56.50000
   C -0.554648939E+01 -0.474546321E-01 -0.516552229E-01
   C  0.572260188E+01 -0.319720728E-01  0.231654503E-01
   H -0.292749151E+02  0.193859865E+01  0.212035718E+01
   H  0.291936579E+02 -0.256143226E+01 -0.268543337E+01
     4
 # iter = 57000  time[fs]=57.00000
   C -0.562936604E+01 -0.480803504E-01 -0.522092624E-01
   C  0.580669437E+01 -0.318336624E-01  0.243428837E-01
   H -0.296727255E+02  0.196539056E+01  0.214983157E+01
   H  0.295905971E+02 -0.259660649E+01 -0.272197968E+01
     4
 # iter = 57500  time[fs]=57.50000
   C -0.571233851E+01 -0.487066464E-01 -0.527644638E-01
   C  0.589088057E+01 -0.316940840E-01  0.255220896E-01
   H -0.300707198E+02  0.199219589E+01  0.217932051E+01
   H  0.299877455E+02 -0.263180124E+01 -0.275854787E+01
     4
 # iter = 58000  time[fs]=58.00000
   C -0.579540405E+01 -0.493335099E-01 -0.533208012E-01
   C  0.597515778E+01 -0.315533625E-01  0.267030267E-01
   H -0.304688932E+02  0.201901432E+01  0.220882363E+01
   H  0.303850977E+02 -0.266701598E+01 -0.279513739E+01
     4
 # iter = 58500  time[fs]=58.50000
   C -0.587856000E+01 -0.499609311E-01 -0.538782495E-01
   C  0.605952340E+01 -0.314115223E-01  0.278856550E-01
   H -0.308672411E+02  0.204584549E+01  0.223834057E+01
   H  0.307826485E+02 -0.270225020E+01 -0.283174769E+01
     4
 # iter = 59000  time[fs]=59.00000
   C -0.596180384E+01 -0.505889001E-01 -0.544367843E-01
   C  0.614397496E+01 -0.312685869E-01  0.290699359E-01
   H -0.312657590E+02  0.207268910E+01  0.226787099E+01
   H  0.311803927E+02 -0.273750343E+01 -0.286837826E+01
     4
 # iter = 59500  time[fs]=59.50000
   C -0.604513312E+01 -0.512174073E-01 -0.549963822E-01
   C  0.622851006E+01 -0.311245792E-01  0.302558320E-01
   H -0.316644427E+02  0.209954484E+01  0.229741454E+01
   H  0.315783255E+02 -0.277277519E+01 -0.290502860E+01
     4
 # iter = 60000  time[fs]=60.00000
   C -0.612854552E+01 -0.518464433E-01 -0.555570202E-01
   C  0.631312641E+01 -0.309795214E-01  0.314433071E-01
   H -0.320632881E+02  0.212641240E+01  0.232697092E+01
   H  0.319764422E+02 -0.280806503E+01 -0.294169822E+01
     4
 # iter = 60500  time[fs]=60.50000
   C -0.621203878E+01 -0.524759990E-01 -0.561186761E-01
   C  0.639782183E+01 -0.308334351E-01  0.326323262E-01
   H -0.324622912E+02  0.215329150E+01  0.235653980E+01
   H  0.323747384E+02 -0.284337252E+01 -0.297838665E+01
     4
 # iter = 61000  time[fs]=61.00000
   C -0.629561075E+01 -0.531060652E-01 -0.566813285E-01
   C  0.648259418E+01 -0.306863414E-01  0.338228554E-01
   H -0.328614481E+02  0.218018187E+01  0.238612089E+01
   H  0.327732096E+02 -0.287869724E+01 -0.301509347E+01
     4
 # iter = 61500  time[fs]=61.50000
   C -0.637925936E+01 -0.537366331E-01 -0.572449564E-01
   C  0.656744145E+01 -0.305382605E-01  0.350148618E-01
   H -0.332607552E+02  0.220708324E+01  0.241571390E+01
   H  0.331718517E+02 -0.291403878E+01 -0.305181822E+01
     4
 # iter = 62000  time[fs]=62.00000
   C -0.646298262E+01 -0.543676941E-01 -0.578095395E-01
   C  0.665236168E+01 -0.303892124E-01  0.362083136E-01
   H -0.336602090E+02  0.223399534E+01  0.244531855E+01
   H  0.335706606E+02 -0.294939676E+01 -0.308856049E+01
     4
 # iter = 62500  time[fs]=62.50000
   C -0.654677859E+01 -0.549992396E-01 -0.583750583E-01
   C  0.673735299E+01 -0.302392161E-01  0.374031801E-01
   H -0.340598059E+02  0.226091794E+01  0.247493457E+01
   H  0.339696325E+02 -0.298477079E+01 -0.312531988E+01
     4
 # iter = 63000  time[fs]=63.00000
   C -0.663064545E+01 -0.556312614E-01 -0.589414935E-01
   C  0.682241357E+01 -0.300882905E-01  0.385994312E-01
   H -0.344595427E+02  0.228785080E+01  0.250456170E+01
   H  0.343687635E+02 -0.302016050E+01 -0.316209601E+01
     4
 # iter = 63500  time[fs]=63.50000
   C -0.671458139E+01 -0.562637513E-01 -0.595088266E-01
   C  0.690754167E+01 -0.299364537E-01  0.397970380E-01
   H -0.348594161E+02  0.231479367E+01  0.253419970E+01
   H  0.347680500E+02 -0.305556556E+01 -0.319888848E+01
     4
 # iter = 64000  time[fs]=64.00000
   C -0.679858472E+01 -0.568967014E-01 -0.600770397E-01
   C  0.699273561E+01 -0.297837235E-01  0.409959724E-01
   H -0.352594232E+02  0.234174634E+01  0.256384831E+01
   H  0.351674885E+02 -0.309098561E+01 -0.323569695E+01
     4
 # iter = 64500  time[fs]=64.50000
   C -0.688265378E+01 -0.575301038E-01 -0.606461151E-01
   C  0.707799379E+01 -0.296301170E-01  0.421962071E-01
   H -0.356595608E+02  0.236870859E+01  0.259350730E+01
   H  0.355670755E+02 -0.312642033E+01 -0.327252105E+01
     4
 # iter = 65000  time[fs]=65.00000
   C -0.696678696E+01 -0.581639509E-01 -0.612160359E-01
   C  0.716331463E+01 -0.294756509E-01  0.433977157E-01
   H -0.360598261E+02  0.239568020E+01  0.262317645E+01
   H  0.359668079E+02 -0.316186939E+01 -0.330936046E+01
     4
 # iter = 65500  time[fs]=65.50000
   C -0.705098275E+01 -0.587982354E-01 -0.617867856E-01
   C  0.724869662E+01 -0.293203416E-01  0.446004725E-01
   H -0.364602163E+02  0.242266099E+01  0.265285554E+01
   H  0.363666824E+02 -0.319733250E+01 -0.334621483E+01
     4
 # iter = 66000  time[fs]=66.00000
   C -0.713523963E+01 -0.594329498E-01 -0.623583480E-01
   C  0.733413833E+01 -0.291642049E-01  0.458044524E-01
   H -0.368607286E+02  0.244965075E+01  0.268254435E+01
   H  0.367666959E+02 -0.323280934E+01 -0.338308385E+01
     4
 # iter = 66500  time[fs]=66.50000
   C -0.721955620E+01 -0.600680870E-01 -0.629307075E-01
   C  0.741963833E+01 -0.290072563E-01  0.470096315E-01
   H -0.372613605E+02  0.247664928E+01  0.271224267E+01
   H  0.371668454E+02 -0.326829964E+01 -0.341996720E+01
     4
 # iter = 67000  time[fs]=67.00000
   C -0.730393105E+01 -0.607036401E-01 -0.635038489E-01
   C  0.750519528E+01 -0.288495106E-01  0.482159860E-01
   H -0.376621095E+02  0.250365642E+01  0.274195032E+01
   H  0.375671281E+02 -0.330380310E+01 -0.345686460E+01
     4
 # iter = 67500  time[fs]=67.50000
   C -0.738836286E+01 -0.613396022E-01 -0.640777575E-01
   C  0.759080786E+01 -0.286909826E-01  0.494234931E-01
   H -0.380629729E+02  0.253067197E+01  0.277166708E+01
   H  0.379675412E+02 -0.333931946E+01 -0.349377575E+01
     4
 # iter = 68000  time[fs]=68.00000
   C -0.747285032E+01 -0.619759667E-01 -0.646524188E-01
   C  0.767647481E+01 -0.285316866E-01  0.506321307E-01
   H -0.384639486E+02  0.255769576E+01  0.280139279E+01
   H  0.383680818E+02 -0.337484846E+01 -0.353070037E+01
     4
 # iter = 68500  time[fs]=68.50000
   C -0.755739219E+01 -0.626127269E-01 -0.652278188E-01
   C  0.776219490E+01 -0.283716363E-01  0.518418771E-01
   H -0.388650341E+02  0.258472764E+01  0.283112724E+01
   H  0.387687475E+02 -0.341038983E+01 -0.356763819E+01
     4
 # iter = 69000  time[fs]=69.00000
   C -0.764198725E+01 -0.632498765E-01 -0.658039440E-01
   C  0.784796696E+01 -0.282108452E-01  0.530527113E-01
   H -0.392662273E+02  0.261176742E+01  0.286087028E+01
   H  0.391695357E+02 -0.344594333E+01 -0.360458893E+01
     4
 # iter = 69500  time[fs]=69.50000
   C -0.772663434E+01 -0.638874093E-01 -0.663807809E-01
   C  0.793378982E+01 -0.280493266E-01  0.542646130E-01
   H -0.396675258E+02  0.263881497E+01  0.289062172E+01
   H  0.395704438E+02 -0.348150873E+01 -0.364155235E+01
     4
 # iter = 70000  time[fs]=70.00000
   C -0.781133232E+01 -0.645253190E-01 -0.669583168E-01
   C  0.801966240E+01 -0.278870933E-01  0.554775622E-01
   H -0.400689278E+02  0.266587011E+01  0.292038141E+01
   H  0.399714696E+02 -0.351708578E+01 -0.367852819E+01
     4
 # iter = 70500  time[fs]=70.50000
   C -0.789608010E+01 -0.651635998E-01 -0.675365390E-01
   C  0.810558360E+01 -0.277241577E-01  0.566915397E-01
   H -0.404704310E+02  0.269293271E+01  0.295014917E+01
   H  0.403726106E+02 -0.355267425E+01 -0.371551622E+01
     4
 # iter = 71000  time[fs]=71.00000
   C -0.798087661E+01 -0.658022457E-01 -0.681154353E-01
   C  0.819155239E+01 -0.275605321E-01  0.579065266E-01
   H -0.408720335E+02  0.272000262E+01  0.297992486E+01
   H  0.407738646E+02 -0.358827394E+01 -0.375251619E+01
     4
 # iter = 71500  time[fs]=71.50000
   C -0.806572082E+01 -0.664412510E-01 -0.686949938E-01
   C  0.827756777E+01 -0.273962284E-01  0.591225046E-01
   H -0.412737334E+02  0.274707970E+01  0.300970832E+01
   H  0.411752294E+02 -0.362388462E+01 -0.378952789E+01
     4
 # iter = 72000  time[fs]=72.00000
   C -0.815061174E+01 -0.670806101E-01 -0.692752027E-01
   C  0.836362876E+01 -0.272312581E-01  0.603394560E-01
   H -0.416755288E+02  0.277416381E+01  0.303949940E+01
   H  0.415767028E+02 -0.365950608E+01 -0.382655108E+01
     4
 # iter = 72500  time[fs]=72.50000
   C -0.823554839E+01 -0.677203175E-01 -0.698560508E-01
   C  0.844973440E+01 -0.270656325E-01  0.615573633E-01
   H -0.420774179E+02  0.280125482E+01  0.306929796E+01
   H  0.419782829E+02 -0.369513813E+01 -0.386358555E+01
     4
 # iter = 73000  time[fs]=73.00000
   C -0.832052984E+01 -0.683603678E-01 -0.704375270E-01
   C  0.853588378E+01 -0.268993627E-01  0.627762097E-01
   H -0.424793989E+02  0.282835260E+01  0.309910386E+01
   H  0.423799676E+02 -0.373078057E+01 -0.390063109E+01
     4
 # iter = 73500  time[fs]=73.50000
   C -0.840555518E+01 -0.690007558E-01 -0.710196205E-01
   C  0.862207602E+01 -0.267324594E-01  0.639959786E-01
   H -0.428814701E+02  0.285545703E+01  0.312891697E+01
   H  0.427817549E+02 -0.376643320E+01 -0.393768750E+01
     4
 # iter = 74000  time[fs]=74.00000
   C -0.849062352E+01 -0.696414762E-01 -0.716023208E-01
   C  0.870831024E+01 -0.265649332E-01  0.652166541E-01
   H -0.432836298E+02  0.288256798E+01  0.315873715E+01
   H  0.431836429E+02 -0.380209584E+01 -0.397475458E+01
     4
 # iter = 74500  time[fs]=74.50000
   C -0.857573400E+01 -0.702825242E-01 -0.721856177E-01
   C  0.879458561E+01 -0.263967942E-01  0.664382206E-01
   H -0.436858764E+02  0.290968534E+01  0.318856427E+01
   H  0.435856298E+02 -0.383776831E+01 -0.401183213E+01
     4
 # iter = 75000  time[fs]=75.00000
   C -0.866088580E+01 -0.709238946E-01 -0.727695012E-01
   C  0.888090132E+01 -0.262280526E-01  0.676606626E-01
   H -0.440882083E+02  0.293680898E+01  0.321839821E+01
   H  0.439877137E+02 -0.387345043E+01 -0.404891998E+01
     4
 # iter = 75500  time[fs]=75.50000
   C -0.874607811E+01 -0.715655827E-01 -0.733539615E-01
   C  0.896725656E+01 -0.260587180E-01  0.688839655E-01
   H -0.444906240E+02  0.296393881E+01  0.324823885E+01
   H  0.443898930E+02 -0.390914203E+01 -0.408601792E+01
     4
 # iter = 76000  time[fs]=76.00000
   C -0.883131013E+01 -0.722075838E-01 -0.739389890E-01
   C  0.905365058E+01 -0.258888000E-01  0.701081146E-01
   H -0.448931219E+02  0.299107470E+01  0.327808606E+01
   H  0.447921659E+02 -0.394484295E+01 -0.412312580E+01
     4
 # iter = 76500  time[fs]=76.50000
   C -0.891658111E+01 -0.728498932E-01 -0.745245745E-01
   C  0.914008263E+01 -0.257183079E-01  0.713330959E-01
   H -0.452957007E+02  0.301821656E+01  0.330793974E+01
   H  0.451945307E+02 -0.398055302E+01 -0.416024343E+01
     4
 # iter = 77000  time[fs]=77.00000
   C -0.900189031E+01 -0.734925064E-01 -0.751107090E-01
   C  0.922655199E+01 -0.255472509E-01  0.725588956E-01
   H -0.456983589E+02  0.304536427E+01  0.333779977E+01
   H  0.455969859E+02 -0.401627208E+01 -0.419737064E+01
     4
 # iter = 77500  time[fs]=77.50000
   C -0.908723700E+01 -0.741354189E-01 -0.756973835E-01
   C  0.931305794E+01 -0.253756377E-01  0.737855002E-01
   H -0.461010950E+02  0.307251774E+01  0.336766604E+01
   H  0.459995298E+02 -0.405199998E+01 -0.423450727E+01
     4
 # iter = 78000  time[fs]=78.00000
   C -0.917262049E+01 -0.747786264E-01 -0.762845894E-01
   C  0.939959980E+01 -0.252034772E-01  0.750128966E-01
   H -0.465039079E+02  0.309967687E+01  0.339753845E+01
   H  0.464021610E+02 -0.408773656E+01 -0.427165316E+01
     4
 # iter = 78500  time[fs]=78.50000
   C -0.925804008E+01 -0.754221246E-01 -0.768723182E-01
   C  0.948617691E+01 -0.250307778E-01  0.762410719E-01
   H -0.469067960E+02  0.312684157E+01  0.342741688E+01
   H  0.468048779E+02 -0.412348169E+01 -0.430880815E+01
     4
 # iter = 79000  time[fs]=79.00000
   C -0.934349513E+01 -0.760659093E-01 -0.774605618E-01
   C  0.957278862E+01 -0.248575477E-01  0.774700136E-01
   H -0.473097582E+02  0.315401173E+01  0.345730125E+01
   H  0.472076790E+02 -0.415923522E+01 -0.434597210E+01
     4
 # iter = 79500  time[fs]=79.50000
   C -0.942898497E+01 -0.767099765E-01 -0.780493120E-01
   C  0.965943429E+01 -0.246837952E-01  0.786997096E-01
   H -0.477127933E+02  0.318118727E+01  0.348719145E+01
   H  0.476105630E+02 -0.419499700E+01 -0.438314484E+01
     4
 # iter = 80000  time[fs]=80.00000
   C -0.951450899E+01 -0.773543221E-01 -0.786385609E-01
   C  0.974611332E+01 -0.245095282E-01  0.799301478E-01
   H -0.481158999E+02  0.320836810E+01  0.351708738E+01
   H  0.480135285E+02 -0.423076691E+01 -0.442032624E+01
