     4
 # iter = 25000  time[fs]=25.00000
   C -0.104157214E+01  0.518719268E-02  0.165414582E-02
   C  0.986250482E+00 -0.335318172E-01 -0.374331170E-01
   H -0.531256560E+01  0.343260170E+00 -0.576546787E+00
   H  0.527580069E+01 -0.340408270E+00  0.338444661E+00
     4
 # iter = 25500  time[fs]=25.50000
   C -0.109022544E+01  0.469095674E-02  0.430097429E-02
   C  0.102787474E+01 -0.332279070E-01 -0.387309500E-01
   H -0.564966062E+01  0.366444909E+00 -0.612729181E+00
   H  0.559676126E+01 -0.361325689E+00  0.363272850E+00
     4
 # iter = 26000  time[fs]=26.00000
   C -0.114174609E+01  0.423483136E-02  0.703699935E-02
   C  0.107232525E+01 -0.329633474E-01 -0.401054759E-01
   H -0.599198046E+01  0.390003951E+00 -0.649513635E+00
   H  0.592343982E+01 -0.382626531E+00  0.388553053E+00
     4
 # iter = 26500  time[fs]=26.50000
   C -0.119589688E+01  0.381286318E-02  0.985633807E-02
   C  0.111936855E+01 -0.327321711E-01 -0.415524089E-01
   H -0.633893656E+01  0.413895498E+00 -0.686832412E+00
   H  0.625520305E+01 -0.404269166E+00  0.414236703E+00
     4
 # iter = 27000  time[fs]=27.00000
   C -0.125245712E+01  0.341990170E-02  0.127534671E-01
   C  0.116878724E+01 -0.325292318E-01 -0.430675482E-01
   H -0.669002943E+01  0.438084088E+00 -0.724628207E+00
   H  0.659151151E+01 -0.426218079E+00  0.440282361E+00
     4
 # iter = 27500  time[fs]=27.50000
   C -0.131122341E+01  0.305152823E-02  0.157232057E-01
   C  0.122038091E+01 -0.323501263E-01 -0.446468181E-01
   H -0.704483230E+01  0.462539421E+00 -0.762852165E+00
   H  0.693190283E+01 -0.448442786E+00  0.466654436E+00
     4
 # iter = 28000  time[fs]=28.00000
   C -0.137200958E+01  0.270397389E-02  0.187607054E-01
   C  0.127396603E+01 -0.321911083E-01 -0.462863023E-01
   H -0.740297826E+01  0.487235440E+00 -0.801462346E+00
   H  0.727597842E+01 -0.470916959E+00  0.493322171E+00
     4
 # iter = 28500  time[fs]=28.50000
   C -0.143464613E+01  0.237403663E-02  0.218614422E-01
   C  0.132937547E+01 -0.320490022E-01 -0.479822686E-01
   H -0.776414996E+01  0.512149596E+00 -0.840422506E+00
   H  0.762339269E+01 -0.493617730E+00  0.520258826E+00
     4
 # iter = 29000  time[fs]=29.00000
   C -0.149897928E+01  0.205900247E-02  0.250212057E-01
   C  0.138645752E+01 -0.319211226E-01 -0.497311849E-01
   H -0.812807139E+01  0.537262264E+00 -0.879701137E+00
   H  0.797384442E+01 -0.516525133E+00  0.547441030E+00
     4
 # iter = 29500  time[fs]=29.50000
   C -0.156486980E+01  0.175657406E-02  0.282360874E-01
   C  0.144507483E+01 -0.318052016E-01 -0.515297270E-01
   H -0.849450123E+01  0.562556275E+00 -0.919270691E+00
   H  0.832706976E+01 -0.539621644E+00  0.574848249E+00
     4
 # iter = 30000  time[fs]=30.00000
   C -0.163219181E+01  0.146480752E-02  0.315024666E-01
   C  0.150510322E+01 -0.316993248E-01 -0.533747810E-01
   H -0.886322743E+01  0.588016528E+00 -0.959106962E+00
   H  0.868283651E+01 -0.562891810E+00  0.602462358E+00
     4
 # iter = 30500  time[fs]=30.50000
   C -0.170083162E+01  0.118205768E-02  0.348169940E-01
   C  0.156643049E+01 -0.316018758E-01 -0.552634397E-01
   H -0.923406285E+01  0.613629684E+00 -0.999188571E+00
   H  0.904093939E+01 -0.586321945E+00  0.630267284E+00
     4
 # iter = 31000  time[fs]=31.00000
   C -0.177068649E+01  0.906931128E-03  0.381765755E-01
   C  0.162895528E+01 -0.315114891E-01 -0.571929965E-01
   H -0.960684155E+01  0.639383904E+00 -0.103949656E+01
   H  0.940119615E+01 -0.609899876E+00  0.658248712E+00
     4
 # iter = 31500  time[fs]=31.50000
   C -0.184166358E+01  0.638246470E-03  0.415783543E-01
   C  0.169258597E+01 -0.314270102E-01 -0.591609361E-01
   H -0.998141584E+01  0.665268639E+00 -0.108001402E+01
   H  0.976344438E+01 -0.633614732E+00  0.686393848E+00
     4
 # iter = 32000  time[fs]=32.00000
   C -0.191367895E+01  0.375000713E-03  0.450196944E-01
   C  0.175723972E+01 -0.313474617E-01 -0.611649245E-01
   H -0.103576537E+02  0.691274455E+00 -0.112072586E+01
   H  0.101275388E+02 -0.657456771E+00  0.714691208E+00
     4
 # iter = 32500  time[fs]=32.50000
   C -0.198665656E+01  0.116341069E-03  0.484981631E-01
   C  0.182284151E+01 -0.312720150E-01 -0.632027978E-01
   H -0.107354369E+02  0.717392879E+00 -0.116161851E+01
   H  0.104933489E+02 -0.681417229E+00  0.743130454E+00
     4
 # iter = 33000  time[fs]=33.00000
   C -0.206052753E+01 -0.138458684E-03  0.520115154E-01
   C  0.188932335E+01 -0.311999670E-01 -0.652725510E-01
   H -0.111146587E+02  0.743616279E+00 -0.120267975E+01
   H  0.108607572E+02 -0.705488197E+00  0.771702246E+00
     4
 # iter = 33500  time[fs]=33.50000
   C -0.213522930E+01 -0.390017995E-03  0.555576787E-01
   C  0.195662355E+01 -0.311307200E-01 -0.673723259E-01
   H -0.114952231E+02  0.769937759E+00 -0.124389854E+01
   H  0.112296577E+02 -0.729662518E+00  0.800398117E+00
     4
 # iter = 34000  time[fs]=34.00000
   C -0.221070503E+01 -0.638866096E-03  0.591347384E-01
   C  0.202468600E+01 -0.310637653E-01 -0.695004013E-01
   H -0.118770430E+02  0.796351065E+00 -0.128526487E+01
   H  0.115999539E+02 -0.753933693E+00  0.829210375E+00
     4
 # iter = 34500  time[fs]=34.50000
   C -0.228690296E+01 -0.885455862E-03  0.627409246E-01
   C  0.209345965E+01 -0.309986695E-01 -0.716551814E-01
   H -0.122600393E+02  0.822850512E+00 -0.132676964E+01
   H  0.119715586E+02 -0.778295803E+00  0.858132008E+00
     4
 # iter = 35000  time[fs]=35.00000
   C -0.236377588E+01 -0.113017542E-02  0.663746001E-01
   C  0.216289793E+01 -0.309350625E-01 -0.738351867E-01
   H -0.126441399E+02  0.849430918E+00 -0.136840454E+01
   H  0.123443920E+02 -0.802743448E+00  0.887156608E+00
     4
 # iter = 35500  time[fs]=35.50000
   C -0.244128069E+01 -0.137335789E-02  0.700342489E-01
   C  0.223295833E+01 -0.308726284E-01 -0.760390442E-01
   H -0.130292792E+02  0.876087546E+00 -0.141016200E+01
   H  0.127183814E+02 -0.827271684E+00  0.916278307E+00
     4
 # iter = 36000  time[fs]=36.00000
   C -0.251937794E+01 -0.161528955E-02  0.737184660E-01
   C  0.230360193E+01 -0.308110973E-01 -0.782654789E-01
   H -0.134153969E+02  0.902816056E+00 -0.145203505E+01
   H  0.130934599E+02 -0.851875978E+00  0.945491714E+00
     4
 # iter = 36500  time[fs]=36.50000
   C -0.259803148E+01 -0.185621674E-02  0.774259478E-01
   C  0.237479308E+01 -0.307502379E-01 -0.805133062E-01
   H -0.138024378E+02  0.929612462E+00 -0.149401732E+01
   H  0.134695666E+02 -0.876552160E+00  0.974791870E+00
     4
 # iter = 37000  time[fs]=37.00000
   C -0.267720813E+01 -0.209635163E-02  0.811554836E-01
   C  0.244649907E+01 -0.306898525E-01 -0.827814241E-01
   H -0.141903512E+02  0.956473095E+00 -0.153610293E+01
   H  0.138466450E+02 -0.901296388E+00  0.100417420E+01
     4
 # iter = 37500  time[fs]=37.50000
   C -0.275687737E+01 -0.233587716E-02  0.849059480E-01
   C  0.251868980E+01 -0.306297717E-01 -0.850688066E-01
   H -0.145790903E+02  0.983394571E+00 -0.157828645E+01
   H  0.142246432E+02 -0.926105117E+00  0.103363448E+01
     4
 # iter = 38000  time[fs]=38.00000
   C -0.283701112E+01 -0.257495115E-02  0.886762932E-01
   C  0.259133758E+01 -0.305698504E-01 -0.873744978E-01
   H -0.149686118E+02  0.101037376E+01 -0.162056287E+01
   H  0.146035134E+02 -0.950975067E+00  0.106316879E+01
     4
 # iter = 38500  time[fs]=38.50000
   C -0.291758344E+01 -0.281370985E-02  0.924655432E-01
   C  0.266441686E+01 -0.305099644E-01 -0.896976058E-01
   H -0.153588759E+02  0.103740778E+01 -0.166292755E+01
   H  0.149832112E+02 -0.975903196E+00  0.109277351E+01
     4
 # iter = 39000  time[fs]=39.00000
   C -0.299857040E+01 -0.305227088E-02  0.962727874E-01
   C  0.273790402E+01 -0.304500075E-01 -0.920372980E-01
   H -0.157498455E+02  0.106449392E+01 -0.170537619E+01
   H  0.153636953E+02 -0.100088668E+01  0.112244526E+01
     4
 # iter = 39500  time[fs]=39.50000
   C -0.307994984E+01 -0.329073583E-02  0.100097176E+00
   C  0.281177724E+01 -0.303898888E-01 -0.943927960E-01
   H -0.161414862E+02  0.109162970E+01 -0.174790477E+01
   H  0.157449277E+02 -0.102592290E+01  0.115218091E+01
     4
 # iter = 40000  time[fs]=40.00000
   C -0.316170123E+01 -0.352919243E-02  0.103937913E+00
   C  0.288601629E+01 -0.303295308E-01 -0.967633716E-01
   H -0.165337660E+02  0.111881280E+01 -0.179050958E+01
   H  0.161268729E+02 -0.105100940E+01  0.118197752E+01
     4
 # iter = 40500  time[fs]=40.50000
   C -0.324380552E+01 -0.376771637E-02  0.107794255E+00
   C  0.296060238E+01 -0.302688673E-01 -0.991483429E-01
   H -0.169266553E+02  0.114604104E+01 -0.183318713E+01
   H  0.165094976E+02 -0.107614391E+01  0.121183236E+01
     4
 # iter = 41000  time[fs]=41.00000
   C -0.332624501E+01 -0.400637292E-02  0.111665505E+00
   C  0.303551807E+01 -0.302078422E-01 -0.101547070E+00
   H -0.173201261E+02  0.117331241E+01 -0.187593419E+01
   H  0.168927710E+02 -0.110132428E+01  0.124174288E+01
     4
 # iter = 41500  time[fs]=41.50000
   C -0.340900321E+01 -0.424521830E-02  0.115551010E+00
   C  0.311074714E+01 -0.301464079E-01 -0.103958954E+00
   H -0.177141527E+02  0.120062500E+01 -0.191874771E+01
   H  0.172766642E+02 -0.112654854E+01  0.127170669E+01
     4
 # iter = 42000  time[fs]=42.00000
   C -0.349206478E+01 -0.448430085E-02  0.119450156E+00
   C  0.318627445E+01 -0.300845242E-01 -0.106383431E+00
   H -0.181087105E+02  0.122797706E+01 -0.196162485E+01
   H  0.176611503E+02 -0.115181480E+01  0.130172154E+01
     4
 # iter = 42500  time[fs]=42.50000
   C -0.357541539E+01 -0.472366207E-02  0.123362366E+00
   C  0.326208590E+01 -0.300221574E-01 -0.108819969E+00
   H -0.185037771E+02  0.125536692E+01 -0.200456295E+01
   H  0.180462038E+02 -0.117712131E+01  0.133178532E+01
     4
 # iter = 43000  time[fs]=43.00000
   C -0.365904166E+01 -0.496333747E-02  0.127287097E+00
   C  0.333816831E+01 -0.299592792E-01 -0.111268072E+00
   H -0.188993309E+02  0.128279302E+01 -0.204755950E+01
   H  0.184318010E+02 -0.120246643E+01  0.136189606E+01
     4
 # iter = 43500  time[fs]=43.50000
   C -0.374293107E+01 -0.520335732E-02  0.131223840E+00
   C  0.341450934E+01 -0.298958664E-01 -0.113727268E+00
   H -0.192953519E+02  0.131025389E+01 -0.209061214E+01
   H  0.188179196E+02 -0.122784861E+01  0.139205189E+01
     4
 # iter = 44000  time[fs]=44.00000
   C -0.382707190E+01 -0.544374736E-02  0.135172111E+00
   C  0.349109746E+01 -0.298318999E-01 -0.116197115E+00
   H -0.196918213E+02  0.133774815E+01 -0.213371866E+01
   H  0.192045387E+02 -0.125326638E+01  0.142225106E+01
     4
 # iter = 44500  time[fs]=44.50000
   C -0.391145316E+01 -0.568452933E-02  0.139131457E+00
   C  0.356792184E+01 -0.297673643E-01 -0.118677193E+00
   H -0.200887213E+02  0.136527451E+01 -0.217687697E+01
   H  0.195916383E+02 -0.127871837E+01  0.145249190E+01
     4
 # iter = 45000  time[fs]=45.00000
   C -0.399606453E+01 -0.592572148E-02  0.143101449E+00
   C  0.364497232E+01 -0.297022472E-01 -0.121167109E+00
   H -0.204860352E+02  0.139283173E+01 -0.222008511E+01
   H  0.199791999E+02 -0.130420329E+01  0.148277286E+01
     4
 # iter = 45500  time[fs]=45.50000
   C -0.408089631E+01 -0.616733899E-02  0.147081681E+00
   C  0.372223936E+01 -0.296365392E-01 -0.123666489E+00
   H -0.208837473E+02  0.142041867E+01 -0.226334119E+01
   H  0.203672060E+02 -0.132971989E+01  0.151309246E+01
     4
 # iter = 46000  time[fs]=46.00000
   C -0.416593938E+01 -0.640939438E-02  0.151071770E+00
   C  0.379971397E+01 -0.295702333E-01 -0.126174979E+00
   H -0.212818425E+02  0.144803421E+01 -0.230664348E+01
   H  0.207556397E+02 -0.135526704E+01  0.154344930E+01
     4
 # iter = 46500  time[fs]=46.50000
   C -0.425118515E+01 -0.665189782E-02  0.155071353E+00
   C  0.387738771E+01 -0.295033244E-01 -0.128692243E+00
   H -0.216803068E+02  0.147567734E+01 -0.234999030E+01
   H  0.211444855E+02 -0.138084361E+01  0.157384204E+01
     4
 # iter = 47000  time[fs]=47.00000
   C -0.433662553E+01 -0.689485741E-02  0.159080084E+00
   C  0.395525261E+01 -0.294358095E-01 -0.131217966E+00
   H -0.220791269E+02  0.150334705E+01 -0.239338007E+01
   H  0.215337285E+02 -0.140644858E+01  0.160426944E+01
     4
 # iter = 47500  time[fs]=47.50000
   C -0.442225288E+01 -0.713827946E-02  0.163097639E+00
   C  0.403330114E+01 -0.293676869E-01 -0.133751846E+00
   H -0.224782900E+02  0.153104244E+01 -0.243681129E+01
   H  0.219233545E+02 -0.143208096E+01  0.163473030E+01
     4
 # iter = 48000  time[fs]=48.00000
   C -0.450805999E+01 -0.738216869E-02  0.167123707E+00
   C  0.411152622E+01 -0.292989564E-01 -0.136293596E+00
   H -0.228777842E+02  0.155876260E+01 -0.248028255E+01
   H  0.223133502E+02 -0.145773981E+01  0.166522350E+01
     4
 # iter = 48500  time[fs]=48.50000
   C -0.459404002E+01 -0.762652843E-02  0.171157994E+00
   C  0.418992111E+01 -0.292296190E-01 -0.138842946E+00
   H -0.232775982E+02  0.158650671E+01 -0.252379250E+01
   H  0.227037028E+02 -0.148342424E+01  0.169574794E+01
     4
 # iter = 49000  time[fs]=49.00000
   C -0.468018653E+01 -0.787136081E-02  0.175200219E+00
   C  0.426847949E+01 -0.291596767E-01 -0.141399638E+00
   H -0.236777210E+02  0.161427396E+01 -0.256733985E+01
   H  0.230944004E+02 -0.150913340E+01  0.172630262E+01
     4
 # iter = 49500  time[fs]=49.50000
   C -0.476649341E+01 -0.811666688E-02  0.179250118E+00
   C  0.434719533E+01 -0.290891324E-01 -0.143963425E+00
   H -0.240781424E+02  0.164206360E+01 -0.261092338E+01
   H  0.234854314E+02 -0.153486649E+01  0.175688655E+01
     4
 # iter = 50000  time[fs]=50.00000
   C -0.485295487E+01 -0.836244678E-02  0.183307437E+00
   C  0.442606293E+01 -0.290179898E-01 -0.146534073E+00
   H -0.244788527E+02  0.166987491E+01 -0.265454193E+01
   H  0.238767849E+02 -0.156062274E+01  0.178749880E+01
     4
 # iter = 50500  time[fs]=50.50000
   C -0.493956540E+01 -0.860869982E-02  0.187371934E+00
   C  0.450507690E+01 -0.289462531E-01 -0.149111361E+00
   H -0.248798425E+02  0.169770719E+01 -0.269819440E+01
   H  0.242684506E+02 -0.158640142E+01  0.181813850E+01
     4
 # iter = 51000  time[fs]=51.00000
   C -0.502631980E+01 -0.885542461E-02  0.191443379E+00
   C  0.458423210E+01 -0.288739272E-01 -0.151695075E+00
   H -0.252811030E+02  0.172555980E+01 -0.274187972E+01
   H  0.246604185E+02 -0.161220183E+01  0.184880479E+01
     4
 # iter = 51500  time[fs]=51.50000
   C -0.511321310E+01 -0.910261914E-02  0.195521553E+00
   C  0.466352365E+01 -0.288010175E-01 -0.154285013E+00
   H -0.256826256E+02  0.175343210E+01 -0.278559689E+01
   H  0.250526792E+02 -0.163802330E+01  0.187949686E+01
     4
 # iter = 52000  time[fs]=52.00000
   C -0.520024060E+01 -0.935028087E-02  0.199606247E+00
   C  0.474294692E+01 -0.287275296E-01 -0.156880982E+00
   H -0.260844024E+02  0.178132350E+01 -0.282934494E+01
   H  0.254452237E+02 -0.166386520E+01  0.191021396E+01
     4
 # iter = 52500  time[fs]=52.50000
   C -0.528739780E+01 -0.959840679E-02  0.203697260E+00
   C  0.482249751E+01 -0.286534697E-01 -0.159482795E+00
   H -0.264864255E+02  0.180923342E+01 -0.287312296E+01
   H  0.258380434E+02 -0.168972692E+01  0.194095533E+01
     4
 # iter = 53000  time[fs]=53.00000
   C -0.537468044E+01 -0.984699350E-02  0.207794401E+00
   C  0.490217120E+01 -0.285788441E-01 -0.162090278E+00
   H -0.268886876E+02  0.183716132E+01 -0.291693007E+01
   H  0.262311299E+02 -0.171560788E+01  0.197172027E+01
     4
 # iter = 53500  time[fs]=53.50000
   C -0.546208446E+01 -0.100960372E-01  0.211897487E+00
   C  0.498196401E+01 -0.285036594E-01 -0.164703259E+00
   H -0.272911817E+02  0.186510669E+01 -0.296076542E+01
   H  0.266244756E+02 -0.174150752E+01  0.200250811E+01
     4
 # iter = 54000  time[fs]=54.00000
   C -0.554960596E+01 -0.103455339E-01  0.216006342E+00
   C  0.506187211E+01 -0.284279223E-01 -0.167321579E+00
   H -0.276939010E+02  0.189306901E+01 -0.300462821E+01
   H  0.270180727E+02 -0.176742532E+01  0.203331820E+01
     4
 # iter = 54500  time[fs]=54.50000
   C -0.563724125E+01 -0.105954793E-01  0.220120801E+00
   C  0.514189187E+01 -0.283516397E-01 -0.169945081E+00
   H -0.280968391E+02  0.192104780E+01 -0.304851766E+01
   H  0.274119142E+02 -0.179336075E+01  0.206414992E+01
     4
 # iter = 55000  time[fs]=55.00000
   C -0.572498679E+01 -0.108458689E-01  0.224240701E+00
   C  0.522201981E+01 -0.282748188E-01 -0.172573618E+00
   H -0.284999897E+02  0.194904262E+01 -0.309243304E+01
   H  0.278059931E+02 -0.181931333E+01  0.209500268E+01
     4
 # iter = 55500  time[fs]=55.50000
   C -0.581283920E+01 -0.110966980E-01  0.228365890E+00
   C  0.530225262E+01 -0.281974665E-01 -0.175207047E+00
   H -0.289033470E+02  0.197705301E+01 -0.313637363E+01
   H  0.282003028E+02 -0.184528259E+01  0.212587590E+01
     4
 # iter = 56000  time[fs]=56.00000
   C -0.590079526E+01 -0.113479617E-01  0.232496219E+00
   C  0.538258711E+01 -0.281195901E-01 -0.177845232E+00
   H -0.293069052E+02  0.200507856E+01 -0.318033875E+01
   H  0.285948369E+02 -0.187126808E+01  0.215676903E+01
     4
 # iter = 56500  time[fs]=56.50000
   C -0.598885188E+01 -0.115996550E-01  0.236631546E+00
   C  0.546302025E+01 -0.280411967E-01 -0.180488042E+00
   H -0.297106589E+02  0.203311886E+01 -0.322432775E+01
   H  0.289895894E+02 -0.189726937E+01  0.218768156E+01
     4
 # iter = 57000  time[fs]=57.00000
   C -0.607700610E+01 -0.118517731E-01  0.240771737E+00
   C  0.554354915E+01 -0.279622936E-01 -0.183135350E+00
   H -0.301146028E+02  0.206117352E+01 -0.326834000E+01
   H  0.293845543E+02 -0.192328604E+01  0.221861296E+01
     4
 # iter = 57500  time[fs]=57.50000
   C -0.616525509E+01 -0.121043106E-01  0.244916659E+00
   C  0.562417101E+01 -0.278828880E-01 -0.185787037E+00
   H -0.305187320E+02  0.208924216E+01 -0.331237490E+01
   H  0.297797261E+02 -0.194931769E+01  0.224956277E+01
     4
 # iter = 58000  time[fs]=58.00000
   C -0.625359614E+01 -0.123572625E-01  0.249066189E+00
   C  0.570488317E+01 -0.278029870E-01 -0.188442986E+00
   H -0.309230415E+02  0.211732443E+01 -0.335643185E+01
   H  0.301750994E+02 -0.197536394E+01  0.228053050E+01
     4
 # iter = 58500  time[fs]=58.50000
   C -0.634202664E+01 -0.126106235E-01  0.253220204E+00
   C  0.578568307E+01 -0.277225978E-01 -0.191103085E+00
   H -0.313275268E+02  0.214541997E+01 -0.340051031E+01
   H  0.305706689E+02 -0.200142441E+01  0.231151571E+01
     4
 # iter = 59000  time[fs]=59.00000
   C -0.643054410E+01 -0.128643884E-01  0.257378589E+00
   C  0.586656827E+01 -0.276417276E-01 -0.193767228E+00
   H -0.317321832E+02  0.217352846E+01 -0.344460974E+01
   H  0.309664297E+02 -0.202749875E+01  0.234251796E+01
     4
 # iter = 59500  time[fs]=59.50000
   C -0.651914613E+01 -0.131185519E-01  0.261541233E+00
   C  0.594753640E+01 -0.275603834E-01 -0.196435310E+00
   H -0.321370066E+02  0.220164957E+01 -0.348872961E+01
   H  0.313623769E+02 -0.205358662E+01  0.237353684E+01
     4
 # iter = 60000  time[fs]=60.00000
   C -0.660783043E+01 -0.133731088E-01  0.265708027E+00
   C  0.602858522E+01 -0.274785722E-01 -0.199107233E+00
   H -0.325419928E+02  0.222978299E+01 -0.353286943E+01
   H  0.317585059E+02 -0.207968768E+01  0.240457194E+01
     4
 # iter = 60500  time[fs]=60.50000
   C -0.669659478E+01 -0.136280538E-01  0.269878867E+00
   C  0.610971255E+01 -0.273963009E-01 -0.201782899E+00
   H -0.329471378E+02  0.225792843E+01 -0.357702871E+01
   H  0.321548122E+02 -0.210580162E+01  0.243562288E+01
     4
 # iter = 61000  time[fs]=61.00000
   C -0.678543707E+01 -0.138833816E-01  0.274053655E+00
   C  0.619091630E+01 -0.273135765E-01 -0.204462218E+00
   H -0.333524376E+02  0.228608559E+01 -0.362120699E+01
   H  0.325512915E+02 -0.213192813E+01  0.246668927E+01
     4
 # iter = 61500  time[fs]=61.50000
   C -0.687435525E+01 -0.141390872E-01  0.278232294E+00
   C  0.627219447E+01 -0.272304056E-01 -0.207145100E+00
   H -0.337578887E+02  0.231425420E+01 -0.366540382E+01
   H  0.329479397E+02 -0.215806692E+01  0.249777076E+01
     4
 # iter = 62000  time[fs]=62.00000
   C -0.696334736E+01 -0.143951653E-01  0.282414691E+00
   C  0.635354513E+01 -0.271467950E-01 -0.209831459E+00
   H -0.341634873E+02  0.234243399E+01 -0.370961878E+01
   H  0.333447528E+02 -0.218421769E+01  0.252886699E+01
     4
 # iter = 62500  time[fs]=62.50000
   C -0.705241150E+01 -0.146516108E-01  0.286600756E+00
   C  0.643496643E+01 -0.270627513E-01 -0.212521212E+00
   H -0.345692302E+02  0.237062470E+01 -0.375385143E+01
   H  0.337417269E+02 -0.221038017E+01  0.255997764E+01
     4
 # iter = 63000  time[fs]=63.00000
   C -0.714154586E+01 -0.149084186E-01  0.290790404E+00
   C  0.651645657E+01 -0.269782809E-01 -0.215214279E+00
   H -0.349751138E+02  0.239882609E+01 -0.379810137E+01
   H  0.341388582E+02 -0.223655409E+01  0.259110237E+01
     4
 # iter = 63500  time[fs]=63.50000
   C -0.723074867E+01 -0.151655837E-01  0.294983549E+00
   C  0.659801382E+01 -0.268933904E-01 -0.217910583E+00
   H -0.353811350E+02  0.242703790E+01 -0.384236823E+01
   H  0.345361432E+02 -0.226273920E+01  0.262224086E+01
     4
 # iter = 64000  time[fs]=64.00000
   C -0.732001826E+01 -0.154231011E-01  0.299180112E+00
   C  0.667963654E+01 -0.268080861E-01 -0.220610049E+00
   H -0.357872906E+02  0.245525991E+01 -0.388665161E+01
   H  0.349335784E+02 -0.228893524E+01  0.265339282E+01
     4
 # iter = 64500  time[fs]=64.50000
   C -0.740935299E+01 -0.156809658E-01  0.303380016E+00
   C  0.676132312E+01 -0.267223741E-01 -0.223312606E+00
   H -0.361935777E+02  0.248349189E+01 -0.393095116E+01
   H  0.353311603E+02 -0.231514198E+01  0.268455795E+01
     4
 # iter = 65000  time[fs]=65.00000
   C -0.749875129E+01 -0.159391730E-01  0.307583183E+00
   C  0.684307202E+01 -0.266362606E-01 -0.226018183E+00
   H -0.365999933E+02  0.251173363E+01 -0.397526652E+01
   H  0.357288858E+02 -0.234135918E+01  0.271573596E+01
     4
 # iter = 65500  time[fs]=65.50000
   C -0.758821163E+01 -0.161977179E-01  0.311789542E+00
   C  0.692488174E+01 -0.265497516E-01 -0.228726712E+00
   H -0.370065346E+02  0.253998490E+01 -0.401959736E+01
   H  0.361267516E+02 -0.236758661E+01  0.274692658E+01
     4
 # iter = 66000  time[fs]=66.00000
   C -0.767773256E+01 -0.164565958E-01  0.315999023E+00
   C  0.700675084E+01 -0.264628531E-01 -0.231438130E+00
   H -0.374131989E+02  0.256824551E+01 -0.406394333E+01
   H  0.365247549E+02 -0.239382406E+01  0.277812954E+01
     4
 # iter = 66500  time[fs]=66.50000
   C -0.776731266E+01 -0.167158019E-01  0.320211556E+00
   C  0.708867795E+01 -0.263755708E-01 -0.234152372E+00
   H -0.378199835E+02  0.259651526E+01 -0.410830412E+01
   H  0.369228925E+02 -0.242007131E+01  0.280934457E+01
     4
 # iter = 67000  time[fs]=67.00000
   C -0.785695056E+01 -0.169753317E-01  0.324427076E+00
   C  0.717066172E+01 -0.262879106E-01 -0.236869377E+00
   H -0.382268858E+02  0.262479395E+01 -0.415267942E+01
   H  0.373211616E+02 -0.244632816E+01  0.284057144E+01
     4
 # iter = 67500  time[fs]=67.50000
   C -0.794664495E+01 -0.172351805E-01  0.328645519E+00
   C  0.725270084E+01 -0.261998781E-01 -0.239589087E+00
   H -0.386339035E+02  0.265308141E+01 -0.419706893E+01
   H  0.377195594E+02 -0.247259441E+01  0.287180989E+01
     4
 # iter = 68000  time[fs]=68.00000
   C -0.803639454E+01 -0.174953440E-01  0.332866823E+00
   C  0.733479407E+01 -0.261114788E-01 -0.242311444E+00
   H -0.390410341E+02  0.268137745E+01 -0.424147236E+01
   H  0.381180834E+02 -0.249886987E+01  0.290305969E+01
     4
 # iter = 68500  time[fs]=68.50000
   C -0.812619810E+01 -0.177558176E-01  0.337090928E+00
   C  0.741694020E+01 -0.260227181E-01 -0.245036392E+00
   H -0.394482752E+02  0.270968189E+01 -0.428588942E+01
   H  0.385167308E+02 -0.252515434E+01  0.293432061E+01
     4
 # iter = 69000  time[fs]=69.00000
   C -0.821605444E+01 -0.180165971E-01  0.341317776E+00
   C  0.749913804E+01 -0.259336013E-01 -0.247763878E+00
   H -0.398556246E+02  0.273799456E+01 -0.433031984E+01
   H  0.389154992E+02 -0.255144765E+01  0.296559243E+01
     4
 # iter = 69500  time[fs]=69.50000
   C -0.830596239E+01 -0.182776782E-01  0.345547310E+00
   C  0.758138648E+01 -0.258441338E-01 -0.250493849E+00
   H -0.402630801E+02  0.276631531E+01 -0.437476336E+01
   H  0.393143860E+02 -0.257774963E+01  0.299687493E+01
     4
 # iter = 70000  time[fs]=70.00000
   C -0.839592085E+01 -0.185390565E-01  0.349779476E+00
   C  0.766368440E+01 -0.257543207E-01 -0.253226255E+00
   H -0.406706397E+02  0.279464397E+01 -0.441921971E+01
   H  0.397133890E+02 -0.260406010E+01  0.302816790E+01
     4
 # iter = 70500  time[fs]=70.50000
   C -0.848592872E+01 -0.188007281E-01  0.354014221E+00
   C  0.774603075E+01 -0.256641670E-01 -0.255961046E+00
   H -0.410783011E+02  0.282298039E+01 -0.446368865E+01
   H  0.401125058E+02 -0.263037889E+01  0.305947115E+01
     4
 # iter = 71000  time[fs]=71.00000
   C -0.857598496E+01 -0.190626888E-01  0.358251492E+00
   C  0.782842450E+01 -0.255736777E-01 -0.258698176E+00
   H -0.414860625E+02  0.285132441E+01 -0.450816994E+01
   H  0.405117343E+02 -0.265670584E+01  0.309078447E+01
     4
 # iter = 71500  time[fs]=71.50000
   C -0.866608855E+01 -0.193249346E-01  0.362491241E+00
   C  0.791086463E+01 -0.254828576E-01 -0.261437597E+00
   H -0.418939218E+02  0.287967589E+01 -0.455266332E+01
   H  0.409110721E+02 -0.268304081E+01  0.312210767E+01
     4
 # iter = 72000  time[fs]=72.00000
   C -0.875623850E+01 -0.195874615E-01  0.366733419E+00
   C  0.799335020E+01 -0.253917116E-01 -0.264179265E+00
   H -0.423018773E+02  0.290803469E+01 -0.459716859E+01
   H  0.413105172E+02 -0.270938363E+01  0.315344056E+01
     4
 # iter = 72500  time[fs]=72.50000
   C -0.884643385E+01 -0.198502658E-01  0.370977977E+00
   C  0.807588026E+01 -0.253002444E-01 -0.266923136E+00
   H -0.427099270E+02  0.293640067E+01 -0.464168551E+01
   H  0.417100676E+02 -0.273573415E+01  0.318478297E+01
     4
 # iter = 73000  time[fs]=73.00000
   C -0.893667369E+01 -0.201133435E-01  0.375224872E+00
   C  0.815845389E+01 -0.252084605E-01 -0.269669168E+00
   H -0.431180692E+02  0.296477370E+01 -0.468621386E+01
   H  0.421097213E+02 -0.276209224E+01  0.321613471E+01
     4
 # iter = 73500  time[fs]=73.50000
   C -0.902695710E+01 -0.203766909E-01  0.379474057E+00
   C  0.824107022E+01 -0.251163644E-01 -0.272417320E+00
   H -0.435263021E+02  0.299315364E+01 -0.473075344E+01
   H  0.425094763E+02 -0.278845776E+01  0.324749562E+01
     4
 # iter = 74000  time[fs]=74.00000
   C -0.911728322E+01 -0.206403043E-01  0.383725491E+00
   C  0.832372839E+01 -0.250239608E-01 -0.275167551E+00
   H -0.439346241E+02  0.302154037E+01 -0.477530404E+01
   H  0.429093307E+02 -0.281483056E+01  0.327886553E+01
     4
 # iter = 74500  time[fs]=74.50000
   C -0.920765119E+01 -0.209041801E-01  0.387979130E+00
   C  0.840642757E+01 -0.249312537E-01 -0.277919822E+00
   H -0.443430336E+02  0.304993377E+01 -0.481986546E+01
   H  0.433092828E+02 -0.284121052E+01  0.331024428E+01
     4
 # iter = 75000  time[fs]=75.00000
   C -0.929806019E+01 -0.211683148E-01  0.392234934E+00
   C  0.848916694E+01 -0.248382477E-01 -0.280674096E+00
   H -0.447515288E+02  0.307833371E+01 -0.486443751E+01
   H  0.437093307E+02 -0.286759751E+01  0.334163170E+01
     4
 # iter = 75500  time[fs]=75.50000
   C -0.938850943E+01 -0.214327048E-01  0.396492863E+00
   C  0.857194573E+01 -0.247449467E-01 -0.283430337E+00
   H -0.451601084E+02  0.310674008E+01 -0.490901999E+01
   H  0.441094727E+02 -0.289399139E+01  0.337302766E+01
     4
 # iter = 76000  time[fs]=76.00000
   C -0.947899813E+01 -0.216973467E-01  0.400752879E+00
   C  0.865476317E+01 -0.246513551E-01 -0.286188507E+00
   H -0.455687707E+02  0.313515276E+01 -0.495361272E+01
   H  0.445097071E+02 -0.292039206E+01  0.340443198E+01
     4
 # iter = 76500  time[fs]=76.50000
   C -0.956952553E+01 -0.219622371E-01  0.405014943E+00
   C  0.873761853E+01 -0.245574767E-01 -0.288948572E+00
   H -0.459775143E+02  0.316357164E+01 -0.499821552E+01
   H  0.449100323E+02 -0.294679939E+01  0.343584454E+01
     4
 # iter = 77000  time[fs]=77.00000
   C -0.966009090E+01 -0.222273727E-01  0.409279020E+00
   C  0.882051108E+01 -0.244633157E-01 -0.291710498E+00
   H -0.463863377E+02  0.319199662E+01 -0.504282823E+01
   H  0.453104466E+02 -0.297321327E+01  0.346726518E+01
     4
 # iter = 77500  time[fs]=77.50000
   C -0.975069352E+01 -0.224927503E-01  0.413545072E+00
   C  0.890344012E+01 -0.243688758E-01 -0.294474253E+00
   H -0.467952397E+02  0.322042759E+01 -0.508745066E+01
   H  0.457109486E+02 -0.299963358E+01  0.349869378E+01
     4
 # iter = 78000  time[fs]=78.00000
   C -0.984133270E+01 -0.227583665E-01  0.417813066E+00
   C  0.898640497E+01 -0.242741608E-01 -0.297239803E+00
   H -0.472042187E+02  0.324886445E+01 -0.513208265E+01
   H  0.461115367E+02 -0.302606021E+01  0.353013019E+01
     4
 # iter = 78500  time[fs]=78.50000
   C -0.993200777E+01 -0.230242184E-01  0.422082968E+00
   C  0.906940497E+01 -0.241791747E-01 -0.300007118E+00
   H -0.476132736E+02  0.327730710E+01 -0.517672404E+01
   H  0.465122094E+02 -0.305249305E+01  0.356157428E+01
     4
 # iter = 79000  time[fs]=79.00000
   C -0.100227181E+02 -0.232903027E-01  0.426354744E+00
   C  0.915243948E+01 -0.240839209E-01 -0.302776167E+00
   H -0.480224029E+02  0.330575543E+01 -0.522137467E+01
   H  0.469129653E+02 -0.307893201E+01  0.359302592E+01
     4
 # iter = 79500  time[fs]=79.50000
   C -0.101134630E+02 -0.235566165E-01  0.430628363E+00
   C  0.923550787E+01 -0.239884032E-01 -0.305546921E+00
   H -0.484316055E+02  0.333420937E+01 -0.526603440E+01
   H  0.473138030E+02 -0.310537698E+01  0.362448500E+01
     4
 # iter = 80000  time[fs]=80.00000
   C -0.102042418E+02 -0.238231567E-01  0.434903793E+00
   C  0.931860953E+01 -0.238926250E-01 -0.308319349E+00
   H -0.488408802E+02  0.336266880E+01 -0.531070305E+01
   H  0.477147211E+02 -0.313182786E+01  0.365595138E+01
