     4
 # iter = 25000  time[fs]=25.00000
   C -0.100269605E+01 -0.513732581E-01 -0.302371700E-01
   C  0.952013383E+00  0.753346632E-02  0.125616175E-01
   H -0.518319630E+01 -0.614854903E-01  0.699702785E+00
   H  0.519011734E+01  0.243981280E+00 -0.533831246E+00
     4
 # iter = 25500  time[fs]=25.50000
   C -0.105027241E+01 -0.530533549E-01 -0.328098581E-01
   C  0.993456477E+00  0.714026016E-02  0.160424321E-01
   H -0.551210087E+01 -0.645280243E-01  0.746135156E+00
   H  0.550297921E+01  0.259541908E+00 -0.565676486E+00
     4
 # iter = 26000  time[fs]=26.00000
   C -0.110180118E+01 -0.548548765E-01 -0.354974295E-01
   C  0.103885301E+01  0.685864906E-02  0.196296093E-01
   H -0.584375890E+01 -0.675919604E-01  0.792982485E+00
   H  0.581858212E+01  0.275241894E+00 -0.597834436E+00
     4
 # iter = 26500  time[fs]=26.50000
   C -0.115693549E+01 -0.567647404E-01 -0.382959718E-01
   C  0.108785512E+01  0.667659286E-02  0.233202973E-01
   H -0.617786245E+01 -0.706749891E-01  0.840198379E+00
   H  0.613663013E+01  0.291066422E+00 -0.630271431E+00
     4
 # iter = 27000  time[fs]=27.00000
   C -0.121535030E+01 -0.587712030E-01 -0.412007948E-01
   C  0.114013706E+01  0.658323026E-02  0.271106807E-01
   H -0.651415184E+01 -0.737751192E-01  0.887743916E+00
   H  0.645687212E+01  0.307002913E+00 -0.662959044E+00
     4
 # iter = 27500  time[fs]=27.50000
   C -0.127674546E+01 -0.608638161E-01 -0.442067118E-01
   C  0.119539815E+01  0.656886685E-02  0.309963024E-01
   H -0.685240615E+01 -0.768906290E-01  0.935586107E+00
   H  0.677909327E+01  0.323040598E+00 -0.695873044E+00
     4
 # iter = 28000  time[fs]=28.00000
   C -0.134084670E+01 -0.630333410E-01 -0.473082770E-01
   C  0.125336378E+01  0.662491369E-02  0.349723317E-01
   H -0.719243595E+01 -0.800200249E-01  0.983696745E+00
   H  0.710310843E+01  0.339170190E+00 -0.728992602E+00
     4
 # iter = 28500  time[fs]=28.50000
   C -0.140740535E+01 -0.652716421E-01 -0.504999726E-01
   C  0.131378503E+01  0.674379883E-02  0.390337739E-01
   H -0.753407759E+01 -0.831620056E-01  0.103205151E+01
   H  0.742875696E+01  0.355383619E+00 -0.762299678E+00
     4
 # iter = 29000  time[fs]=29.00000
   C -0.147619720E+01 -0.675715712E-01 -0.537763483E-01
   C  0.137643752E+01  0.691886703E-02  0.431756278E-01
   H -0.787718884E+01 -0.863154331E-01  0.108062928E+01
   H  0.775589862E+01  0.371673836E+00 -0.795778541E+00
     4
 # iter = 29500  time[fs]=29.50000
   C -0.154702082E+01 -0.699268548E-01 -0.571321197E-01
   C  0.144111971E+01  0.714427776E-02  0.473929967E-01
   H -0.822164528E+01 -0.894793082E-01  0.112941161E+01
   H  0.808441030E+01  0.388034644E+00 -0.829415388E+00
     4
 # iter = 30000  time[fs]=30.00000
   C -0.161969567E+01 -0.723319864E-01 -0.605622327E-01
   C  0.150765099E+01  0.741490750E-02  0.516811642E-01
   H -0.856733748E+01 -0.926527498E-01  0.117838225E+01
   H  0.841418334E+01  0.404460565E+00 -0.863198036E+00
     4
 # iter = 30500  time[fs]=30.50000
   C -0.169406010E+01 -0.747821290E-01 -0.640619027E-01
   C  0.157586970E+01  0.772625959E-02  0.560356413E-01
   H -0.891416872E+01 -0.958349780E-01  0.122752686E+01
   H  0.874512137E+01  0.420946738E+00 -0.897115678E+00
     4
 # iter = 31000  time[fs]=31.00000
   C -0.176996948E+01 -0.772730280E-01 -0.676266346E-01
   C  0.164563118E+01  0.807438313E-02  0.604521929E-01
   H -0.926205308E+01 -0.990253000E-01  0.127683267E+01
   H  0.907713858E+01  0.437488823E+00 -0.931158683E+00
     4
 # iter = 31500  time[fs]=31.50000
   C -0.184729432E+01 -0.798009341E-01 -0.712522284E-01
   C  0.171680596E+01  0.845580114E-02  0.649268493E-01
   H -0.961091395E+01 -0.102223098E+00  0.132628831E+01
   H  0.941015819E+01  0.454082936E+00 -0.965318427E+00
     4
 # iter = 32000  time[fs]=32.00000
   C -0.192591863E+01 -0.823625363E-01 -0.749347763E-01
   C  0.178927809E+01  0.886744774E-02  0.694559074E-01
   H -0.996068267E+01 -0.105427819E+00  0.137588357E+01
   H  0.974411126E+01  0.470725583E+00 -0.999587155E+00
     4
 # iter = 32500  time[fs]=32.50000
   C -0.200573840E+01 -0.849549039E-01 -0.786706525E-01
   C  0.186294357E+01  0.930661350E-02  0.740359245E-01
   H -0.103112975E+02 -0.108638967E+00  0.142560924E+01
   H  0.100789357E+02  0.487413611E+00 -0.103395787E+01
     4
 # iter = 33000  time[fs]=33.00000
   C -0.208666019E+01 -0.875754361E-01 -0.824565002E-01
   C  0.193770901E+01  0.977089836E-02  0.786637074E-01
   H -0.106627029E+02 -0.111856094E+00  0.147545704E+01
   H  0.104145752E+02  0.504144164E+00 -0.106842424E+01
     4
 # iter = 33500  time[fs]=33.50000
   C -0.216859996E+01 -0.902218188E-01 -0.862892149E-01
   C  0.201349043E+01  0.102581710E-01  0.833362995E-01
   H -0.110148483E+02 -0.115078798E+00  0.152541943E+01
   H  0.107509790E+02  0.520914648E+00 -0.110298051E+01
     4
 # iter = 34000  time[fs]=34.00000
   C -0.225148198E+01 -0.928919882E-01 -0.901659281E-01
   C  0.209021214E+01  0.107665337E-01  0.880509654E-01
   H -0.113676881E+02 -0.118306713E+00  0.157548956E+01
   H  0.110881005E+02  0.537722700E+00 -0.113762143E+01
     4
 # iter = 34500  time[fs]=34.50000
   C -0.233523788E+01 -0.955840980E-01 -0.940839900E-01
   C  0.216780581E+01  0.112942928E-01  0.928051763E-01
   H -0.117211804E+02 -0.121539505E+00  0.162566120E+01
   H  0.114258977E+02  0.554566159E+00 -0.117234220E+01
     4
 # iter = 35000  time[fs]=35.00000
   C -0.241980580E+01 -0.982964929E-01 -0.980409525E-01
   C  0.224620965E+01  0.118399325E-01  0.975965939E-01
   H -0.120752873E+02 -0.124776873E+00  0.167592862E+01
   H  0.117643316E+02  0.571443047E+00 -0.120713844E+01
     4
 # iter = 35500  time[fs]=35.50000
   C -0.250512969E+01 -0.101027684E+00 -0.102034554E+00
   C  0.232536766E+01  0.124020927E-01  0.102423056E+00
   H -0.124299739E+02 -0.128018540E+00  0.172628658E+01
   H  0.121033668E+02  0.588351547E+00 -0.124200609E+01
     4
 # iter = 36000  time[fs]=36.00000
   C -0.259115865E+01 -0.103776331E+00 -0.106062702E+00
   C  0.240522898E+01  0.129795502E-01  0.107282564E+00
   H -0.127852082E+02 -0.131264254E+00  0.177673027E+01
   H  0.124429708E+02  0.605289986E+00 -0.127694144E+01
     4
 # iter = 36500  time[fs]=36.50000
   C -0.267784635E+01 -0.106541220E+00 -0.110123461E+00
   C  0.248574736E+01  0.135712019E-01  0.112173264E+00
   H -0.131409607E+02 -0.134513782E+00  0.182725525E+01
   H  0.127831134E+02  0.622256820E+00 -0.131194106E+01
     4
 # iter = 37000  time[fs]=37.00000
   C -0.276515057E+01 -0.109321253E+00 -0.114215041E+00
   C  0.256688060E+01  0.141760508E-01  0.117093444E+00
   H -0.134972044E+02 -0.137766912E+00  0.187785740E+01
   H  0.131237669E+02  0.639250622E+00 -0.134700177E+01
     4
 # iter = 37500  time[fs]=37.50000
   C -0.285303274E+01 -0.112115434E+00 -0.118335780E+00
   C  0.264859019E+01  0.147931937E-01  0.122041512E+00
   H -0.138539141E+02 -0.141023447E+00  0.192853295E+01
   H  0.134649055E+02  0.656270071E+00 -0.138212062E+01
     4
 # iter = 38000  time[fs]=38.00000
   C -0.294145754E+01 -0.114922855E+00 -0.122484136E+00
   C  0.273084087E+01  0.154218102E-01  0.127015995E+00
   H -0.142110666E+02 -0.144283206E+00  0.197927835E+01
   H  0.138065056E+02  0.673313937E+00 -0.141729488E+01
     4
 # iter = 38500  time[fs]=38.50000
   C -0.303039261E+01 -0.117742688E+00 -0.126658681E+00
   C  0.281360032E+01  0.160611538E-01  0.132015520E+00
   H -0.145686405E+02 -0.147546021E+00  0.203009034E+01
   H  0.141485449E+02  0.690381082E+00 -0.145252200E+01
     4
 # iter = 39000  time[fs]=39.00000
   C -0.311980821E+01 -0.120574176E+00 -0.130858082E+00
   C  0.289683885E+01  0.167105437E-01  0.137038815E+00
   H -0.149266156E+02 -0.150811737E+00  0.208096588E+01
   H  0.144910030E+02  0.707470440E+00 -0.148779962E+01
     4
 # iter = 39500  time[fs]=39.50000
   C -0.320967699E+01 -0.123416627E+00 -0.135081101E+00
   C  0.298052914E+01  0.173693574E-01  0.142084693E+00
   H -0.152849733E+02 -0.154080211E+00  0.213190211E+01
   H  0.148338606E+02  0.724581021E+00 -0.152312550E+01
     4
 # iter = 40000  time[fs]=40.00000
   C -0.329997372E+01 -0.126269405E+00 -0.139326586E+00
   C  0.306464602E+01  0.180370252E-01  0.147152050E+00
   H -0.156436963E+02 -0.157351307E+00  0.218289640E+01
   H  0.151770999E+02  0.741711897E+00 -0.155849759E+01
     4
 # iter = 40500  time[fs]=40.50000
   C -0.339067511E+01 -0.129131925E+00 -0.143593460E+00
   C  0.314916624E+01  0.187130240E-01  0.152239853E+00
   H -0.160027684E+02 -0.160624902E+00  0.223394624E+01
   H  0.155207042E+02  0.758862202E+00 -0.159391394E+01
     4
 # iter = 41000  time[fs]=41.00000
   C -0.348175963E+01 -0.132003648E+00 -0.147880718E+00
   C  0.323406830E+01  0.193968731E-01  0.157347141E+00
   H -0.163621744E+02 -0.163900880E+00  0.228504932E+01
   H  0.158646577E+02  0.776031121E+00 -0.162937274E+01
     4
 # iter = 41500  time[fs]=41.50000
   C -0.357320733E+01 -0.134884076E+00 -0.152187420E+00
   C  0.331933229E+01  0.200881298E-01  0.162473013E+00
   H -0.167219000E+02 -0.167179132E+00  0.233620346E+01
   H  0.162089459E+02  0.793217892E+00 -0.166487226E+01
     4
 # iter = 42000  time[fs]=42.00000
   C -0.366499969E+01 -0.137772750E+00 -0.156512688E+00
   C  0.340493974E+01  0.207863854E-01  0.167616627E+00
   H -0.170819320E+02 -0.170459556E+00  0.238740660E+01
   H  0.165535549E+02  0.810421797E+00 -0.170041091E+01
     4
 # iter = 42500  time[fs]=42.50000
   C -0.375711952E+01 -0.140669245E+00 -0.160855697E+00
   C  0.349087349E+01  0.214912626E-01  0.172777194E+00
   H -0.174422579E+02 -0.173742058E+00  0.243865681E+01
   H  0.168984718E+02  0.827642162E+00 -0.173598717E+01
     4
 # iter = 43000  time[fs]=43.00000
   C -0.384955082E+01 -0.143573164E+00 -0.165215675E+00
   C  0.357711757E+01  0.222024118E-01  0.177953974E+00
   H -0.178028658E+02 -0.177026548E+00  0.248995229E+01
   H  0.172436845E+02  0.844878352E+00 -0.177159962E+01
     4
 # iter = 43500  time[fs]=43.50000
   C -0.394227868E+01 -0.146484141E+00 -0.169591897E+00
   C  0.366365710E+01  0.229195091E-01  0.183146271E+00
   H -0.181637447E+02 -0.180312944E+00  0.254129131E+01
   H  0.175891814E+02  0.862129765E+00 -0.180724690E+01
     4
 # iter = 44000  time[fs]=44.00000
   C -0.403528919E+01 -0.149401835E+00 -0.173983680E+00
   C  0.375047821E+01  0.236422535E-01  0.188353433E+00
   H -0.185248841E+02 -0.183601166E+00  0.259267226E+01
   H  0.179349517E+02  0.879395837E+00 -0.184292774E+01
     4
 # iter = 44500  time[fs]=44.50000
   C -0.412856936E+01 -0.152325927E+00 -0.178390383E+00
   C  0.383756793E+01  0.243703653E-01  0.193574844E+00
   H -0.188862743E+02 -0.186891140E+00  0.264409361E+01
   H  0.182809852E+02  0.896676032E+00 -0.187864095E+01
     4
 # iter = 45000  time[fs]=45.00000
   C -0.422210701E+01 -0.155256120E+00 -0.182811401E+00
   C  0.392491414E+01  0.251035839E-01  0.198809927E+00
   H -0.192479058E+02 -0.190182797E+00  0.269555391E+01
   H  0.186272723E+02  0.913969843E+00 -0.191438537E+01
     4
 # iter = 45500  time[fs]=45.50000
   C -0.431589078E+01 -0.158192137E+00 -0.187246166E+00
   C  0.401250547E+01  0.258416664E-01  0.204058136E+00
   H -0.196097700E+02 -0.193476072E+00  0.274705180E+01
   H  0.189738038E+02  0.931276791E+00 -0.195015994E+01
     4
 # iter = 46000  time[fs]=46.00000
   C -0.440990998E+01 -0.161133719E+00 -0.191694140E+00
   C  0.410033127E+01  0.265843859E-01  0.209318955E+00
   H -0.199718584E+02 -0.196770902E+00  0.279858597E+01
   H  0.193205710E+02  0.948596421E+00 -0.198596362E+01
     4
 # iter = 46500  time[fs]=46.50000
   C -0.450415459E+01 -0.164080621E+00 -0.196154814E+00
   C  0.418838156E+01  0.273315303E-01  0.214591900E+00
   H -0.203341631E+02 -0.200067229E+00  0.285015520E+01
   H  0.196675657E+02  0.965928302E+00 -0.202179544E+01
     4
 # iter = 47000  time[fs]=47.00000
   C -0.459861519E+01 -0.167032616E+00 -0.200627711E+00
   C  0.427664692E+01  0.280829009E-01  0.219876510E+00
   H -0.206966768E+02 -0.203364997E+00  0.290175831E+01
   H  0.200147802E+02  0.983272022E+00 -0.205765447E+01
     4
 # iter = 47500  time[fs]=47.50000
   C -0.469328290E+01 -0.169989490E+00 -0.205112374E+00
   C  0.436511853E+01  0.288383116E-01  0.225172351E+00
   H -0.210593922E+02 -0.206664154E+00  0.295339420E+01
   H  0.203622070E+02  0.100062719E+01 -0.209353984E+01
     4
 # iter = 48000  time[fs]=48.00000
   C -0.478814939E+01 -0.172951041E+00 -0.209608375E+00
   C  0.445378805E+01  0.295975879E-01  0.230479012E+00
   H -0.214223026E+02 -0.209964650E+00  0.300506179E+01
   H  0.207098391E+02  0.101799344E+01 -0.212945070E+01
     4
 # iter = 48500  time[fs]=48.50000
   C -0.488320679E+01 -0.175917079E+00 -0.214115306E+00
   C  0.454264765E+01  0.303605655E-01  0.235796102E+00
   H -0.217854017E+02 -0.213266439E+00  0.305676010E+01
   H  0.210576698E+02  0.103537042E+01 -0.216538626E+01
     4
 # iter = 49000  time[fs]=49.00000
   C -0.497844765E+01 -0.178887427E+00 -0.218632780E+00
   C  0.463168990E+01  0.311270902E-01  0.241123251E+00
   H -0.221486832E+02 -0.216569475E+00  0.310848814E+01
   H  0.214056927E+02  0.105275779E+01 -0.220134576E+01
     4
 # iter = 49500  time[fs]=49.50000
   C -0.507386497E+01 -0.181861915E+00 -0.223160431E+00
   C  0.472090781E+01  0.318970167E-01  0.246460108E+00
   H -0.225121414E+02 -0.219873716E+00  0.316024502E+01
   H  0.217539019E+02  0.107015523E+01 -0.223732847E+01
     4
 # iter = 50000  time[fs]=50.00000
   C -0.516945210E+01 -0.184840384E+00 -0.227697909E+00
   C  0.481029477E+01  0.326702082E-01  0.251806339E+00
   H -0.228757708E+02 -0.223179122E+00  0.321202985E+01
   H  0.221022914E+02  0.108756243E+01 -0.227333369E+01
     4
 # iter = 50500  time[fs]=50.50000
   C -0.526520277E+01 -0.187822685E+00 -0.232244883E+00
   C  0.489984451E+01  0.334465354E-01  0.257161628E+00
   H -0.232395660E+02 -0.226485654E+00  0.326384181E+01
   H  0.224508557E+02  0.110497910E+01 -0.230936076E+01
     4
 # iter = 51000  time[fs]=51.00000
   C -0.536111102E+01 -0.190808674E+00 -0.236801039E+00
   C  0.498955111E+01  0.342258763E-01  0.262525672E+00
   H -0.236035219E+02 -0.229793275E+00  0.331568008E+01
   H  0.227995897E+02  0.112240496E+01 -0.234540905E+01
     4
 # iter = 51500  time[fs]=51.50000
   C -0.545717123E+01 -0.193798218E+00 -0.241366075E+00
   C  0.507940894E+01  0.350081159E-01  0.267898184E+00
   H -0.239676339E+02 -0.233101951E+00  0.336754392E+01
   H  0.231484881E+02  0.113983974E+01 -0.238147795E+01
     4
 # iter = 52000  time[fs]=52.00000
   C -0.555337802E+01 -0.196791188E+00 -0.245939705E+00
   C  0.516941266E+01  0.357931449E-01  0.273278891E+00
   H -0.243318971E+02 -0.236411648E+00  0.341943258E+01
   H  0.234975463E+02  0.115728319E+01 -0.241756688E+01
     4
 # iter = 52500  time[fs]=52.50000
   C -0.564972632E+01 -0.199787464E+00 -0.250521657E+00
   C  0.525955722E+01  0.365808601E-01  0.278667531E+00
   H -0.246963074E+02 -0.239722335E+00  0.347134537E+01
   H  0.238467596E+02  0.117473506E+01 -0.245367528E+01
     4
 # iter = 53000  time[fs]=53.00000
   C -0.574621130E+01 -0.202786930E+00 -0.255111670E+00
   C  0.534983778E+01  0.373711638E-01  0.284063855E+00
   H -0.250608603E+02 -0.243033981E+00  0.352328162E+01
   H  0.241961236E+02  0.119219512E+01 -0.248980262E+01
     4
 # iter = 53500  time[fs]=53.50000
   C -0.584282836E+01 -0.205789479E+00 -0.259709496E+00
   C  0.544024979E+01  0.381639631E-01  0.289467626E+00
   H -0.254255519E+02 -0.246346558E+00  0.357524069E+01
   H  0.245456340E+02  0.120966314E+01 -0.252594839E+01
     4
 # iter = 54000  time[fs]=54.00000
   C -0.593957314E+01 -0.208795004E+00 -0.264314896E+00
   C  0.553078887E+01  0.389591699E-01  0.294878616E+00
   H -0.257903784E+02 -0.249660037E+00  0.362722196E+01
   H  0.248952868E+02  0.122713891E+01 -0.256211209E+01
     4
 # iter = 54500  time[fs]=54.50000
   C -0.603644145E+01 -0.211803409E+00 -0.268927644E+00
   C  0.562145088E+01  0.397567005E-01  0.300296609E+00
   H -0.261553359E+02 -0.252974392E+00  0.367922483E+01
   H  0.252450781E+02  0.124462221E+01 -0.259829324E+01
     4
 # iter = 55000  time[fs]=55.00000
   C -0.613342935E+01 -0.214814599E+00 -0.273547523E+00
   C  0.571223186E+01  0.405564755E-01  0.305721396E+00
   H -0.265204209E+02 -0.256289598E+00  0.373124874E+01
   H  0.255950041E+02  0.126211286E+01 -0.263449141E+01
     4
 # iter = 55500  time[fs]=55.50000
   C -0.623053303E+01 -0.217828485E+00 -0.278174325E+00
   C  0.580312804E+01  0.413584190E-01  0.311152780E+00
   H -0.268856301E+02 -0.259605630E+00  0.378329315E+01
   H  0.259450614E+02  0.127961065E+01 -0.267070615E+01
     4
 # iter = 56000  time[fs]=56.00000
   C -0.632774888E+01 -0.220844980E+00 -0.282807850E+00
   C  0.589413581E+01  0.421624592E-01  0.316590569E+00
   H -0.272509601E+02 -0.262922465E+00  0.383535753E+01
   H  0.262952463E+02  0.129711541E+01 -0.270693704E+01
     4
 # iter = 56500  time[fs]=56.50000
   C -0.642507345E+01 -0.223864004E+00 -0.287447909E+00
   C  0.598525174E+01  0.429685273E-01  0.322034581E+00
   H -0.276164077E+02 -0.266240081E+00  0.388744136E+01
   H  0.266455557E+02  0.131462695E+01 -0.274318367E+01
     4
 # iter = 57000  time[fs]=57.00000
   C -0.652250343E+01 -0.226885479E+00 -0.292094317E+00
   C  0.607647254E+01  0.437765578E-01  0.327484641E+00
   H -0.279819700E+02 -0.269558457E+00  0.393954417E+01
   H  0.269959863E+02  0.133214511E+01 -0.277944566E+01
     4
 # iter = 57500  time[fs]=57.50000
   C -0.662003569E+01 -0.229909329E+00 -0.296746899E+00
   C  0.616779507E+01  0.445864884E-01  0.332940582E+00
   H -0.283476439E+02 -0.272877571E+00  0.399166549E+01
   H  0.273465351E+02  0.134966972E+01 -0.281572264E+01
     4
 # iter = 58000  time[fs]=58.00000
   C -0.671766719E+01 -0.232935485E+00 -0.301405487E+00
   C  0.625921631E+01  0.453982594E-01  0.338402243E+00
   H -0.287134268E+02 -0.276197404E+00  0.404380487E+01
   H  0.276971991E+02  0.136720063E+01 -0.285201424E+01
     4
 # iter = 58500  time[fs]=58.50000
   C -0.681539504E+01 -0.235963877E+00 -0.306069920E+00
   C  0.635073339E+01  0.462118139E-01  0.343869470E+00
   H -0.290793158E+02 -0.279517937E+00  0.409596187E+01
   H  0.280479754E+02  0.138473768E+01 -0.288832011E+01
     4
 # iter = 59000  time[fs]=59.00000
   C -0.691321648E+01 -0.238994442E+00 -0.310740041E+00
   C  0.644234356E+01  0.470270975E-01  0.349342112E+00
   H -0.294453084E+02 -0.282839152E+00  0.414813607E+01
   H  0.283988614E+02  0.140228072E+01 -0.292463992E+01
     4
 # iter = 59500  time[fs]=59.50000
   C -0.701112885E+01 -0.242027116E+00 -0.315415702E+00
   C  0.653404416E+01  0.478440581E-01  0.354820029E+00
   H -0.298114021E+02 -0.286161030E+00  0.420032706E+01
   H  0.287498544E+02  0.141982962E+01 -0.296097335E+01
     4
 # iter = 60000  time[fs]=60.00000
   C -0.710912960E+01 -0.245061840E+00 -0.320096758E+00
   C  0.662583266E+01  0.486626459E-01  0.360303083E+00
   H -0.301775945E+02 -0.289483556E+00  0.425253447E+01
   H  0.291009518E+02  0.143738423E+01 -0.299732007E+01
     4
 # iter = 60500  time[fs]=60.50000
   C -0.720721629E+01 -0.248098556E+00 -0.324783072E+00
   C  0.671770663E+01  0.494828131E-01  0.365791141E+00
   H -0.305438831E+02 -0.292806713E+00  0.430475790E+01
   H  0.294521513E+02  0.145494443E+01 -0.303367979E+01
     4
 # iter = 61000  time[fs]=61.00000
   C -0.730538659E+01 -0.251137209E+00 -0.329474509E+00
   C  0.680966373E+01  0.503045142E-01  0.371284077E+00
   H -0.309102658E+02 -0.296130485E+00  0.435699700E+01
   H  0.298034503E+02  0.147251009E+01 -0.307005222E+01
     4
 # iter = 61500  time[fs]=61.50000
   C -0.740363823E+01 -0.254177747E+00 -0.334170943E+00
   C  0.690170173E+01  0.511277053E-01  0.376781768E+00
   H -0.312767404E+02 -0.299454857E+00  0.440925142E+01
   H  0.301548466E+02  0.149008108E+01 -0.310643708E+01
     4
 # iter = 62000  time[fs]=62.00000
   C -0.750196905E+01 -0.257220118E+00 -0.338872250E+00
   C  0.699381846E+01  0.519523444E-01  0.382284097E+00
   H -0.316433047E+02 -0.302779814E+00  0.446152081E+01
   H  0.305063381E+02  0.150765729E+01 -0.314283408E+01
     4
 # iter = 62500  time[fs]=62.50000
   C -0.760037696E+01 -0.260264275E+00 -0.343578310E+00
   C  0.708601186E+01  0.527783911E-01  0.387790949E+00
   H -0.320099568E+02 -0.306105343E+00  0.451380484E+01
   H  0.308579225E+02  0.152523860E+01 -0.317924297E+01
     4
 # iter = 63000  time[fs]=63.00000
   C -0.769885998E+01 -0.263310170E+00 -0.348289009E+00
   C  0.717827993E+01  0.536058068E-01  0.393302216E+00
   H -0.323766947E+02 -0.309431430E+00  0.456610320E+01
   H  0.312095979E+02  0.154282489E+01 -0.321566349E+01
     4
 # iter = 63500  time[fs]=63.50000
   C -0.779741617E+01 -0.266357758E+00 -0.353004236E+00
   C  0.727062074E+01  0.544345542E-01  0.398817790E+00
   H -0.327435164E+02 -0.312758062E+00  0.461841558E+01
   H  0.315613621E+02  0.156041607E+01 -0.325209540E+01
     4
 # iter = 64000  time[fs]=64.00000
   C -0.789604367E+01 -0.269406996E+00 -0.357723884E+00
   C  0.736303247E+01  0.552645977E-01  0.404337572E+00
   H -0.331104202E+02 -0.316085225E+00  0.467074169E+01
   H  0.319132133E+02  0.157801202E+01 -0.328853845E+01
     4
 # iter = 64500  time[fs]=64.50000
   C -0.799474070E+01 -0.272457842E+00 -0.362447851E+00
   C  0.745551332E+01  0.560959030E-01  0.409861461E+00
   H -0.334774043E+02 -0.319412909E+00  0.472308122E+01
   H  0.322651496E+02  0.159561265E+01 -0.332499241E+01
     4
 # iter = 65000  time[fs]=65.00000
   C -0.809350554E+01 -0.275510256E+00 -0.367176035E+00
   C  0.754806158E+01  0.569284368E-01  0.415389363E+00
   H -0.338444669E+02 -0.322741100E+00  0.477543391E+01
   H  0.326171692E+02  0.161321786E+01 -0.336145705E+01
     4
 # iter = 65500  time[fs]=65.50000
   C -0.819233653E+01 -0.278564199E+00 -0.371908342E+00
   C  0.764067561E+01  0.577621675E-01  0.420921186E+00
   H -0.342116064E+02 -0.326069788E+00  0.482779947E+01
   H  0.329692703E+02  0.163082755E+01 -0.339793217E+01
     4
 # iter = 66000  time[fs]=66.00000
   C -0.829123207E+01 -0.281619633E+00 -0.376644678E+00
   C  0.773335380E+01  0.585970645E-01  0.426456841E+00
   H -0.345788211E+02 -0.329398962E+00  0.488017766E+01
   H  0.333214513E+02  0.164844164E+01 -0.343441754E+01
     4
 # iter = 66500  time[fs]=66.50000
   C -0.839019061E+01 -0.284676524E+00 -0.381384953E+00
   C  0.782609462E+01  0.594330982E-01  0.431996243E+00
   H -0.349461096E+02 -0.332728611E+00  0.493256821E+01
   H  0.336737104E+02  0.166606002E+01 -0.347091297E+01
     4
 # iter = 67000  time[fs]=67.00000
   C -0.848921066E+01 -0.287734835E+00 -0.386129079E+00
   C  0.791889659E+01  0.602702403E-01  0.437539307E+00
   H -0.353134702E+02 -0.336058724E+00  0.498497088E+01
   H  0.340260461E+02  0.168368262E+01 -0.350741825E+01
     4
 # iter = 67500  time[fs]=67.50000
   C -0.858829078E+01 -0.290794533E+00 -0.390876974E+00
   C  0.801175827E+01  0.611084632E-01  0.443085955E+00
   H -0.356809015E+02 -0.339389292E+00  0.503738543E+01
   H  0.343784569E+02  0.170130936E+01 -0.354393318E+01
     4
 # iter = 68000  time[fs]=68.00000
   C -0.868742959E+01 -0.293855587E+00 -0.395628554E+00
   C  0.810467828E+01  0.619477407E-01  0.448636108E+00
   H -0.360484022E+02 -0.342720304E+00  0.508981162E+01
   H  0.347309412E+02  0.171894014E+01 -0.358045759E+01
     4
 # iter = 68500  time[fs]=68.50000
   C -0.878662573E+01 -0.296917964E+00 -0.400383742E+00
   C  0.819765528E+01  0.627880473E-01  0.454189691E+00
   H -0.364159707E+02 -0.346051753E+00  0.514224923E+01
   H  0.350834975E+02  0.173657490E+01 -0.361699129E+01
     4
 # iter = 69000  time[fs]=69.00000
   C -0.888587792E+01 -0.299981635E+00 -0.405142461E+00
   C  0.829068798E+01  0.636293582E-01  0.459746631E+00
   H -0.367836058E+02 -0.349383627E+00  0.519469804E+01
   H  0.354361245E+02  0.175421355E+01 -0.365353411E+01
     4
 # iter = 69500  time[fs]=69.50000
   C -0.898518489E+01 -0.303046570E+00 -0.409904637E+00
   C  0.838377513E+01  0.644716499E-01  0.465306857E+00
   H -0.371513062E+02 -0.352715919E+00  0.524715784E+01
   H  0.357888208E+02  0.177185602E+01 -0.369008586E+01
     4
 # iter = 70000  time[fs]=70.00000
   C -0.908454543E+01 -0.306112741E+00 -0.414670197E+00
   C  0.847691552E+01  0.653148993E-01  0.470870301E+00
   H -0.375190706E+02 -0.356048620E+00  0.529962841E+01
   H  0.361415850E+02  0.178950224E+01 -0.372664639E+01
     4
 # iter = 70500  time[fs]=70.50000
   C -0.918395836E+01 -0.309180121E+00 -0.419439073E+00
   C  0.857010798E+01  0.661590843E-01  0.476436897E+00
   H -0.378868978E+02 -0.359381722E+00  0.535210957E+01
   H  0.364944159E+02  0.180715214E+01 -0.376321553E+01
     4
 # iter = 71000  time[fs]=71.00000
   C -0.928342254E+01 -0.312248683E+00 -0.424211197E+00
   C  0.866335138E+01  0.670041834E-01  0.482006579E+00
   H -0.382547865E+02 -0.362715216E+00  0.540460110E+01
   H  0.368473121E+02  0.182480564E+01 -0.379979313E+01
     4
 # iter = 71500  time[fs]=71.50000
   C -0.938293688E+01 -0.315318402E+00 -0.428986503E+00
   C  0.875664462E+01  0.678501759E-01  0.487579287E+00
   H -0.386227357E+02 -0.366049095E+00  0.545710283E+01
   H  0.372002726E+02  0.184246269E+01 -0.383637902E+01
     4
 # iter = 72000  time[fs]=72.00000
   C -0.948250031E+01 -0.318389252E+00 -0.433764928E+00
   C  0.884998664E+01  0.686970419E-01  0.493154958E+00
   H -0.389907441E+02 -0.369383352E+00  0.550961456E+01
   H  0.375532960E+02  0.186012322E+01 -0.387297307E+01
     4
 # iter = 72500  time[fs]=72.50000
   C -0.958211178E+01 -0.321461210E+00 -0.438546410E+00
   C  0.894337641E+01  0.695447619E-01  0.498733535E+00
   H -0.393588108E+02 -0.372717978E+00  0.556213612E+01
   H  0.379063812E+02  0.187778716E+01 -0.390957512E+01
     4
 # iter = 73000  time[fs]=73.00000
   C -0.968177031E+01 -0.324534253E+00 -0.443330889E+00
   C  0.903681293E+01  0.703933171E-01  0.504314961E+00
   H -0.397269345E+02 -0.376052967E+00  0.561466733E+01
   H  0.382595270E+02  0.189545446E+01 -0.394618503E+01
     4
 # iter = 73500  time[fs]=73.50000
   C -0.978147491E+01 -0.327608358E+00 -0.448118307E+00
   C  0.913029524E+01  0.712426894E-01  0.509899179E+00
   H -0.400951144E+02 -0.379388312E+00  0.566720802E+01
   H  0.386127325E+02  0.191312505E+01 -0.398280267E+01
     4
 # iter = 74000  time[fs]=74.00000
   C -0.988122465E+01 -0.330683503E+00 -0.452908608E+00
   C  0.922382239E+01  0.720928612E-01  0.515486136E+00
   H -0.404633493E+02 -0.382724006E+00  0.571975802E+01
   H  0.389659965E+02  0.193079888E+01 -0.401942791E+01
     4
 # iter = 74500  time[fs]=74.50000
   C -0.998101861E+01 -0.333759666E+00 -0.457701737E+00
   C  0.931739349E+01  0.729438155E-01  0.521075780E+00
   H -0.408316384E+02 -0.386060042E+00  0.577231718E+01
   H  0.393193180E+02  0.194847589E+01 -0.405606060E+01
     4
 # iter = 75000  time[fs]=75.00000
   C -0.100808559E+02 -0.336836828E+00 -0.462497640E+00
   C  0.941100764E+01  0.737955356E-01  0.526668059E+00
   H -0.411999806E+02 -0.389396414E+00  0.582488533E+01
   H  0.396726959E+02  0.196615602E+01 -0.409270062E+01
     4
 # iter = 75500  time[fs]=75.50000
   C -0.101807357E+02 -0.339914969E+00 -0.467296265E+00
   C  0.950466398E+01  0.746480056E-01  0.532262926E+00
   H -0.415683750E+02 -0.392733116E+00  0.587746233E+01
   H  0.400261294E+02  0.198383922E+01 -0.412934785E+01
     4
 # iter = 76000  time[fs]=76.00000
   C -0.102806571E+02 -0.342994068E+00 -0.472097563E+00
   C  0.959836170E+01  0.755012100E-01  0.537860330E+00
   H -0.419368207E+02 -0.396070142E+00  0.593004801E+01
   H  0.403796173E+02  0.200152544E+01 -0.416600217E+01
     4
 # iter = 76500  time[fs]=76.50000
   C -0.103806193E+02 -0.346074107E+00 -0.476901483E+00
   C  0.969209997E+01  0.763551338E-01  0.543460226E+00
   H -0.423053168E+02 -0.399407485E+00  0.598264224E+01
   H  0.407331589E+02  0.201921463E+01 -0.420266346E+01
     4
 # iter = 77000  time[fs]=77.00000
   C -0.104806215E+02 -0.349155068E+00 -0.481707978E+00
   C  0.978587801E+01  0.772097622E-01  0.549062568E+00
   H -0.426738625E+02 -0.402745141E+00  0.603524487E+01
   H  0.410867531E+02  0.203690674E+01 -0.423933161E+01
     4
 # iter = 77500  time[fs]=77.50000
   C -0.105806630E+02 -0.352236934E+00 -0.486517003E+00
   C  0.987969507E+01  0.780650811E-01  0.554667313E+00
   H -0.430424569E+02 -0.406083104E+00  0.608785576E+01
   H  0.414403991E+02  0.205460172E+01 -0.427600649E+01
     4
 # iter = 78000  time[fs]=78.00000
   C -0.106807431E+02 -0.355319686E+00 -0.491328510E+00
   C  0.997355039E+01  0.789210767E-01  0.560274415E+00
   H -0.434110991E+02 -0.409421367E+00  0.614047479E+01
   H  0.417940961E+02  0.207229952E+01 -0.431268801E+01
     4
 # iter = 78500  time[fs]=78.50000
   C -0.107808609E+02 -0.358403308E+00 -0.496142458E+00
   C  0.100674433E+02  0.797777357E-01  0.565883835E+00
   H -0.437797885E+02 -0.412759927E+00  0.619310181E+01
   H  0.421478431E+02  0.209000010E+01 -0.434937605E+01
     4
 # iter = 79000  time[fs]=79.00000
   C -0.108810159E+02 -0.361487784E+00 -0.500958801E+00
   C  0.101613730E+02  0.806350451E-01  0.571495531E+00
   H -0.441485243E+02 -0.416098777E+00  0.624573670E+01
   H  0.425016394E+02  0.210770341E+01 -0.438607052E+01
     4
 # iter = 79500  time[fs]=79.50000
   C -0.109812072E+02 -0.364573098E+00 -0.505777500E+00
   C  0.102553389E+02  0.814929922E-01  0.577109463E+00
   H -0.445173056E+02 -0.419437913E+00  0.629837933E+01
   H  0.428554841E+02  0.212540940E+01 -0.442277130E+01
     4
 # iter = 80000  time[fs]=80.00000
   C -0.110814343E+02 -0.367659234E+00 -0.510598512E+00
   C  0.103493403E+02  0.823515648E-01  0.582725592E+00
   H -0.448861317E+02 -0.422777330E+00  0.635102958E+01
   H  0.432093765E+02  0.214311804E+01 -0.445947830E+01
