     4
 # iter = 25000  time[fs]=25.00000
   C -0.103287237E+01  0.225560058E-01  0.294619077E-01
   C  0.967491096E+00  0.225176123E-02 -0.247805805E-01
   H -0.533359187E+01 -0.456837688E+00  0.464259634E+00
   H  0.525733310E+01 -0.253605787E+00 -0.368360303E+00
     4
 # iter = 25500  time[fs]=25.50000
   C -0.108023134E+01  0.246295924E-01  0.297978364E-01
   C  0.100713833E+01  0.322446462E-02 -0.230838126E-01
   H -0.566887191E+01 -0.485867417E+00  0.494734491E+00
   H  0.557662761E+01 -0.269210062E+00 -0.389149389E+00
     4
 # iter = 26000  time[fs]=26.00000
   C -0.113048114E+01  0.267678900E-01  0.301924607E-01
   C  0.104963293E+01  0.419679837E-02 -0.214493841E-01
   H -0.600930167E+01 -0.515375580E+00  0.525681505E+00
   H  0.590159348E+01 -0.285107998E+00 -0.410366909E+00
     4
 # iter = 26500  time[fs]=26.50000
   C -0.118338727E+01  0.289647551E-01  0.306369276E-01
   C  0.109474470E+01  0.516773056E-02 -0.198680477E-01
   H -0.635430583E+01 -0.545308451E+00  0.557048185E+00
   H  0.623160368E+01 -0.301267217E+00 -0.431965098E+00
     4
 # iter = 27000  time[fs]=27.00000
   C -0.123873047E+01  0.312147765E-01  0.311235909E-01
   C  0.114225814E+01  0.613659243E-02 -0.183318228E-01
   H -0.670339545E+01 -0.575620580E+00  0.588789969E+00
   H  0.656612406E+01 -0.317660212E+00 -0.453903411E+00
     4
 # iter = 27500  time[fs]=27.50000
   C -0.129630780E+01  0.335131706E-01  0.316459021E-01
   C  0.119197362E+01  0.710297719E-02 -0.168338739E-01
   H -0.705615230E+01 -0.606273217E+00  0.620868761E+00
   H  0.690469672E+01 -0.334263445E+00 -0.476147195E+00
     4
 # iter = 28000  time[fs]=28.00000
   C -0.135593287E+01  0.358556956E-01  0.321982857E-01
   C  0.124370767E+01  0.806666474E-02 -0.153683775E-01
   H -0.741221639E+01 -0.637233090E+00  0.653251775E+00
   H  0.724692679E+01 -0.351056645E+00 -0.498666639E+00
     4
 # iter = 28500  time[fs]=28.50000
   C -0.141743549E+01  0.382385803E-01  0.327760131E-01
   C  0.129729264E+01  0.902756600E-02 -0.139303901E-01
   H -0.777127601E+01 -0.668471445E+00  0.685910630E+00
   H  0.759247189E+01 -0.368022246E+00 -0.521435943E+00
     4
 # iter = 29000  time[fs]=29.00000
   C -0.148066079E+01  0.406584641E-01  0.333750853E-01
   C  0.135257592E+01  0.998568219E-02 -0.125157241E-01
   H -0.813305980E+01 -0.699963276E+00  0.718820611E+00
   H  0.794103352E+01 -0.385144937E+00 -0.544432652E+00
     4
 # iter = 29500  time[fs]=29.50000
   C -0.154546831E+01  0.431123447E-01  0.339921241E-01
   C  0.140941907E+01  0.109410752E-01 -0.111208361E-01
   H -0.849733026E+01 -0.731686718E+00  0.751960083E+00
   H  0.829235017E+01 -0.402411303E+00 -0.567637117E+00
     4
 # iter = 30000  time[fs]=30.00000
   C -0.161173082E+01  0.455975351E-01  0.346242783E-01
   C  0.146769663E+01  0.118938461E-01 -0.974272873E-02
   H -0.886387856E+01 -0.763622549E+00  0.785310012E+00
   H  0.864619163E+01 -0.419809531E+00 -0.591032056E+00
     4
 # iter = 30500  time[fs]=30.50000
   C -0.167933322E+01  0.481116241E-01  0.352691408E-01
   C  0.152729507E+01  0.128441202E-01 -0.837886522E-02
   H -0.923252020E+01 -0.795753791E+00  0.818853576E+00
   H  0.900235436E+01 -0.437329169E+00 -0.614602202E+00
     4
 # iter = 31000  time[fs]=31.00000
   C -0.174817138E+01  0.506524441E-01  0.359246784E-01
   C  0.158811171E+01  0.137920358E-01 -0.702709710E-02
   H -0.960309152E+01 -0.828065379E+00  0.852575840E+00
   H  0.936065764E+01 -0.454960931E+00 -0.638334005E+00
     4
 # iter = 31500  time[fs]=31.50000
   C -0.181815110E+01  0.532180418E-01  0.365891725E-01
   C  0.165005360E+01  0.147377371E-01 -0.568560234E-02
   H -0.997544670E+01 -0.860543890E+00  0.886463490E+00
   H  0.972094036E+01 -0.472696532E+00 -0.662215392E+00
     4
 # iter = 32000  time[fs]=32.00000
   C -0.188918709E+01  0.558066534E-01  0.372611682E-01
   C  0.171303663E+01  0.156813688E-01 -0.435283358E-02
   H -0.103494554E+02 -0.893177315E+00  0.920504613E+00
   H  0.100830584E+02 -0.490528550E+00 -0.686235560E+00
     4
 # iter = 32500  time[fs]=32.50000
   C -0.196120211E+01  0.584166829E-01  0.379394328E-01
   C  0.177698456E+01  0.166230724E-01 -0.302747451E-02
   H -0.107250005E+02 -0.925954869E+00  0.954688511E+00
   H  0.104468823E+02 -0.508450317E+00 -0.710384812E+00
     4
 # iter = 33000  time[fs]=33.00000
   C -0.203412608E+01  0.610466828E-01  0.386229198E-01
   C  0.184182826E+01  0.175629845E-01 -0.170840344E-02
   H -0.111019768E+02 -0.958866838E+00  0.989005542E+00
   H  0.108122954E+02 -0.526455816E+00 -0.734654411E+00
     4
 # iter = 33500  time[fs]=33.50000
   C -0.210789535E+01  0.636953378E-01  0.393107401E-01
   C  0.190750494E+01  0.185012348E-01 -0.394662769E-03
   H -0.114802891E+02 -0.991904437E+00  0.102344699E+01
   H  0.111791925E+02 -0.544539604E+00 -0.759036460E+00
     4
 # iter = 34000  time[fs]=34.00000
   C -0.218245206E+01  0.663614501E-01  0.400021367E-01
   C  0.197395751E+01  0.194379460E-01  0.914566461E-03
   H -0.118598512E+02 -0.102505970E+01  0.105800495E+01
   H  0.115474779E+02 -0.562696744E+00 -0.783523799E+00
     4
 # iter = 34500  time[fs]=34.50000
   C -0.225774351E+01  0.690439266E-01  0.406964645E-01
   C  0.204113397E+01  0.203732327E-01  0.221998594E-02
   H -0.122405847E+02 -0.105832539E+01  0.109267223E+01
   H  0.119170649E+02 -0.580922739E+00 -0.808109919E+00
     4
 # iter = 35000  time[fs]=35.00000
   C -0.233372161E+01  0.717417680E-01  0.413931730E-01
   C  0.210898689E+01  0.213072022E-01  0.352219793E-02
   H -0.126224182E+02 -0.109169489E+01  0.112744228E+01
   H  0.122878743E+02 -0.599213489E+00 -0.832788885E+00
     4
 # iter = 35500  time[fs]=35.50000
   C -0.241034245E+01  0.744540588E-01  0.420917916E-01
   C  0.217747294E+01  0.222399540E-01  0.482172022E-02
   H -0.130052866E+02 -0.112516218E+01  0.116230910E+01
   H  0.126598339E+02 -0.617565240E+00 -0.857555271E+00
     4
 # iter = 36000  time[fs]=36.00000
   C -0.248756583E+01  0.771799589E-01  0.427919179E-01
   C  0.224655247E+01  0.231715802E-01  0.611899867E-02
   H -0.133891302E+02 -0.115872170E+01  0.119726721E+01
   H  0.130328774E+02 -0.635974552E+00 -0.882404106E+00
     4
 # iter = 36500  time[fs]=36.50000
   C -0.256535492E+01  0.799186955E-01  0.434932074E-01
   C  0.231618915E+01  0.241021662E-01  0.741441783E-02
   H -0.137738942E+02 -0.119236839E+01  0.123231156E+01
   H  0.134069440E+02 -0.654438262E+00 -0.907330825E+00
     4
 # iter = 37000  time[fs]=37.00000
   C -0.264367591E+01  0.826695569E-01  0.441953648E-01
   C  0.238634962E+01  0.250317907E-01  0.870830977E-02
   H -0.141595282E+02 -0.122609755E+01  0.126743749E+01
   H  0.137819778E+02 -0.672953457E+00 -0.932331224E+00
     4
 # iter = 37500  time[fs]=37.50000
   C -0.272249770E+01  0.854318864E-01  0.448981371E-01
   C  0.245700322E+01  0.259605265E-01  0.100009616E-01
   H -0.145459857E+02 -0.125990487E+01  0.130264073E+01
   H  0.141579273E+02 -0.691517448E+00 -0.957401427E+00
     4
 # iter = 38000  time[fs]=38.00000
   C -0.280179164E+01  0.882050769E-01  0.456013071E-01
   C  0.252812170E+01  0.268884406E-01  0.112926220E-01
   H -0.149332239E+02 -0.129378634E+01  0.133791732E+01
   H  0.145347447E+02 -0.710127747E+00 -0.982537850E+00
     4
 # iter = 38500  time[fs]=38.50000
   C -0.288153134E+01  0.909885662E-01  0.463046888E-01
   C  0.259967902E+01  0.278155947E-01  0.125835062E-01
   H -0.153212030E+02 -0.132773829E+01  0.137326359E+01
   H  0.149123861E+02 -0.728782049E+00 -0.100773718E+01
     4
 # iter = 39000  time[fs]=39.00000
   C -0.296169238E+01  0.937818331E-01  0.470081224E-01
   C  0.267165111E+01  0.287420458E-01  0.138738010E-01
   H -0.157098862E+02 -0.136175726E+01  0.140867612E+01
   H  0.152908104E+02 -0.747478216E+00 -0.103299632E+01
     4
 # iter = 39500  time[fs]=39.50000
   C -0.304225220E+01  0.965843935E-01  0.477114712E-01
   C  0.274401571E+01  0.296678463E-01  0.151636685E-01
   H -0.160992394E+02 -0.139584007E+01  0.144415177E+01
   H  0.156699799E+02 -0.766214257E+00 -0.105831243E+01
     4
 # iter = 40000  time[fs]=40.00000
   C -0.312318986E+01  0.993957969E-01  0.484146180E-01
   C  0.281675220E+01  0.305930446E-01  0.164532494E-01
   H -0.164892308E+02 -0.142998375E+01  0.147968757E+01
   H  0.160498590E+02 -0.784988321E+00 -0.108368284E+01
     4
 # iter = 40500  time[fs]=40.50000
   C -0.320448597E+01  0.102215624E+00  0.491174627E-01
   C  0.288984145E+01  0.315176851E-01  0.177426657E-01
   H -0.168798308E+02 -0.146418553E+01  0.151528080E+01
   H  0.164304150E+02 -0.803798679E+00 -0.110910507E+01
     4
 # iter = 41000  time[fs]=41.00000
   C -0.328612248E+01  0.105043483E+00  0.498199198E-01
   C  0.296326567E+01  0.324418091E-01  0.190320235E-01
   H -0.172710117E+02 -0.149844281E+01  0.155092887E+01
   H  0.168116170E+02 -0.822643715E+00 -0.113457679E+01
     4
 # iter = 41500  time[fs]=41.50000
   C -0.336808261E+01  0.107879009E+00  0.505219164E-01
   C  0.303700831E+01  0.333654544E-01  0.203214148E-01
   H -0.176627476E+02 -0.153275319E+01  0.158662939E+01
   H  0.171934365E+02 -0.841521919E+00 -0.116009584E+01
     4
 # iter = 42000  time[fs]=42.00000
   C -0.345035072E+01  0.110721859E+00  0.512233906E-01
   C  0.311105397E+01  0.342886560E-01  0.216109195E-01
   H -0.180550145E+02 -0.156711438E+01  0.162238011E+01
   H  0.175758464E+02 -0.860431876E+00 -0.118566018E+01
     4
 # iter = 42500  time[fs]=42.50000
   C -0.353291223E+01  0.113571714E+00  0.519242903E-01
   C  0.318538828E+01  0.352114462E-01  0.229006068E-01
   H -0.184477896E+02 -0.160152426E+01  0.165817893E+01
   H  0.179588216E+02 -0.879372258E+00 -0.121126791E+01
     4
 # iter = 43000  time[fs]=43.00000
   C -0.361575350E+01  0.116428273E+00  0.526245714E-01
   C  0.325999779E+01  0.361338549E-01  0.241905366E-01
   H -0.188410517E+02 -0.163598084E+01  0.169402387E+01
   H  0.183423386E+02 -0.898341816E+00 -0.123691725E+01
     4
 # iter = 43500  time[fs]=43.50000
   C -0.369886179E+01  0.119291255E+00  0.533241969E-01
   C  0.333486995E+01  0.370559096E-01  0.254807607E-01
   H -0.192347808E+02 -0.167048223E+01  0.172991307E+01
   H  0.187263750E+02 -0.917339379E+00 -0.126260651E+01
     4
 # iter = 44000  time[fs]=44.00000
   C -0.378222517E+01  0.122160393E+00  0.540231365E-01
   C  0.340999300E+01  0.379776360E-01  0.267713237E-01
   H -0.196289582E+02 -0.170502667E+01  0.176584476E+01
   H  0.191109100E+02 -0.936363841E+00 -0.128833411E+01
     4
 # iter = 44500  time[fs]=44.50000
   C -0.386583244E+01  0.125035440E+00  0.547213648E-01
   C  0.348535592E+01  0.388990575E-01  0.280622640E-01
   H -0.200235662E+02 -0.173961249E+01  0.180181731E+01
   H  0.194959239E+02 -0.955414161E+00 -0.131409856E+01
     4
 # iter = 45000  time[fs]=45.00000
   C -0.394967311E+01  0.127916159E+00  0.554188616E-01
   C  0.356094836E+01  0.398201963E-01  0.293536147E-01
   H -0.204185880E+02 -0.177423812E+01  0.183782916E+01
   H  0.198813981E+02 -0.974489356E+00 -0.133989844E+01
     4
 # iter = 45500  time[fs]=45.50000
   C -0.403373730E+01  0.130802331E+00  0.561156104E-01
   C  0.363676060E+01  0.407410724E-01  0.306454038E-01
   H -0.208140080E+02 -0.180890207E+01  0.187387883E+01
   H  0.202673152E+02 -0.993588498E+00 -0.136573244E+01
     4
 # iter = 46000  time[fs]=46.00000
   C -0.411801574E+01  0.133693744E+00  0.568115987E-01
   C  0.371278350E+01  0.416617047E-01  0.319376553E-01
   H -0.212098112E+02 -0.184360294E+01  0.190996494E+01
   H  0.206536586E+02 -0.101271071E+01 -0.139159929E+01
     4
 # iter = 46500  time[fs]=46.50000
   C -0.420249969E+01  0.136590203E+00  0.575068168E-01
   C  0.378900845E+01  0.425821108E-01  0.332303893E-01
   H -0.216059836E+02 -0.187833939E+01  0.194608616E+01
   H  0.210404126E+02 -0.103185516E+01 -0.141749781E+01
     4
 # iter = 47000  time[fs]=47.00000
   C -0.428718091E+01  0.139491520E+00  0.582012579E-01
   C  0.386542734E+01  0.435023067E-01  0.345236227E-01
   H -0.220025120E+02 -0.191311016E+01  0.198224126E+01
   H  0.214275625E+02 -0.105102106E+01 -0.144342687E+01
     4
 # iter = 47500  time[fs]=47.50000
   C -0.437205163E+01  0.142397518E+00  0.588949176E-01
   C  0.394203253E+01  0.444223076E-01  0.358173696E-01
   H -0.223993835E+02 -0.194791407E+01  0.201842904E+01
   H  0.218150942E+02 -0.107020766E+01 -0.146938541E+01
     4
 # iter = 48000  time[fs]=48.00000
   C -0.445710452E+01  0.145308029E+00  0.595877933E-01
   C  0.401881678E+01  0.453421275E-01  0.371116414E-01
   H -0.227965864E+02 -0.198274998E+01  0.205464839E+01
   H  0.222029944E+02 -0.108941426E+01 -0.149537240E+01
     4
 # iter = 48500  time[fs]=48.50000
   C -0.454233264E+01  0.148222896E+00  0.602798844E-01
   C  0.409577327E+01  0.462617794E-01  0.384064475E-01
   H -0.231941092E+02 -0.201761680E+01  0.209089824E+01
   H  0.225912504E+02 -0.110864017E+01 -0.152138689E+01
     4
 # iter = 49000  time[fs]=49.00000
   C -0.462772942E+01  0.151141966E+00  0.609711920E-01
   C  0.417289553E+01  0.471812753E-01  0.397017950E-01
   H -0.235919412E+02 -0.205251352E+01  0.212717758E+01
   H  0.229798503E+02 -0.112788477E+01 -0.154742796E+01
     4
 # iter = 49500  time[fs]=49.50000
   C -0.471328865E+01  0.154065097E+00  0.616617182E-01
   C  0.425017745E+01  0.481006267E-01  0.409976895E-01
   H -0.239900720E+02 -0.208743916E+01  0.216348545E+01
   H  0.233687826E+02 -0.114714744E+01 -0.157349474E+01
     4
 # iter = 50000  time[fs]=50.00000
   C -0.479900446E+01  0.156992152E+00  0.623514664E-01
   C  0.432761324E+01  0.490198439E-01  0.422941351E-01
   H -0.243884920E+02 -0.212239280E+01  0.219982092E+01
   H  0.237580365E+02 -0.116642761E+01 -0.159958641E+01
     4
 # iter = 50500  time[fs]=50.50000
   C -0.488487124E+01  0.159923003E+00  0.630404411E-01
   C  0.440519739E+01  0.499389369E-01  0.435911343E-01
   H -0.247871918E+02 -0.215737354E+01  0.223618312E+01
   H  0.241476016E+02 -0.118572470E+01 -0.162570216E+01
     4
 # iter = 51000  time[fs]=51.00000
   C -0.497088371E+01  0.162857524E+00  0.637286476E-01
   C  0.448292469E+01  0.508579148E-01  0.448886887E-01
   H -0.251861626E+02 -0.219238054E+01  0.227257121E+01
   H  0.245374680E+02 -0.120503821E+01 -0.165184126E+01
     4
 # iter = 51500  time[fs]=51.50000
   C -0.505703682E+01  0.165795599E+00  0.644160919E-01
   C  0.456079018E+01  0.517767860E-01  0.461867986E-01
   H -0.255853958E+02 -0.222741301E+01  0.230898441E+01
   H  0.249276263E+02 -0.122436763E+01 -0.167800298E+01
     4
 # iter = 52000  time[fs]=52.00000
   C -0.514332579E+01  0.168737116E+00  0.651027807E-01
   C  0.463878916E+01  0.526955587E-01  0.474854636E-01
   H -0.259848835E+02 -0.226247016E+01  0.234542195E+01
   H  0.253180677E+02 -0.124371247E+01 -0.170418664E+01
     4
 # iter = 52500  time[fs]=52.50000
   C -0.522974606E+01  0.171681968E+00  0.657887211E-01
   C  0.471691712E+01  0.536142402E-01  0.487846825E-01
   H -0.263846179E+02 -0.229755128E+01  0.238188311E+01
   H  0.257087834E+02 -0.126307228E+01 -0.173039158E+01
     4
 # iter = 53000  time[fs]=53.00000
   C -0.531629329E+01  0.174630052E+00  0.664739208E-01
   C  0.479516982E+01  0.545328374E-01  0.500844531E-01
   H -0.267845917E+02 -0.233265564E+01  0.241836718E+01
   H  0.260997652E+02 -0.128244662E+01 -0.175661716E+01
     4
 # iter = 53500  time[fs]=53.50000
   C -0.540296336E+01  0.177581271E+00  0.671583877E-01
   C  0.487354319E+01  0.554513570E-01  0.513847729E-01
   H -0.271847978E+02 -0.236778258E+01  0.245487351E+01
   H  0.264910055E+02 -0.130183506E+01 -0.178286281E+01
     4
 # iter = 54000  time[fs]=54.00000
   C -0.548975232E+01  0.180535532E+00  0.678421303E-01
   C  0.495203333E+01  0.563698049E-01  0.526856387E-01
   H -0.275852295E+02 -0.240293146E+01  0.249140146E+01
   H  0.268824966E+02 -0.132123721E+01 -0.180912793E+01
     4
 # iter = 54500  time[fs]=54.50000
   C -0.557665642E+01  0.183492744E+00  0.685251571E-01
   C  0.503063657E+01  0.572881869E-01  0.539870469E-01
   H -0.279858803E+02 -0.243810166E+01  0.252795042E+01
   H  0.272742313E+02 -0.134065267E+01 -0.183541197E+01
     4
 # iter = 55000  time[fs]=55.00000
   C -0.566367205E+01  0.186452824E+00  0.692074768E-01
   C  0.510934937E+01  0.582065084E-01  0.552889936E-01
   H -0.283867440E+02 -0.247329259E+01  0.256451980E+01
   H  0.276662029E+02 -0.136008108E+01 -0.186171442E+01
     4
 # iter = 55500  time[fs]=55.50000
   C -0.575079581E+01  0.189415688E+00  0.698890985E-01
   C  0.518816835E+01  0.591247742E-01  0.565914742E-01
   H -0.287878148E+02 -0.250850367E+01  0.260110904E+01
   H  0.280584046E+02 -0.137952208E+01 -0.188803477E+01
     4
 # iter = 56000  time[fs]=56.00000
   C -0.583802441E+01  0.192381259E+00  0.705700310E-01
   C  0.526709030E+01  0.600429892E-01  0.578944842E-01
   H -0.291890868E+02 -0.254373437E+01  0.263771762E+01
   H  0.284508302E+02 -0.139897534E+01 -0.191437252E+01
     4
 # iter = 56500  time[fs]=56.50000
   C -0.592535471E+01  0.195349462E+00  0.712502837E-01
   C  0.534611212E+01  0.609611576E-01  0.591980186E-01
   H -0.295905548E+02 -0.257898416E+01  0.267434500E+01
   H  0.288434735E+02 -0.141844052E+01 -0.194072721E+01
     4
 # iter = 57000  time[fs]=57.00000
   C -0.601278372E+01  0.198320223E+00  0.719298656E-01
   C  0.542523087E+01  0.618792836E-01  0.605020723E-01
   H -0.299922133E+02 -0.261425254E+01  0.271099069E+01
   H  0.292363288E+02 -0.143791731E+01 -0.196709841E+01
     4
 # iter = 57500  time[fs]=57.50000
   C -0.610030856E+01  0.201293474E+00  0.726087860E-01
   C  0.550444373E+01  0.627973711E-01  0.618066399E-01
   H -0.303940575E+02 -0.264953903E+01  0.274765422E+01
   H  0.296293905E+02 -0.145740541E+01 -0.199348566E+01
     4
 # iter = 58000  time[fs]=58.00000
   C -0.618792649E+01  0.204269148E+00  0.732870542E-01
   C  0.558374799E+01  0.637154236E-01  0.631117160E-01
   H -0.307960824E+02 -0.268484316E+01  0.278433513E+01
   H  0.300226531E+02 -0.147690452E+01 -0.201988857E+01
     4
 # iter = 58500  time[fs]=58.50000
   C -0.627563485E+01  0.207247182E+00  0.739646792E-01
   C  0.566314105E+01  0.646334447E-01  0.644172950E-01
   H -0.311982834E+02 -0.272016448E+01  0.282103297E+01
   H  0.304161115E+02 -0.149641438E+01 -0.204630673E+01
     4
 # iter = 59000  time[fs]=59.00000
   C -0.636343114E+01  0.210227513E+00  0.746416704E-01
   C  0.574262042E+01  0.655514374E-01  0.657233711E-01
   H -0.316006560E+02 -0.275550257E+01  0.285774732E+01
   H  0.308097606E+02 -0.151593470E+01 -0.207273976E+01
     4
 # iter = 59500  time[fs]=59.50000
   C -0.645131290E+01  0.213210083E+00  0.753180368E-01
   C  0.582218372E+01  0.664694047E-01  0.670299385E-01
   H -0.320031959E+02 -0.279085700E+01  0.289447778E+01
   H  0.312035958E+02 -0.153546524E+01 -0.209918729E+01
     4
 # iter = 60000  time[fs]=60.00000
   C -0.653927782E+01  0.216194834E+00  0.759937874E-01
   C  0.590182865E+01  0.673873495E-01  0.683369915E-01
   H -0.324058989E+02 -0.282622739E+01  0.293122394E+01
   H  0.315976123E+02 -0.155500573E+01 -0.212564897E+01
     4
 # iter = 60500  time[fs]=60.50000
   C -0.662732365E+01  0.219181712E+00  0.766689313E-01
   C  0.598155302E+01  0.683052745E-01  0.696445241E-01
   H -0.328087611E+02 -0.286161334E+01  0.296798543E+01
   H  0.319918058E+02 -0.157455594E+01 -0.215212445E+01
     4
 # iter = 61000  time[fs]=61.00000
   C -0.671544824E+01  0.222170665E+00  0.773434775E-01
   C  0.606135470E+01  0.692231820E-01  0.709525304E-01
   H -0.332117786E+02 -0.289701449E+01  0.300476187E+01
   H  0.323861719E+02 -0.159411564E+01 -0.217861340E+01
     4
 # iter = 61500  time[fs]=61.50000
   C -0.680364952E+01  0.225161641E+00  0.780174346E-01
   C  0.614123166E+01  0.701410744E-01  0.722610046E-01
   H -0.336149477E+02 -0.293243046E+01  0.304155293E+01
   H  0.327807064E+02 -0.161368460E+01 -0.220511550E+01
     4
 # iter = 62000  time[fs]=62.00000
   C -0.689192550E+01  0.228154590E+00  0.786908114E-01
   C  0.622118194E+01  0.710589540E-01  0.735699406E-01
   H -0.340182647E+02 -0.296786093E+01  0.307835825E+01
   H  0.331754055E+02 -0.163326261E+01 -0.223163044E+01
     4
 # iter = 62500  time[fs]=62.50000
   C -0.698027426E+01  0.231149467E+00  0.793636165E-01
   C  0.630120366E+01  0.719768228E-01  0.748793325E-01
   H -0.344217262E+02 -0.300330556E+01  0.311517751E+01
   H  0.335702652E+02 -0.165284945E+01 -0.225815793E+01
     4
 # iter = 63000  time[fs]=63.00000
   C -0.706869395E+01  0.234146225E+00  0.800358585E-01
   C  0.638129501E+01  0.728946826E-01  0.761891746E-01
   H -0.348253290E+02 -0.303876401E+01  0.315201038E+01
   H  0.339652818E+02 -0.167244493E+01 -0.228469769E+01
     4
 # iter = 63500  time[fs]=63.50000
   C -0.715718281E+01  0.237144820E+00  0.807075457E-01
   C  0.646145423E+01  0.738125354E-01  0.774994608E-01
   H -0.352290696E+02 -0.307423599E+01  0.318885656E+01
   H  0.343604517E+02 -0.169204885E+01 -0.231124942E+01
     4
 # iter = 64000  time[fs]=64.00000
   C -0.724573911E+01  0.240145209E+00  0.813786864E-01
   C  0.654167964E+01  0.747303829E-01  0.788101853E-01
   H -0.356329451E+02 -0.310972119E+01  0.322571576E+01
   H  0.347557715E+02 -0.171166102E+01 -0.233781287E+01
     4
 # iter = 64500  time[fs]=64.50000
   C -0.733436120E+01  0.243147352E+00  0.820492887E-01
   C  0.662196963E+01  0.756482266E-01  0.801213425E-01
   H -0.360369523E+02 -0.314521931E+01  0.326258768E+01
   H  0.351512377E+02 -0.173128127E+01 -0.236438777E+01
     4
 # iter = 65000  time[fs]=65.00000
   C -0.742304750E+01  0.246151209E+00  0.827193607E-01
   C  0.670232262E+01  0.765660681E-01  0.814329264E-01
   H -0.364410885E+02 -0.318073008E+01  0.329947205E+01
   H  0.355468472E+02 -0.175090940E+01 -0.239097388E+01
     4
 # iter = 65500  time[fs]=65.50000
   C -0.751179645E+01  0.249156742E+00  0.833889102E-01
   C  0.678273710E+01  0.774839088E-01  0.827449315E-01
   H -0.368453506E+02 -0.321625322E+01  0.333636859E+01
   H  0.359425968E+02 -0.177054526E+01 -0.241757095E+01
     4
 # iter = 66000  time[fs]=66.00000
   C -0.760060659E+01  0.252163912E+00  0.840579452E-01
   C  0.686321161E+01  0.784017501E-01  0.840573520E-01
   H -0.372497361E+02 -0.325178847E+01  0.337327705E+01
   H  0.363384834E+02 -0.179018867E+01 -0.244417875E+01
     4
 # iter = 66500  time[fs]=66.50000
   C -0.768947648E+01  0.255172685E+00  0.847264731E-01
   C  0.694374476E+01  0.793195931E-01  0.853701824E-01
   H -0.376542423E+02 -0.328733557E+01  0.341019717E+01
   H  0.367345041E+02 -0.180983949E+01 -0.247079704E+01
     4
 # iter = 67000  time[fs]=67.00000
   C -0.777840472E+01  0.258183025E+00  0.853945016E-01
   C  0.702433517E+01  0.802374391E-01  0.866834171E-01
   H -0.380588666E+02 -0.332289428E+01  0.344712872E+01
   H  0.371306561E+02 -0.182949754E+01 -0.249742561E+01
     4
 # iter = 67500  time[fs]=67.50000
   C -0.786739000E+01  0.261194900E+00  0.860620380E-01
   C  0.710498154E+01  0.811552893E-01  0.879970508E-01
   H -0.384636065E+02 -0.335846435E+01  0.348407144E+01
   H  0.375269366E+02 -0.184916269E+01 -0.252406425E+01
     4
 # iter = 68000  time[fs]=68.00000
   C -0.795643100E+01  0.264208275E+00  0.867290897E-01
   C  0.718568258E+01  0.820731446E-01  0.893110780E-01
   H -0.388684597E+02 -0.339404555E+01  0.352102512E+01
   H  0.379233429E+02 -0.186883478E+01 -0.255071275E+01
     4
 # iter = 68500  time[fs]=68.50000
   C -0.804552649E+01  0.267223121E+00  0.873956637E-01
   C  0.726643709E+01  0.829910060E-01  0.906254934E-01
   H -0.392734237E+02 -0.342963765E+01  0.355798953E+01
   H  0.383198725E+02 -0.188851368E+01 -0.257737090E+01
     4
 # iter = 69000  time[fs]=69.00000
   C -0.813467525E+01  0.270239405E+00  0.880617671E-01
   C  0.734724386E+01  0.839088744E-01  0.919402917E-01
   H -0.396784964E+02 -0.346524044E+01  0.359496445E+01
   H  0.387165227E+02 -0.190819925E+01 -0.260403851E+01
     4
 # iter = 69500  time[fs]=69.50000
   C -0.822387611E+01  0.273257099E+00  0.887274069E-01
   C  0.742810174E+01  0.848267508E-01  0.932554677E-01
   H -0.400836755E+02 -0.350085371E+01  0.363194968E+01
   H  0.391132913E+02 -0.192789135E+01 -0.263071540E+01
     4
 # iter = 70000  time[fs]=70.00000
   C -0.831312795E+01  0.276276173E+00  0.893925897E-01
   C  0.750900963E+01  0.857446359E-01  0.945710164E-01
   H -0.404889589E+02 -0.353647724E+01  0.366894500E+01
   H  0.395101757E+02 -0.194758985E+01 -0.265740137E+01
     4
 # iter = 70500  time[fs]=70.50000
   C -0.840242965E+01  0.279296601E+00  0.900573223E-01
   C  0.758996644E+01  0.866625306E-01  0.958869327E-01
   H -0.408943446E+02 -0.357211084E+01  0.370595023E+01
   H  0.399071737E+02 -0.196729464E+01 -0.268409626E+01
     4
 # iter = 71000  time[fs]=71.00000
   C -0.849178016E+01  0.282318354E+00  0.907216112E-01
   C  0.767097114E+01  0.875804354E-01  0.972032116E-01
   H -0.412998305E+02 -0.360775431E+01  0.374296517E+01
   H  0.403042832E+02 -0.198700559E+01 -0.271079989E+01
     4
 # iter = 71500  time[fs]=71.50000
   C -0.858117846E+01  0.285341406E+00  0.913854629E-01
   C  0.775202270E+01  0.884983512E-01  0.985198483E-01
   H -0.417054148E+02 -0.364340746E+01  0.377998964E+01
   H  0.407015018E+02 -0.200672258E+01 -0.273751208E+01
     4
 # iter = 72000  time[fs]=72.00000
   C -0.867062353E+01  0.288365732E+00  0.920488835E-01
   C  0.783312016E+01  0.894162785E-01  0.998368379E-01
   H -0.421110954E+02 -0.367907012E+01  0.381702345E+01
   H  0.410988275E+02 -0.202644549E+01 -0.276423269E+01
     4
 # iter = 72500  time[fs]=72.50000
   C -0.876011442E+01  0.291391308E+00  0.927118794E-01
   C  0.791426255E+01  0.903342180E-01  0.101154176E+00
   H -0.425168706E+02 -0.371474209E+01  0.385406643E+01
   H  0.414962584E+02 -0.204617422E+01 -0.279096154E+01
     4
 # iter = 73000  time[fs]=73.00000
   C -0.884965019E+01  0.294418108E+00  0.933744567E-01
   C  0.799544896E+01  0.912521701E-01  0.102471857E+00
   H -0.429227385E+02 -0.375042321E+01  0.389111840E+01
   H  0.418937923E+02 -0.206590866E+01 -0.281769849E+01
     4
 # iter = 73500  time[fs]=73.50000
   C -0.893922992E+01  0.297446110E+00  0.940366212E-01
   C  0.807667850E+01  0.921701354E-01  0.103789877E+00
   H -0.433286976E+02 -0.378611331E+01  0.392817921E+01
   H  0.422914273E+02 -0.208564869E+01 -0.284444338E+01
     4
 # iter = 74000  time[fs]=74.00000
   C -0.902885273E+01  0.300475292E+00  0.946983788E-01
   C  0.815795029E+01  0.930881144E-01  0.105108232E+00
   H -0.437347460E+02 -0.382181222E+01  0.396524868E+01
   H  0.426891616E+02 -0.210539423E+01 -0.287119607E+01
     4
 # iter = 74500  time[fs]=74.50000
   C -0.911851776E+01  0.303505630E+00  0.953597353E-01
   C  0.823926349E+01  0.940061076E-01  0.106426916E+00
   H -0.441408821E+02 -0.385751978E+01  0.400232667E+01
   H  0.430869934E+02 -0.212514516E+01 -0.289795642E+01
     4
 # iter = 75000  time[fs]=75.00000
   C -0.920822419E+01  0.306537103E+00  0.960206964E-01
   C  0.832061729E+01  0.949241154E-01  0.107745926E+00
   H -0.445471043E+02 -0.389323585E+01  0.403941301E+01
   H  0.434849208E+02 -0.214490139E+01 -0.292472429E+01
     4
 # iter = 75500  time[fs]=75.50000
   C -0.929797119E+01  0.309569691E+00  0.966812676E-01
   C  0.840201089E+01  0.958421382E-01  0.109065258E+00
   H -0.449534111E+02 -0.392896026E+01  0.407650756E+01
   H  0.438829422E+02 -0.216466283E+01 -0.295149954E+01
     4
 # iter = 76000  time[fs]=76.00000
   C -0.938775800E+01  0.312603373E+00  0.973414543E-01
   C  0.848344351E+01  0.967601763E-01  0.110384906E+00
   H -0.453598009E+02 -0.396469287E+01  0.411361018E+01
   H  0.442810558E+02 -0.218442938E+01 -0.297828205E+01
     4
 # iter = 76500  time[fs]=76.50000
   C -0.947758383E+01  0.315638129E+00  0.980012618E-01
   C  0.856491442E+01  0.976782301E-01  0.111704867E+00
   H -0.457662723E+02 -0.400043354E+01  0.415072072E+01
   H  0.446792601E+02 -0.220420096E+01 -0.300507168E+01
     4
 # iter = 77000  time[fs]=77.00000
   C -0.956744796E+01  0.318673941E+00  0.986606955E-01
   C  0.864642288E+01  0.985962999E-01  0.113025137E+00
   H -0.461728239E+02 -0.403618213E+01  0.418783904E+01
   H  0.450775533E+02 -0.222397747E+01 -0.303186832E+01
     4
 # iter = 77500  time[fs]=77.50000
   C -0.965734966E+01  0.321710789E+00  0.993197604E-01
   C  0.872796818E+01  0.995143861E-01  0.114345712E+00
   H -0.465794542E+02 -0.407193850E+01  0.422496502E+01
   H  0.454759341E+02 -0.224375884E+01 -0.305867184E+01
     4
 # iter = 78000  time[fs]=78.00000
   C -0.974728822E+01  0.324748655E+00  0.999784616E-01
   C  0.880954964E+01  0.100432489E+00  0.115666587E+00
   H -0.469861620E+02 -0.410770251E+01  0.426209851E+01
   H  0.458744008E+02 -0.226354498E+01 -0.308548212E+01
     4
 # iter = 78500  time[fs]=78.50000
   C -0.983726297E+01  0.327787522E+00  0.100636804E+00
   C  0.889116658E+01  0.101350608E+00  0.116987759E+00
   H -0.473929457E+02 -0.414347404E+01  0.429923940E+01
   H  0.462729520E+02 -0.228333580E+01 -0.311229905E+01
     4
 # iter = 79000  time[fs]=79.00000
   C -0.992727324E+01  0.330827371E+00  0.101294793E+00
   C  0.897281835E+01  0.102268745E+00  0.118309224E+00
   H -0.477998043E+02 -0.417925297E+01  0.433638755E+01
   H  0.466715862E+02 -0.230313124E+01 -0.313912252E+01
     4
 # iter = 79500  time[fs]=79.50000
   C -0.100173184E+02  0.333868187E+00  0.101952432E+00
   C  0.905450432E+01  0.103186899E+00  0.119630978E+00
   H -0.482067363E+02 -0.421503917E+01  0.437354285E+01
   H  0.470703021E+02 -0.232293120E+01 -0.316595241E+01
     4
 # iter = 80000  time[fs]=80.00000
   C -0.101073978E+02  0.336909953E+00  0.102609727E+00
   C  0.913622387E+01  0.104105071E+00  0.120953018E+00
   H -0.486137407E+02 -0.425083251E+01  0.441070518E+01
   H  0.474690982E+02 -0.234273563E+01 -0.319278863E+01
