     4
 # iter = 25000  time[fs]=25.00000
   C -0.934849231E+00  0.320756543E-01 -0.250270153E-01
   C  0.105402581E+01 -0.191408665E-01 -0.138240202E-01
   H -0.526985059E+01  0.299487237E+00  0.358767835E+00
   H  0.533330389E+01 -0.295875886E+00  0.252092122E+00
     4
 # iter = 25500  time[fs]=25.50000
   C -0.976500330E+00  0.320271646E-01 -0.270900297E-01
   C  0.109901046E+01 -0.190383971E-01 -0.144805650E-01
   H -0.559873493E+01  0.317768385E+00  0.379953137E+00
   H  0.565604341E+01 -0.315374420E+00  0.268361057E+00
     4
 # iter = 26000  time[fs]=26.00000
   C -0.102231605E+01  0.320781030E-01 -0.291933706E-01
   C  0.114815360E+01 -0.190344148E-01 -0.151237676E-01
   H -0.593025961E+01  0.336202379E+00  0.401327232E+00
   H  0.598149688E+01 -0.335037092E+00  0.284765011E+00
     4
 # iter = 26500  time[fs]=26.50000
   C -0.107194339E+01  0.322160461E-01 -0.313347687E-01
   C  0.120110255E+01 -0.191165455E-01 -0.157528888E-01
   H -0.626413381E+01  0.354772496E+00  0.422868585E+00
   H  0.630936949E+01 -0.354846587E+00  0.301289417E+00
     4
 # iter = 27000  time[fs]=27.00000
   C -0.112504826E+01  0.324300032E-01 -0.335119542E-01
   C  0.125752356E+01 -0.192738479E-01 -0.163676756E-01
   H -0.660011183E+01  0.373464624E+00  0.444559210E+00
   H  0.663941153E+01 -0.374788200E+00  0.317921987E+00
     4
 # iter = 27500  time[fs]=27.50000
   C -0.118131959E+01  0.327103550E-01 -0.357226896E-01
   C  0.131710590E+01 -0.194967506E-01 -0.169682285E-01
   H -0.693798424E+01  0.392266747E+00  0.466383928E+00
   H  0.697140965E+01 -0.394849342E+00  0.334652254E+00
     4
 # iter = 28000  time[fs]=28.00000
   C -0.124047121E+01  0.330487452E-01 -0.379648005E-01
   C  0.137956369E+01 -0.197769429E-01 -0.175548942E-01
   H -0.727757113E+01  0.411168547E+00  0.488329806E+00
   H  0.730518022E+01 -0.415019146E+00  0.351471224E+00
     4
 # iter = 28500  time[fs]=28.50000
   C -0.130224223E+01  0.334379494E-01 -0.402362007E-01
   C  0.144463635E+01 -0.201072437E-01 -0.181281834E-01
   H -0.761871687E+01  0.430161103E+00  0.510385724E+00
   H  0.764056408E+01 -0.435288174E+00  0.368371106E+00
     4
 # iter = 29000  time[fs]=29.00000
   C -0.136639631E+01  0.338717402E-01 -0.425349096E-01
   C  0.151208781E+01 -0.204814657E-01 -0.186887084E-01
   H -0.796128590E+01  0.449236645E+00  0.532542054E+00
   H  0.797742238E+01 -0.455648169E+00  0.385345109E+00
     4
 # iter = 29500  time[fs]=29.50000
   C -0.143272033E+01  0.343447556E-01 -0.448590633E-01
   C  0.158170520E+01 -0.208942850E-01 -0.192371366E-01
   H -0.830515949E+01  0.468388364E+00  0.554790401E+00
   H  0.831563331E+01 -0.476091871E+00  0.402387272E+00
     4
 # iter = 30000  time[fs]=30.00000
   C -0.150102268E+01  0.348523796E-01 -0.472069198E-01
   C  0.165329715E+01 -0.213411204E-01 -0.197741575E-01
   H -0.865023306E+01  0.487610263E+00  0.577123394E+00
   H  0.865508947E+01 -0.496612862E+00  0.419492334E+00
     4
 # iter = 30500  time[fs]=30.50000
   C -0.157113139E+01  0.353906342E-01 -0.495768592E-01
   C  0.172669191E+01 -0.218180267E-01 -0.203004601E-01
   H -0.899641404E+01  0.506897028E+00  0.599534530E+00
   H  0.899569561E+01 -0.517205437E+00  0.436655630E+00
     4
 # iter = 31000  time[fs]=31.00000
   C -0.164289226E+01  0.359560866E-01 -0.519673815E-01
   C  0.180173548E+01 -0.223216011E-01 -0.208167170E-01
   H -0.934362008E+01  0.526243932E+00  0.622018040E+00
   H  0.933736698E+01 -0.537864505E+00  0.453872998E+00
     4
 # iter = 31500  time[fs]=31.50000
   C -0.171616702E+01  0.365457674E-01 -0.543771015E-01
   C  0.187828979E+01 -0.228489025E-01 -0.213235741E-01
   H -0.969177764E+01  0.545646747E+00  0.644568777E+00
   H  0.968002775E+01 -0.558585503E+00  0.471140712E+00
     4
 # iter = 32000  time[fs]=32.00000
   C -0.179083166E+01  0.371571023E-01 -0.568047425E-01
   C  0.195623099E+01 -0.233973827E-01 -0.218216452E-01
   H -0.100408208E+02  0.565101681E+00  0.667182137E+00
   H  0.100236099E+02 -0.579364324E+00  0.488455424E+00
     4
 # iter = 32500  time[fs]=32.50000
   C -0.186677483E+01  0.377878532E-01 -0.592491295E-01
   C  0.203544791E+01 -0.239648277E-01 -0.223115082E-01
   H -0.103906901E+02  0.584605316E+00  0.689853977E+00
   H  0.103680521E+02 -0.600197258E+00  0.505814112E+00
     4
 # iter = 33000  time[fs]=33.00000
   C -0.194389648E+01  0.384360687E-01 -0.617091818E-01
   C  0.211584063E+01 -0.245493087E-01 -0.227937041E-01
   H -0.107413320E+02  0.604154560E+00  0.712580557E+00
   H  0.107132989E+02 -0.621080946E+00  0.523214036E+00
     4
 # iter = 33500  time[fs]=33.50000
   C -0.202210653E+01  0.391000422E-01 -0.641839055E-01
   C  0.219731921E+01 -0.251491402E-01 -0.232687372E-01
   H -0.110926979E+02  0.623746611E+00  0.735358491E+00
   H  0.110593002E+02 -0.642012330E+00  0.540652711E+00
     4
 # iter = 34000  time[fs]=34.00000
   C -0.210132377E+01  0.397782767E-01 -0.666723867E-01
   C  0.227980259E+01 -0.257628445E-01 -0.237370761E-01
   H -0.114447436E+02  0.643378916E+00  0.758184702E+00
   H  0.114060100E+02 -0.662988626E+00  0.558127868E+00
     4
 # iter = 34500  time[fs]=34.50000
   C -0.218147487E+01  0.404694547E-01 -0.691737847E-01
   C  0.236321754E+01 -0.263891226E-01 -0.241991549E-01
   H -0.117974288E+02  0.663049146E+00  0.781056384E+00
   H  0.117533868E+02 -0.684007286E+00  0.575637435E+00
     4
 # iter = 35000  time[fs]=35.00000
   C -0.226249349E+01  0.411724137E-01 -0.716873254E-01
   C  0.244749784E+01 -0.270268289E-01 -0.246553758E-01
   H -0.121507167E+02  0.682755171E+00  0.803970971E+00
   H  0.121013923E+02 -0.705065973E+00  0.593179514E+00
     4
 # iter = 35500  time[fs]=35.50000
   C -0.234431948E+01  0.418861244E-01 -0.742122957E-01
   C  0.253258345E+01 -0.276749499E-01 -0.251061105E-01
   H -0.125045736E+02  0.702495034E+00  0.826926113E+00
   H  0.124499916E+02 -0.726162540E+00  0.610752358E+00
     4
 # iter = 36000  time[fs]=36.00000
   C -0.242689824E+01  0.426096728E-01 -0.767480379E-01
   C  0.261841985E+01 -0.283325867E-01 -0.255517025E-01
   H -0.128589684E+02  0.722266937E+00  0.849919648E+00
   H  0.127991525E+02 -0.747295011E+00  0.628354361E+00
     4
 # iter = 36500  time[fs]=36.50000
   C -0.251018007E+01  0.433422450E-01 -0.792939451E-01
   C  0.270495744E+01 -0.289989394E-01 -0.259924693E-01
   H -0.132138726E+02  0.742069220E+00  0.872949585E+00
   H  0.131488454E+02 -0.768461559E+00  0.645984039E+00
     4
 # iter = 37000  time[fs]=37.00000
   C -0.259411967E+01  0.440831143E-01 -0.818494561E-01
   C  0.279215101E+01 -0.296732942E-01 -0.264287043E-01
   H -0.135692599E+02  0.761900352E+00  0.896014086E+00
   H  0.134990428E+02 -0.789660494E+00  0.663640018E+00
     4
 # iter = 37500  time[fs]=37.50000
   C -0.267867567E+01  0.448316299E-01 -0.844140518E-01
   C  0.287995926E+01 -0.303550127E-01 -0.268606790E-01
   H -0.139251059E+02  0.781758913E+00  0.919111450E+00
   H  0.138497195E+02 -0.810890249E+00  0.681321027E+00
     4
 # iter = 38000  time[fs]=38.00000
   C -0.276381021E+01  0.455872075E-01 -0.869872514E-01
   C  0.296834441E+01 -0.310435221E-01 -0.272886443E-01
   H -0.142813879E+02  0.801643587E+00  0.942240098E+00
   H  0.142008520E+02 -0.832149371E+00  0.699025883E+00
     4
 # iter = 38500  time[fs]=38.50000
   C -0.284948858E+01  0.463493209E-01 -0.895686087E-01
   C  0.305727182E+01 -0.317383073E-01 -0.277128323E-01
   H -0.146380852E+02  0.821553151E+00  0.965398566E+00
   H  0.145524186E+02 -0.853436504E+00  0.716753487E+00
     4
 # iter = 39000  time[fs]=39.00000
   C -0.293567892E+01  0.471174957E-01 -0.921577096E-01
   C  0.314670969E+01 -0.324389038E-01 -0.281334584E-01
   H -0.149951781E+02  0.841486466E+00  0.988585489E+00
   H  0.149043988E+02 -0.874750387E+00  0.734502814E+00
     4
 # iter = 39500  time[fs]=39.50000
   C -0.302235190E+01  0.478913023E-01 -0.947541689E-01
   C  0.323662876E+01 -0.331448919E-01 -0.285507220E-01
   H -0.153526485E+02  0.861442469E+00  0.101179960E+01
   H  0.152567739E+02 -0.896089842E+00  0.752272907E+00
     4
 # iter = 40000  time[fs]=40.00000
   C -0.310948050E+01  0.486703514E-01 -0.973576279E-01
   C  0.332700207E+01 -0.338558914E-01 -0.289648081E-01
   H -0.157104795E+02  0.881420169E+00  0.103503970E+01
   H  0.156095263E+02 -0.917453766E+00  0.770062872E+00
     4
 # iter = 40500  time[fs]=40.50000
   C -0.319703979E+01  0.494542893E-01 -0.999677525E-01
   C  0.341780473E+01 -0.345715572E-01 -0.293758886E-01
   H -0.160686553E+02  0.901418636E+00  0.105830469E+01
   H  0.159626393E+02 -0.938841128E+00  0.787871870E+00
     4
 # iter = 41000  time[fs]=41.00000
   C -0.328500669E+01  0.502427938E-01 -0.102584231E+00
   C  0.350901373E+01 -0.352915753E-01 -0.297841233E-01
   H -0.164271609E+02  0.921437001E+00  0.108159353E+01
   H  0.163160976E+02 -0.960250959E+00  0.805699115E+00
     4
 # iter = 41500  time[fs]=41.50000
   C -0.337335986E+01  0.510355708E-01 -0.105206771E+00
   C  0.360060776E+01 -0.360156593E-01 -0.301896609E-01
   H -0.167859827E+02  0.941474448E+00  0.110490523E+01
   H  0.166698867E+02 -0.981682352E+00  0.823543871E+00
     4
 # iter = 42000  time[fs]=42.00000
   C -0.346207948E+01  0.518323514E-01 -0.107835100E+00
   C  0.369256707E+01 -0.367435476E-01 -0.305926398E-01
   H -0.171451075E+02  0.961530210E+00  0.112823889E+01
   H  0.170239931E+02 -0.100313445E+01  0.841405443E+00
     4
 # iter = 42500  time[fs]=42.50000
   C -0.355114717E+01  0.526328894E-01 -0.110468964E+00
   C  0.378487330E+01 -0.374750010E-01 -0.309931891E-01
   H -0.175045230E+02  0.981603566E+00  0.115159363E+01
   H  0.173784039E+02 -0.102460645E+01  0.859283177E+00
     4
 # iter = 43000  time[fs]=43.00000
   C -0.364054580E+01  0.534369586E-01 -0.113108122E+00
   C  0.387750937E+01 -0.382097997E-01 -0.313914295E-01
   H -0.178642178E+02  0.100169384E+01  0.117496866E+01
   H  0.177331072E+02 -0.104609760E+01  0.877176458E+00
     4
 # iter = 43500  time[fs]=43.50000
   C -0.373025944E+01  0.542443510E-01 -0.115752349E+00
   C  0.397045940E+01 -0.389477423E-01 -0.317874733E-01
   H -0.182241811E+02  0.102180038E+01  0.119836319E+01
   H  0.180880917E+02 -0.106760717E+01  0.895084705E+00
     4
 # iter = 44000  time[fs]=44.00000
   C -0.382027323E+01  0.550548751E-01 -0.118401435E+00
   C  0.406370855E+01 -0.396886430E-01 -0.321814259E-01
   H -0.185844025E+02  0.104192259E+01  0.122177652E+01
   H  0.184433465E+02 -0.108913449E+01  0.913007369E+00
     4
 # iter = 44500  time[fs]=44.50000
   C -0.391057327E+01  0.558683542E-01 -0.121055180E+00
   C  0.415724296E+01 -0.404323309E-01 -0.325733857E-01
   H -0.189448725E+02  0.106205990E+01  0.124520794E+01
   H  0.187988618E+02 -0.111067892E+01  0.930943929E+00
     4
 # iter = 45000  time[fs]=45.00000
   C -0.400114659E+01  0.566846249E-01 -0.123713398E+00
   C  0.425104969E+01 -0.411786479E-01 -0.329634453E-01
   H -0.193055818E+02  0.108221176E+01  0.126865683E+01
   H  0.191546279E+02 -0.113223986E+01  0.948893895E+00
     4
 # iter = 45500  time[fs]=45.50000
   C -0.409198101E+01  0.575035361E-01 -0.126375911E+00
   C  0.434511662E+01 -0.419274480E-01 -0.333516910E-01
   H -0.196665219E+02  0.110237767E+01  0.129212256E+01
   H  0.195106358E+02 -0.115381673E+01  0.966856801E+00
     4
 # iter = 46000  time[fs]=46.00000
   C -0.418306515E+01  0.583249474E-01 -0.129042554E+00
   C  0.443943236E+01 -0.426785960E-01 -0.337382043E-01
   H -0.200276846E+02  0.112255714E+01  0.131560456E+01
   H  0.198668770E+02 -0.117540899E+01  0.984832204E+00
     4
 # iter = 46500  time[fs]=46.50000
   C -0.427438830E+01  0.591487289E-01 -0.131713169E+00
   C  0.453398626E+01 -0.434319663E-01 -0.341230614E-01
   H -0.203890621E+02  0.114274970E+01  0.133910228E+01
   H  0.202233434E+02 -0.119701611E+01  0.100281968E+01
     4
 # iter = 47000  time[fs]=47.00000
   C -0.436594042E+01  0.599747595E-01 -0.134387608E+00
   C  0.462876829E+01 -0.441874425E-01 -0.345063343E-01
   H -0.207506471E+02  0.116295492E+01  0.136261518E+01
   H  0.205800272E+02 -0.121863762E+01  0.102081884E+01
     4
 # iter = 47500  time[fs]=47.50000
   C -0.445771205E+01  0.608029266E-01 -0.137065730E+00
   C  0.472376902E+01 -0.449449163E-01 -0.348880905E-01
   H -0.211124325E+02  0.118317239E+01  0.138614278E+01
   H  0.209369212E+02 -0.124027303E+01  0.103882930E+01
     4
 # iter = 48000  time[fs]=48.00000
   C -0.454969429E+01  0.616331252E-01 -0.139747400E+00
   C  0.481897957E+01 -0.457042866E-01 -0.352683937E-01
   H -0.214744118E+02  0.120340171E+01  0.140968460E+01
   H  0.212940185E+02 -0.126192192E+01  0.105685070E+01
     4
 # iter = 48500  time[fs]=48.50000
   C -0.464187875E+01  0.624652573E-01 -0.142432495E+00
   C  0.491439158E+01 -0.464654594E-01 -0.356473041E-01
   H -0.218365786E+02  0.122364249E+01  0.143324020E+01
   H  0.216513124E+02 -0.128358384E+01  0.107488269E+01
     4
 # iter = 49000  time[fs]=49.00000
   C -0.473425750E+01  0.632992312E-01 -0.145120892E+00
   C  0.500999716E+01 -0.472283468E-01 -0.360248784E-01
   H -0.221989269E+02  0.124389439E+01  0.145680913E+01
   H  0.220087966E+02 -0.130525841E+01  0.109292495E+01
     4
 # iter = 49500  time[fs]=49.50000
   C -0.482682308E+01  0.641349614E-01 -0.147812480E+00
   C  0.510578884E+01 -0.479928668E-01 -0.364011700E-01
   H -0.225614509E+02  0.126415705E+01  0.148039099E+01
   H  0.223664652E+02 -0.132694522E+01  0.111097716E+01
     4
 # iter = 50000  time[fs]=50.00000
   C -0.491956842E+01  0.649723674E-01 -0.150507148E+00
   C  0.520175959E+01 -0.487589425E-01 -0.367762297E-01
   H -0.229241453E+02  0.128443016E+01  0.150398540E+01
   H  0.227243124E+02 -0.134864392E+01  0.112903902E+01
     4
 # iter = 50500  time[fs]=50.50000
   C -0.501248682E+01  0.658113741E-01 -0.153204796E+00
   C  0.529790272E+01 -0.495265020E-01 -0.371501052E-01
   H -0.232870047E+02  0.130471340E+01  0.152759197E+01
   H  0.230823327E+02 -0.137035416E+01  0.114711025E+01
     4
 # iter = 51000  time[fs]=51.00000
   C -0.510557195E+01  0.666519108E-01 -0.155905324E+00
   C  0.539421194E+01 -0.502954776E-01 -0.375228421E-01
   H -0.236500242E+02  0.132500646E+01  0.155121035E+01
   H  0.234405211E+02 -0.139207559E+01  0.116519058E+01
     4
 # iter = 51500  time[fs]=51.50000
   C -0.519881781E+01  0.674939110E-01 -0.158608640E+00
   C  0.549068124E+01 -0.510658061E-01 -0.378944832E-01
   H -0.240131991E+02  0.134530908E+01  0.157484020E+01
   H  0.237988724E+02 -0.141380789E+01  0.118327974E+01
     4
 # iter = 52000  time[fs]=52.00000
   C -0.529221870E+01  0.683373123E-01 -0.161314655E+00
   C  0.558730496E+01 -0.518374279E-01 -0.382650694E-01
   H -0.243765248E+02  0.136562097E+01  0.159848119E+01
   H  0.241573819E+02 -0.143555076E+01  0.120137749E+01
     4
 # iter = 52500  time[fs]=52.50000
   C -0.538576922E+01  0.691820558E-01 -0.164023284E+00
   C  0.568407771E+01 -0.526102870E-01 -0.386346392E-01
   H -0.247399969E+02  0.138594187E+01  0.162213302E+01
   H  0.245160451E+02 -0.145730390E+01  0.121948357E+01
     4
 # iter = 53000  time[fs]=53.00000
   C -0.547946423E+01  0.700280861E-01 -0.166734446E+00
   C  0.578099436E+01 -0.533843306E-01 -0.390032293E-01
   H -0.251036113E+02  0.140627152E+01  0.164579537E+01
   H  0.248748576E+02 -0.147906703E+01  0.123759778E+01
     4
 # iter = 53500  time[fs]=53.50000
   C -0.557329885E+01  0.708753509E-01 -0.169448064E+00
   C  0.587805004E+01 -0.541595090E-01 -0.393708748E-01
   H -0.254673640E+02  0.142660970E+01  0.166946796E+01
   H  0.252338152E+02 -0.150083988E+01  0.125571987E+01
     4
 # iter = 54000  time[fs]=54.00000
   C -0.566726842E+01  0.717238007E-01 -0.172164064E+00
   C  0.597524013E+01 -0.549357753E-01 -0.397376088E-01
   H -0.258312511E+02  0.144695617E+01  0.169315052E+01
   H  0.255929139E+02 -0.152262218E+01  0.127384965E+01
     4
 # iter = 54500  time[fs]=54.50000
   C -0.576136852E+01  0.725733890E-01 -0.174882376E+00
   C  0.607256020E+01 -0.557130851E-01 -0.401034628E-01
   H -0.261952690E+02  0.146731071E+01  0.171684278E+01
   H  0.259521499E+02 -0.154441369E+01  0.129198690E+01
     4
 # iter = 55000  time[fs]=55.00000
   C -0.585559493E+01  0.734240714E-01 -0.177602932E+00
   C  0.617000606E+01 -0.564913968E-01 -0.404684669E-01
   H -0.265594141E+02  0.148767310E+01  0.174054449E+01
   H  0.263115195E+02 -0.156621416E+01  0.131013144E+01
     4
 # iter = 55500  time[fs]=55.50000
   C -0.594994363E+01  0.742758062E-01 -0.180325667E+00
   C  0.626757369E+01 -0.572706706E-01 -0.408326498E-01
   H -0.269236831E+02  0.150804315E+01  0.176425540E+01
   H  0.266710190E+02 -0.158802337E+01  0.132828308E+01
     4
 # iter = 56000  time[fs]=56.00000
   C -0.604441077E+01  0.751285538E-01 -0.183050520E+00
   C  0.636525927E+01 -0.580508691E-01 -0.411960387E-01
   H -0.272880727E+02  0.152842065E+01  0.178797528E+01
   H  0.270306452E+02 -0.160984108E+01  0.134644163E+01
     4
 # iter = 56500  time[fs]=56.50000
   C -0.613899270E+01  0.759822766E-01 -0.185777431E+00
   C  0.646305914E+01 -0.588319569E-01 -0.415586597E-01
   H -0.276525798E+02  0.154880542E+01  0.181170390E+01
   H  0.273903948E+02 -0.163166710E+01  0.136460692E+01
     4
 # iter = 57000  time[fs]=57.00000
   C -0.623368590E+01  0.768369390E-01 -0.188506343E+00
   C  0.656096982E+01 -0.596139003E-01 -0.419205378E-01
   H -0.280172014E+02  0.156919727E+01  0.183544104E+01
   H  0.277502645E+02 -0.165350121E+01  0.138277879E+01
     4
 # iter = 57500  time[fs]=57.50000
   C -0.632848704E+01  0.776925071E-01 -0.191237201E+00
   C  0.665898796E+01 -0.603966674E-01 -0.422816965E-01
   H -0.283819346E+02  0.158959603E+01  0.185918649E+01
   H  0.281102514E+02 -0.167534321E+01  0.140095707E+01
     4
 # iter = 58000  time[fs]=58.00000
   C -0.642339290E+01  0.785489487E-01 -0.193969954E+00
   C  0.675711038E+01 -0.611802279E-01 -0.426421587E-01
   H -0.287467766E+02  0.161000153E+01  0.188294006E+01
   H  0.284703525E+02 -0.169719291E+01  0.141914160E+01
     4
 # iter = 58500  time[fs]=58.50000
   C -0.651840043E+01  0.794062332E-01 -0.196704550E+00
   C  0.685533401E+01 -0.619645530E-01 -0.430019460E-01
   H -0.291117247E+02  0.163041361E+01  0.190670155E+01
   H  0.288305651E+02 -0.171905014E+01  0.143733225E+01
     4
 # iter = 59000  time[fs]=59.00000
   C -0.661350667E+01  0.802643316E-01 -0.199440942E+00
   C  0.695365593E+01 -0.627496153E-01 -0.433610792E-01
   H -0.294767763E+02  0.165083211E+01  0.193047076E+01
   H  0.291908863E+02 -0.174091470E+01  0.145552886E+01
     4
 # iter = 59500  time[fs]=59.50000
   C -0.670870882E+01  0.811232161E-01 -0.202179082E+00
   C  0.705207334E+01 -0.635353888E-01 -0.437195781E-01
   H -0.298419290E+02  0.167125688E+01  0.195424752E+01
   H  0.295513137E+02 -0.176278643E+01  0.147373129E+01
     4
 # iter = 60000  time[fs]=60.00000
   C -0.680400419E+01  0.819828603E-01 -0.204918926E+00
   C  0.715058354E+01 -0.643218488E-01 -0.440774618E-01
   H -0.302071803E+02  0.169168777E+01  0.197803166E+01
   H  0.299118447E+02 -0.178466516E+01  0.149193942E+01
     4
 # iter = 60500  time[fs]=60.50000
   C -0.689939017E+01  0.828432389E-01 -0.207660431E+00
   C  0.724918396E+01 -0.651089715E-01 -0.444347485E-01
   H -0.305725280E+02  0.171212465E+01  0.200182300E+01
   H  0.302724769E+02 -0.180655074E+01  0.151015310E+01
     4
 # iter = 61000  time[fs]=61.00000
   C -0.699486428E+01  0.837043280E-01 -0.210403555E+00
   C  0.734787212E+01 -0.658967346E-01 -0.447914558E-01
   H -0.309379697E+02  0.173256738E+01  0.202562138E+01
   H  0.306332079E+02 -0.182844301E+01  0.152837222E+01
     4
 # iter = 61500  time[fs]=61.50000
   C -0.709042414E+01  0.845661046E-01 -0.213148258E+00
   C  0.744664565E+01 -0.666851165E-01 -0.451476002E-01
   H -0.313035034E+02  0.175301582E+01  0.204942664E+01
   H  0.309940354E+02 -0.185034182E+01  0.154659666E+01
     4
 # iter = 62000  time[fs]=62.00000
   C -0.718606746E+01  0.854285468E-01 -0.215894501E+00
   C  0.754550224E+01 -0.674740968E-01 -0.455031980E-01
   H -0.316691269E+02  0.177346985E+01  0.207323864E+01
   H  0.313549573E+02 -0.187224702E+01  0.156482629E+01
     4
 # iter = 62500  time[fs]=62.50000
   C -0.728179202E+01  0.862916337E-01 -0.218642249E+00
   C  0.764443972E+01 -0.682636560E-01 -0.458582647E-01
   H -0.320348382E+02  0.179392934E+01  0.209705722E+01
   H  0.317159714E+02 -0.189415848E+01  0.158306100E+01
     4
 # iter = 63000  time[fs]=63.00000
   C -0.737759571E+01  0.871553451E-01 -0.221391463E+00
   C  0.774345597E+01 -0.690537752E-01 -0.462128149E-01
   H -0.324006354E+02  0.181439419E+01  0.212088224E+01
   H  0.320770758E+02 -0.191607605E+01  0.160130068E+01
     4
 # iter = 63500  time[fs]=63.50000
   C -0.747347649E+01  0.880196619E-01 -0.224142111E+00
   C  0.784254895E+01 -0.698444367E-01 -0.465668630E-01
   H -0.327665166E+02  0.183486426E+01  0.214471357E+01
   H  0.324382683E+02 -0.193799962E+01  0.161954524E+01
     4
 # iter = 64000  time[fs]=64.00000
   C -0.756943240E+01  0.888845658E-01 -0.226894159E+00
   C  0.794171670E+01 -0.706356234E-01 -0.469204226E-01
   H -0.331324799E+02  0.185533945E+01  0.216855106E+01
   H  0.327995472E+02 -0.195992905E+01  0.163779455E+01
     4
 # iter = 64500  time[fs]=64.50000
   C -0.766546154E+01  0.897500392E-01 -0.229647574E+00
   C  0.804095736E+01 -0.714273189E-01 -0.472735071E-01
   H -0.334985237E+02  0.187581966E+01  0.219239460E+01
   H  0.331609105E+02 -0.198186422E+01  0.165604853E+01
     4
 # iter = 65000  time[fs]=65.00000
   C -0.776156208E+01  0.906160652E-01 -0.232402324E+00
   C  0.814026909E+01 -0.722195077E-01 -0.476261289E-01
   H -0.338646461E+02  0.189630478E+01  0.221624405E+01
   H  0.335223565E+02 -0.200380502E+01  0.167430708E+01
     4
 # iter = 65500  time[fs]=65.50000
   C -0.785773229E+01  0.914826277E-01 -0.235158381E+00
   C  0.823965015E+01 -0.730121746E-01 -0.479783004E-01
   H -0.342308455E+02  0.191679470E+01  0.224009930E+01
   H  0.338838834E+02 -0.202575131E+01  0.169257010E+01
     4
 # iter = 66000  time[fs]=66.00000
   C -0.795397045E+01  0.923497112E-01 -0.237915715E+00
   C  0.833909885E+01 -0.738053053E-01 -0.483300333E-01
   H -0.345971204E+02  0.193728933E+01  0.226396022E+01
   H  0.342454895E+02 -0.204770301E+01  0.171083751E+01
     4
 # iter = 66500  time[fs]=66.50000
   C -0.805027494E+01  0.932173008E-01 -0.240674298E+00
   C  0.843861357E+01 -0.745988860E-01 -0.486813388E-01
   H -0.349634691E+02  0.195778857E+01  0.228782670E+01
   H  0.346071733E+02 -0.206965999E+01  0.172910921E+01
     4
 # iter = 67000  time[fs]=67.00000
   C -0.814664418E+01  0.940853822E-01 -0.243434102E+00
   C  0.853819273E+01 -0.753929036E-01 -0.490322280E-01
   H -0.353298901E+02  0.197829234E+01  0.231169864E+01
   H  0.349689331E+02 -0.209162215E+01  0.174738513E+01
     4
 # iter = 67500  time[fs]=67.50000
   C -0.824307664E+01  0.949539417E-01 -0.246195101E+00
   C  0.863783482E+01 -0.761873453E-01 -0.493827114E-01
   H -0.356963821E+02  0.199880054E+01  0.233557592E+01
   H  0.353307674E+02 -0.211358939E+01  0.176566516E+01
     4
 # iter = 68000  time[fs]=68.00000
   C -0.833957087E+01  0.958229661E-01 -0.248957270E+00
   C  0.873753837E+01 -0.769821990E-01 -0.497327990E-01
   H -0.360629436E+02  0.201931308E+01  0.235945843E+01
   H  0.356926746E+02 -0.213556161E+01  0.178394925E+01
     4
 # iter = 68500  time[fs]=68.50000
   C -0.843612542E+01  0.966924427E-01 -0.251720584E+00
   C  0.883730197E+01 -0.777774529E-01 -0.500825006E-01
   H -0.364295731E+02  0.203982988E+01  0.238334609E+01
   H  0.360546535E+02 -0.215753871E+01  0.180223731E+01
     4
 # iter = 69000  time[fs]=69.00000
   C -0.853273895E+01  0.975623594E-01 -0.254485019E+00
   C  0.893712425E+01 -0.785730958E-01 -0.504318258E-01
   H -0.367962694E+02  0.206035086E+01  0.240723879E+01
   H  0.364167025E+02 -0.217952061E+01  0.182052925E+01
     4
 # iter = 69500  time[fs]=69.50000
   C -0.862941010E+01  0.984327043E-01 -0.257250551E+00
   C  0.903700389E+01 -0.793691170E-01 -0.507807836E-01
   H -0.371630312E+02  0.208087594E+01  0.243113643E+01
   H  0.367788202E+02 -0.220150720E+01  0.183882502E+01
     4
 # iter = 70000  time[fs]=70.00000
   C -0.872613761E+01  0.993034663E-01 -0.260017158E+00
   C  0.913693960E+01 -0.801655059E-01 -0.511293829E-01
   H -0.375298571E+02  0.210140504E+01  0.245503892E+01
   H  0.371410055E+02 -0.222349841E+01  0.185712454E+01
     4
 # iter = 70500  time[fs]=70.50000
   C -0.882292022E+01  0.100174634E+00 -0.262784819E+00
   C  0.923693016E+01 -0.809622526E-01 -0.514776321E-01
   H -0.378967461E+02  0.212193809E+01  0.247894617E+01
   H  0.375032569E+02 -0.224549414E+01  0.187542773E+01
     4
 # iter = 71000  time[fs]=71.00000
   C -0.891975675E+01  0.101046198E+00 -0.265553511E+00
   C  0.933697436E+01 -0.817593474E-01 -0.518255394E-01
   H -0.382636969E+02  0.214247500E+01  0.250285809E+01
   H  0.378655733E+02 -0.226749431E+01  0.189373453E+01
     4
 # iter = 71500  time[fs]=71.50000
   C -0.901664601E+01  0.101918147E+00 -0.268323216E+00
   C  0.943707104E+01 -0.825567811E-01 -0.521731129E-01
   H -0.386307082E+02  0.216301573E+01  0.252677461E+01
   H  0.382279534E+02 -0.228949885E+01  0.191204488E+01
     4
 # iter = 72000  time[fs]=72.00000
   C -0.911358689E+01  0.102790472E+00 -0.271093912E+00
   C  0.953721909E+01 -0.833545448E-01 -0.525203602E-01
   H -0.389977791E+02  0.218356018E+01  0.255069563E+01
   H  0.385903961E+02 -0.231150767E+01  0.193035871E+01
     4
 # iter = 72500  time[fs]=72.50000
   C -0.921057829E+01  0.103663164E+00 -0.273865580E+00
   C  0.963741741E+01 -0.841526298E-01 -0.528672888E-01
   H -0.393649085E+02  0.220410830E+01  0.257462107E+01
   H  0.389529001E+02 -0.233352069E+01  0.194867595E+01
     4
 # iter = 73000  time[fs]=73.00000
   C -0.930761915E+01  0.104536212E+00 -0.276638201E+00
   C  0.973766495E+01 -0.849510278E-01 -0.532139058E-01
   H -0.397320951E+02  0.222466002E+01  0.259855085E+01
   H  0.393154645E+02 -0.235553785E+01  0.196699655E+01
     4
 # iter = 73500  time[fs]=73.50000
   C -0.940470845E+01  0.105409609E+00 -0.279411758E+00
   C  0.983796068E+01 -0.857497309E-01 -0.535602182E-01
   H -0.400993381E+02  0.224521527E+01  0.262248491E+01
   H  0.396780880E+02 -0.237755906E+01  0.198532045E+01
     4
 # iter = 74000  time[fs]=74.00000
   C -0.950184519E+01  0.106283347E+00 -0.282186232E+00
   C  0.993830363E+01 -0.865487312E-01 -0.539062328E-01
   H -0.404666364E+02  0.226577400E+01  0.264642316E+01
   H  0.400407697E+02 -0.239958426E+01  0.200364759E+01
     4
 # iter = 74500  time[fs]=74.50000
   C -0.959902841E+01  0.107157416E+00 -0.284961606E+00
   C  0.100386928E+02 -0.873480213E-01 -0.542519561E-01
   H -0.408339891E+02  0.228633614E+01  0.267036553E+01
   H  0.404035085E+02 -0.242161338E+01  0.202197792E+01
     4
 # iter = 75000  time[fs]=75.00000
   C -0.969625716E+01  0.108031809E+00 -0.287737863E+00
   C  0.101391273E+02 -0.881475942E-01 -0.545973945E-01
   H -0.412013951E+02  0.230690164E+01  0.269431195E+01
   H  0.407663033E+02 -0.244364635E+01  0.204031137E+01
     4
 # iter = 75500  time[fs]=75.50000
   C -0.979353055E+01  0.108906518E+00 -0.290514988E+00
   C  0.102396062E+02 -0.889474426E-01 -0.549425540E-01
   H -0.415688535E+02  0.232747044E+01  0.271826235E+01
   H  0.411291534E+02 -0.246568311E+01  0.205864790E+01
     4
 # iter = 76000  time[fs]=76.00000
   C -0.989084768E+01  0.109781537E+00 -0.293292963E+00
   C  0.103401286E+02 -0.897475601E-01 -0.552874407E-01
   H -0.419363636E+02  0.234804247E+01  0.274221667E+01
   H  0.414920576E+02 -0.248772359E+01  0.207698746E+01
     4
 # iter = 76500  time[fs]=76.50000
   C -0.998820770E+01  0.110656857E+00 -0.296071774E+00
   C  0.104406938E+02 -0.905479400E-01 -0.556320602E-01
   H -0.423039242E+02  0.236861770E+01  0.276617483E+01
   H  0.418550150E+02 -0.250976773E+01  0.209532999E+01
     4
 # iter = 77000  time[fs]=77.00000
   C -0.100856098E+02  0.111532473E+00 -0.298851406E+00
   C  0.105413007E+02 -0.913485762E-01 -0.559764183E-01
   H -0.426715347E+02  0.238919605E+01  0.279013679E+01
   H  0.422180248E+02 -0.253181546E+01  0.211367545E+01
     4
 # iter = 77500  time[fs]=77.50000
   C -0.101830531E+02  0.112408376E+00 -0.301631844E+00
   C  0.106419487E+02 -0.921494625E-01 -0.563205203E-01
   H -0.430391941E+02  0.240977749E+01  0.281410246E+01
   H  0.425810861E+02 -0.255386674E+01  0.213202378E+01
     4
 # iter = 78000  time[fs]=78.00000
   C -0.102805369E+02  0.113284562E+00 -0.304413074E+00
   C  0.107426369E+02 -0.929505930E-01 -0.566643715E-01
   H -0.434069017E+02  0.243036196E+01  0.283807179E+01
   H  0.429441979E+02 -0.257592150E+01  0.215037494E+01
     4
 # iter = 78500  time[fs]=78.50000
   C -0.103780604E+02  0.114161023E+00 -0.307195081E+00
   C  0.108433647E+02 -0.937519621E-01 -0.570079769E-01
   H -0.437746566E+02  0.245094942E+01  0.286204473E+01
   H  0.433073596E+02 -0.259797969E+01  0.216872888E+01
     4
 # iter = 79000  time[fs]=79.00000
   C -0.104756228E+02  0.115037753E+00 -0.309977853E+00
   C  0.109441312E+02 -0.945535644E-01 -0.573513417E-01
   H -0.441424581E+02  0.247153980E+01  0.288602121E+01
   H  0.436705702E+02 -0.262004124E+01  0.218708557E+01
     4
 # iter = 79500  time[fs]=79.50000
   C -0.105732235E+02  0.115914747E+00 -0.312761376E+00
   C  0.110449357E+02 -0.953553944E-01 -0.576944706E-01
   H -0.445103054E+02  0.249213308E+01  0.291000119E+01
   H  0.440338290E+02 -0.264210611E+01  0.220544495E+01
     4
 # iter = 80000  time[fs]=80.00000
   C -0.106708617E+02  0.116791999E+00 -0.315545638E+00
   C  0.111457776E+02 -0.961574470E-01 -0.580373683E-01
   H -0.448781978E+02  0.251272919E+01  0.293398459E+01
   H  0.443971351E+02 -0.266417425E+01  0.222380698E+01
