     4
 # iter = 25000  time[fs]=25.00000
   C -0.103741724E+01  0.657272266E-03  0.238435328E-01
   C  0.101946488E+01  0.564959615E-02  0.182266665E-01
   H -0.528882715E+01  0.599693801E+00  0.393936956E+00
   H  0.543586382E+01 -0.584767834E+00 -0.365735395E+00
     4
 # iter = 25500  time[fs]=25.50000
   C -0.108859992E+01 -0.138838009E-02  0.234269771E-01
   C  0.106635060E+01  0.755858023E-02  0.197738129E-01
   H -0.562770349E+01  0.638171348E+00  0.419509511E+00
   H  0.575693222E+01 -0.621624590E+00 -0.390008107E+00
     4
 # iter = 26000  time[fs]=26.00000
   C -0.114265861E+01 -0.347470449E-02  0.229987064E-01
   C  0.111611947E+01  0.950575959E-02  0.213327496E-01
   H -0.597199576E+01  0.677321227E+00  0.445501525E+00
   H  0.608333082E+01 -0.659123958E+00 -0.414701182E+00
     4
 # iter = 26500  time[fs]=26.50000
   C -0.119934110E+01 -0.560153269E-02  0.225576566E-01
   C  0.116851552E+01  0.114917418E-01  0.229048327E-01
   H -0.632108872E+01  0.717066846E+00  0.471866000E+00
   H  0.641448959E+01 -0.697198654E+00 -0.439771126E+00
     4
 # iter = 27000  time[fs]=27.00000
   C -0.125841548E+01 -0.776829403E-02  0.221031128E-01
   C  0.122330408E+01  0.135165412E-01  0.244909822E-01
   H -0.667446094E+01  0.757343516E+00  0.498563107E+00
   H  0.674992020E+01 -0.735791008E+00 -0.465180571E+00
     4
 # iter = 27500  time[fs]=27.50000
   C -0.131967022E+01 -0.997409556E-02  0.216346560E-01
   C  0.128027160E+01  0.155797075E-01  0.260917590E-01
   H -0.703166751E+01  0.798096188E+00  0.525558852E+00
   H  0.708920192E+01 -0.774851287E+00 -0.490897225E+00
     4
 # iter = 28000  time[fs]=28.00000
   C -0.138291355E+01 -0.122178022E-01  0.211521082E-01
   C  0.133922484E+01  0.176804422E-01  0.277074368E-01
   H -0.739232634E+01  0.839277680E+00  0.552824023E+00
   H  0.743197025E+01 -0.814336345E+00 -0.516893023E+00
     4
 # iter = 28500  time[fs]=28.50000
   C -0.144797226E+01 -0.144981088E-01  0.206554812E-01
   C  0.139998956E+01  0.198176961E-01  0.293380653E-01
   H -0.775610734E+01  0.880847286E+00  0.580333355E+00
   H  0.777790770E+01 -0.854208546E+00 -0.543143444E+00
     4
 # iter = 29000  time[fs]=29.00000
   C -0.151469035E+01 -0.168136012E-01  0.201449324E-01
   C  0.146240900E+01  0.219902494E-01  0.309835242E-01
   H -0.812272372E+01  0.922769670E+00  0.608064876E+00
   H  0.812673642E+01 -0.894434890E+00 -0.569626956E+00
     4
 # iter = 29500  time[fs]=29.50000
   C -0.158292752E+01 -0.191628049E-01  0.196207275E-01
   C  0.152634235E+01  0.241967754E-01  0.326435666E-01
   H -0.849192497E+01  0.965013986E+00  0.635999366E+00
   H  0.847821203E+01 -0.934986303E+00 -0.596324564E+00
     4
 # iter = 30000  time[fs]=30.00000
   C -0.165255766E+01 -0.215442234E-01  0.190832095E-01
   C  0.159166316E+01  0.264358892E-01  0.343178545E-01
   H -0.886349116E+01  0.100755316E+01  0.664119930E+00
   H  0.883211869E+01 -0.975837049E+00 -0.623219436E+00
     4
 # iter = 30500  time[fs]=30.50000
   C -0.172346743E+01 -0.239563670E-01  0.185327754E-01
   C  0.165825788E+01  0.287061843E-01  0.360059866E-01
   H -0.923722836E+01  0.105036332E+01  0.692411644E+00
   H  0.918826495E+01 -0.101696425E+01 -0.650296594E+00
     4
 # iter = 31000  time[fs]=31.00000
   C -0.179555489E+01 -0.263977735E-01  0.179698564E-01
   C  0.172602448E+01  0.310062603E-01  0.377075200E-01
   H -0.961296475E+01  0.109342331E+01  0.720861268E+00
   H  0.954648030E+01 -0.105834751E+01 -0.677542660E+00
     4
 # iter = 31500  time[fs]=31.50000
   C -0.186872831E+01 -0.288670234E-01  0.173949038E-01
   C  0.179487116E+01  0.333347424E-01  0.394219870E-01
   H -0.999054751E+01  0.113671430E+01  0.749457005E+00
   H  0.990661233E+01 -0.109996851E+01 -0.704945638E+00
     4
 # iter = 32000  time[fs]=32.00000
   C -0.194290500E+01 -0.313627494E-01  0.168083775E-01
   C  0.186471529E+01  0.356902949E-01  0.411489074E-01
   H -0.103698402E+02  0.118021947E+01  0.778188303E+00
   H  0.102685243E+02 -0.114181083E+01 -0.732494736E+00
     4
 # iter = 32500  time[fs]=32.50000
   C -0.201801035E+01 -0.338836431E-01  0.162107382E-01
   C  0.193548229E+01  0.380716302E-01  0.428877983E-01
   H -0.107507204E+02  0.122392376E+01  0.807045690E+00
   H  0.106320932E+02 -0.118385964E+01 -0.760180211E+00
     4
 # iter = 33000  time[fs]=33.00000
   C -0.209397693E+01 -0.364284582E-01  0.156024406E-01
   C  0.200710484E+01  0.404775149E-01  0.446381809E-01
   H -0.111330782E+02  0.126781357E+01  0.836020633E+00
   H  0.109972080E+02 -0.122610152E+01 -0.787993242E+00
     4
 # iter = 33500  time[fs]=33.50000
   C -0.217074368E+01 -0.389960117E-01  0.149839297E-01
   C  0.207952198E+01  0.429067725E-01  0.463995853E-01
   H -0.115168143E+02  0.131187665E+01  0.865105420E+00
   H  0.113637679E+02 -0.126852428E+01 -0.815925820E+00
     4
 # iter = 34000  time[fs]=34.00000
   C -0.224825522E+01 -0.415851840E-01  0.143556373E-01
   C  0.215267847E+01  0.453582850E-01  0.481715545E-01
   H -0.119018389E+02  0.135610190E+01  0.894293059E+00
   H  0.117316816E+02 -0.131111684E+01 -0.843970650E+00
     4
 # iter = 34500  time[fs]=34.50000
   C -0.232646125E+01 -0.441949177E-01  0.137179801E-01
   C  0.222652414E+01  0.478309925E-01  0.499536466E-01
   H -0.122880704E+02  0.140047923E+01  0.923577194E+00
   H  0.121008660E+02 -0.135386909E+01 -0.872121072E+00
     4
 # iter = 35000  time[fs]=35.00000
   C -0.240531596E+01 -0.468242154E-01  0.130713585E-01
   C  0.230101332E+01  0.503238923E-01  0.517454360E-01
   H -0.126754347E+02  0.144499946E+01  0.952952028E+00
   H  0.124712450E+02 -0.139677177E+01 -0.900370989E+00
     4
 # iter = 35500  time[fs]=35.50000
   C -0.248477758E+01 -0.494721376E-01  0.124161558E-01
   C  0.237610441E+01  0.528360373E-01  0.535465148E-01
   H -0.130638638E+02  0.148965418E+01  0.982412265E+00
   H  0.128427491E+02 -0.143981640E+01 -0.928714810E+00
     4
 # iter = 36000  time[fs]=36.00000
   C -0.256480797E+01 -0.521377998E-01  0.117527381E-01
   C  0.245175940E+01  0.553665334E-01  0.553564930E-01
   H -0.134532960E+02  0.153443572E+01  0.101195305E+01
   H  0.132153145E+02 -0.148299516E+01 -0.957147390E+00
     4
 # iter = 36500  time[fs]=36.50000
   C -0.264537219E+01 -0.548203698E-01  0.110814542E-01
   C  0.252794352E+01  0.579145375E-01  0.571749983E-01
   H -0.138436742E+02  0.157933701E+01  0.104156993E+01
   H  0.135888827E+02 -0.152630089E+01 -0.985663992E+00
     4
 # iter = 37000  time[fs]=37.00000
   C -0.272643824E+01 -0.575190644E-01  0.104026360E-01
   C  0.260462488E+01  0.604792549E-01  0.590016761E-01
   H -0.142349464E+02  0.162435156E+01  0.107125879E+01
   H  0.139633995E+02 -0.156972694E+01 -0.101426024E+01
     4
 # iter = 37500  time[fs]=37.50000
   C -0.280797668E+01 -0.602331471E-01  0.971659875E-02
   C  0.268177423E+01  0.630599365E-01  0.608361892E-01
   H -0.146270643E+02  0.166947338E+01  0.110101586E+01
   H  0.143388151E+02 -0.161326718E+01 -0.104293208E+01
     4
 # iter = 38000  time[fs]=38.00000
   C -0.288996047E+01 -0.629619246E-01  0.902364204E-02
   C  0.275936465E+01  0.656558762E-01  0.626782168E-01
   H -0.150199836E+02  0.171469695E+01  0.113083762E+01
   H  0.147150833E+02 -0.165691593E+01 -0.107167577E+01
     4
 # iter = 38500  time[fs]=38.50000
   C -0.297236467E+01 -0.657047445E-01  0.832405005E-02
   C  0.283737133E+01  0.682664084E-01  0.645274545E-01
   H -0.154136631E+02  0.176001715E+01  0.116072085E+01
   H  0.150921616E+02 -0.170066790E+01 -0.110048782E+01
     4
 # iter = 39000  time[fs]=39.00000
   C -0.305516624E+01 -0.684609928E-01  0.761809237E-02
   C  0.291577139E+01  0.708909056E-01  0.663836131E-01
   H -0.158080649E+02  0.180542923E+01  0.119066254E+01
   H  0.154700100E+02 -0.174451820E+01 -0.112936499E+01
     4
 # iter = 39500  time[fs]=39.50000
   C -0.313834391E+01 -0.712300907E-01  0.690602474E-02
   C  0.299454367E+01  0.735287759E-01  0.682464181E-01
   H -0.162031536E+02  0.185092878E+01  0.122065989E+01
   H  0.158485919E+02 -0.178846224E+01 -0.115830425E+01
     4
 # iter = 40000  time[fs]=40.00000
   C -0.322187795E+01 -0.740114932E-01  0.618808965E-02
   C  0.307366857E+01  0.761794609E-01  0.701156089E-01
   H -0.165988964E+02  0.189651169E+01  0.125071030E+01
   H  0.162278728E+02 -0.183249577E+01 -0.118730280E+01
     4
 # iter = 40500  time[fs]=40.50000
   C -0.330575008E+01 -0.768046862E-01  0.546451712E-02
   C  0.315312794E+01  0.788424333E-01  0.719909382E-01
   H -0.169952626E+02  0.194217414E+01  0.128081135E+01
   H  0.166078207E+02 -0.187661481E+01 -0.121635800E+01
     4
 # iter = 41000  time[fs]=41.00000
   C -0.338994331E+01 -0.796091847E-01  0.473552536E-02
   C  0.323290491E+01  0.815171952E-01  0.738721712E-01
   H -0.173922238E+02  0.198791257E+01  0.131096077E+01
   H  0.169884057E+02 -0.192081562E+01 -0.124546738E+01
     4
 # iter = 41500  time[fs]=41.50000
   C -0.347444185E+01 -0.824245308E-01  0.400132139E-02
   C  0.331298378E+01  0.842032760E-01  0.757590851E-01
   H -0.177897534E+02  0.203372362E+01  0.134115645E+01
   H  0.173695997E+02 -0.196509472E+01 -0.127462865E+01
     4
 # iter = 42000  time[fs]=42.00000
   C -0.355923097E+01 -0.852502920E-01  0.326210170E-02
   C  0.339334996E+01  0.869002307E-01  0.776514680E-01
   H -0.181878264E+02  0.207960418E+01  0.137139639E+01
   H  0.177513766E+02 -0.200944883E+01 -0.130383962E+01
     4
 # iter = 42500  time[fs]=42.50000
   C -0.364429696E+01 -0.880860595E-01  0.251805284E-02
   C  0.347398981E+01  0.896076384E-01  0.795491190E-01
   H -0.185864194E+02  0.212555131E+01  0.140167875E+01
   H  0.181337117E+02 -0.205387487E+01 -0.133309828E+01
     4
 # iter = 43000  time[fs]=43.00000
   C -0.372962699E+01 -0.909314465E-01  0.176935202E-02
   C  0.355489063E+01  0.923251003E-01  0.814518468E-01
   H -0.189855107E+02  0.217156227E+01  0.143200178E+01
   H  0.185165820E+02 -0.209836996E+01 -0.136240269E+01
     4
 # iter = 43500  time[fs]=43.50000
   C -0.381520907E+01 -0.937860870E-01  0.101616761E-02
   C  0.363604052E+01  0.950522389E-01  0.833594696E-01
   H -0.193850795E+02  0.221763446E+01  0.146236382E+01
   H  0.188999657E+02 -0.214293136E+01 -0.139175107E+01
     4
 # iter = 44000  time[fs]=44.00000
   C -0.390103197E+01 -0.966496343E-01  0.258659655E-03
   C  0.371742834E+01  0.977886962E-01  0.852718146E-01
   H -0.197851067E+02  0.226376546E+01  0.149276335E+01
   H  0.192838424E+02 -0.218755650E+01 -0.142114171E+01
     4
 # iter = 44500  time[fs]=44.50000
   C -0.398708519E+01 -0.995217598E-01 -0.503019591E-03
   C  0.379904366E+01  0.100534133E+00  0.871887173E-01
   H -0.201855739E+02  0.230995296E+01  0.152319889E+01
   H  0.196681929E+02 -0.223224297E+01 -0.145057300E+01
     4
 # iter = 45000  time[fs]=45.00000
   C -0.407335883E+01 -0.102402152E+00 -0.126872527E-02
   C  0.388087669E+01  0.103288226E+00  0.891100209E-01
   H -0.205864641E+02  0.235619482E+01  0.155366908E+01
   H  0.200529988E+02 -0.227698847E+01 -0.148004344E+01
     4
 # iter = 45500  time[fs]=45.50000
   C -0.415984362E+01 -0.105290514E+00 -0.203831947E-02
   C  0.396291825E+01  0.106050670E+00  0.910355764E-01
   H -0.209877610E+02  0.240248899E+01  0.158417262E+01
   H  0.204382432E+02 -0.232179085E+01 -0.150955158E+01
     4
 # iter = 46000  time[fs]=46.00000
   C -0.424653084E+01 -0.108186566E+00 -0.281167082E-02
   C  0.404515967E+01  0.108821173E+00  0.929652414E-01
   H -0.213894494E+02  0.244883353E+01  0.161470828E+01
   H  0.208239097E+02 -0.236664804E+01 -0.153909608E+01
     4
 # iter = 46500  time[fs]=46.50000
   C -0.433341226E+01 -0.111090040E+00 -0.358865412E-02
   C  0.412759281E+01  0.111599460E+00  0.948988804E-01
   H -0.217915149E+02  0.249522662E+01  0.164527491E+01
   H  0.212099830E+02 -0.241155810E+01 -0.156867564E+01
     4
 # iter = 47000  time[fs]=47.00000
   C -0.442048014E+01 -0.114000683E+00 -0.436914998E-02
   C  0.421021001E+01  0.114385266E+00  0.968363641E-01
   H -0.221939437E+02  0.254166653E+01  0.167587139E+01
   H  0.215964485E+02 -0.245651920E+01 -0.159828904E+01
     4
 # iter = 47500  time[fs]=47.50000
   C -0.450772718E+01 -0.116918252E+00 -0.515304450E-02
   C  0.429300403E+01  0.117178341E+00  0.987775690E-01
   H -0.225967229E+02  0.258815162E+01  0.170649669E+01
   H  0.219832925E+02 -0.250152959E+01 -0.162793514E+01
     4
 # iter = 48000  time[fs]=48.00000
   C -0.459514647E+01 -0.119842518E+00 -0.594022897E-02
   C  0.437596802E+01  0.119978446E+00  0.100722377E+00
   H -0.229998402E+02  0.263468034E+01  0.173714982E+01
   H  0.223705018E+02 -0.254658761E+01 -0.165761282E+01
     4
 # iter = 48500  time[fs]=48.50000
   C -0.468273149E+01 -0.122773261E+00 -0.673059955E-02
   C  0.445909555E+01  0.122785353E+00  0.102670676E+00
   H -0.234032839E+02  0.268125121E+01  0.176782984E+01
   H  0.227580641E+02 -0.259169167E+01 -0.168732105E+01
     4
 # iter = 49000  time[fs]=49.00000
   C -0.477047607E+01 -0.125710272E+00 -0.752405703E-02
   C  0.454238048E+01  0.125598844E+00  0.104622358E+00
   H -0.238070431E+02  0.272786282E+01  0.179853585E+01
   H  0.231459675E+02 -0.263684027E+01 -0.171705882E+01
     4
 # iter = 49500  time[fs]=49.50000
   C -0.485837436E+01 -0.128653352E+00 -0.832050654E-02
   C  0.462581705E+01  0.128418713E+00  0.106577319E+00
   H -0.242111071E+02  0.277451384E+01  0.182926701E+01
   H  0.235342007E+02 -0.268203199E+01 -0.174682519E+01
     4
 # iter = 50000  time[fs]=50.00000
   C -0.494642083E+01 -0.131602309E+00 -0.911985736E-02
   C  0.470939976E+01  0.131244761E+00  0.108535462E+00
   H -0.246154660E+02  0.282120299E+01  0.186002250E+01
   H  0.239227532E+02 -0.272726546E+01 -0.177661926E+01
     4
 # iter = 50500  time[fs]=50.50000
   C -0.503461021E+01 -0.134556962E+00 -0.992202264E-02
   C  0.479312341E+01  0.134076798E+00  0.110496692E+00
   H -0.250201102E+02  0.286792907E+01  0.189080156E+01
   H  0.243116146E+02 -0.277253937E+01 -0.180644015E+01
     4
 # iter = 51000  time[fs]=51.00000
   C -0.512293751E+01 -0.137517138E+00 -0.107269192E-01
   C  0.487698308E+01  0.136914644E+00  0.112460918E+00
   H -0.254250306E+02  0.291469091E+01  0.192160344E+01
   H  0.247007752E+02 -0.281785249E+01 -0.183628706E+01
     4
 # iter = 51500  time[fs]=51.50000
   C -0.521139801E+01 -0.140482668E+00 -0.115344675E-01
   C  0.496097407E+01  0.139758125E+00  0.114428054E+00
   H -0.258302187E+02  0.296148742E+01  0.195242745E+01
   H  0.250902259E+02 -0.286320364E+01 -0.186615920E+01
     4
 # iter = 52000  time[fs]=52.00000
   C -0.529998719E+01 -0.143453396E+00 -0.123445911E-01
   C  0.504509192E+01  0.142607076E+00  0.116398018E+00
   H -0.262356660E+02  0.300831755E+01  0.198327291E+01
   H  0.254799577E+02 -0.290859167E+01 -0.189605580E+01
     4
 # iter = 52500  time[fs]=52.50000
   C -0.538870076E+01 -0.146429167E+00 -0.131572167E-01
   C  0.512933240E+01  0.145461337E+00  0.118370728E+00
   H -0.266413647E+02  0.305518028E+01  0.201413919E+01
   H  0.258699621E+02 -0.295401550E+01 -0.192597617E+01
     4
 # iter = 53000  time[fs]=53.00000
   C -0.547753464E+01 -0.149409837E+00 -0.139722743E-01
   C  0.521369146E+01  0.148320756E+00  0.120346109E+00
   H -0.270473074E+02  0.310207466E+01  0.204502567E+01
   H  0.262602311E+02 -0.299947410E+01 -0.195591960E+01
     4
 # iter = 53500  time[fs]=53.50000
   C -0.556648494E+01 -0.152395265E+00 -0.147896962E-01
   C  0.529816525E+01  0.151185187E+00  0.122324087E+00
   H -0.274534867E+02  0.314899976E+01  0.207593177E+01
   H  0.266507569E+02 -0.304496647E+01 -0.198588544E+01
     4
 # iter = 54000  time[fs]=54.00000
   C -0.565554795E+01 -0.155385317E+00 -0.156094179E-01
   C  0.538275012E+01  0.154054491E+00  0.124304592E+00
   H -0.278598957E+02  0.319595471E+01  0.210685692E+01
   H  0.270415322E+02 -0.309049167E+01 -0.201587306E+01
     4
 # iter = 54500  time[fs]=54.50000
   C -0.574472011E+01 -0.158379864E+00 -0.164313770E-01
   C  0.546744255E+01  0.156928532E+00  0.126287556E+00
   H -0.282665280E+02  0.324293866E+01  0.213780059E+01
   H  0.274325498E+02 -0.313604877E+01 -0.204588185E+01
     4
 # iter = 55000  time[fs]=55.00000
   C -0.583399807E+01 -0.161378783E+00 -0.172555139E-01
   C  0.555223921E+01  0.159807181E+00  0.128272913E+00
   H -0.286733771E+02  0.328995080E+01  0.216876226E+01
   H  0.278238029E+02 -0.318163691E+01 -0.207591124E+01
     4
 # iter = 55500  time[fs]=55.50000
   C -0.592337857E+01 -0.164381956E+00 -0.180817709E-01
   C  0.563713690E+01  0.162690316E+00  0.130260602E+00
   H -0.290804369E+02  0.333699036E+01  0.219974143E+01
   H  0.282152850E+02 -0.322725525E+01 -0.210596066E+01
     4
 # iter = 56000  time[fs]=56.00000
   C -0.601285854E+01 -0.167389267E+00 -0.189100928E-01
   C  0.572213258E+01  0.165577816E+00  0.132250561E+00
   H -0.294877018E+02  0.338405659E+01  0.223073764E+01
   H  0.286069899E+02 -0.327290297E+01 -0.213602959E+01
     4
 # iter = 56500  time[fs]=56.50000
   C -0.610243502E+01 -0.170400608E+00 -0.197404264E-01
   C  0.580722332E+01  0.168469566E+00  0.134242733E+00
   H -0.298951660E+02  0.343114878E+01  0.226175043E+01
   H  0.289989115E+02 -0.331857931E+01 -0.216611751E+01
     4
 # iter = 57000  time[fs]=57.00000
   C -0.619210518E+01 -0.173415873E+00 -0.205727204E-01
   C  0.589240633E+01  0.171365457E+00  0.136237061E+00
   H -0.303028242E+02  0.347826624E+01  0.229277936E+01
   H  0.293910441E+02 -0.336428351E+01 -0.219622391E+01
     4
 # iter = 57500  time[fs]=57.50000
   C -0.628186631E+01 -0.176434961E+00 -0.214069254E-01
   C  0.597767893E+01  0.174265383E+00  0.138233493E+00
   H -0.307106713E+02  0.352540832E+01  0.232382401E+01
   H  0.297833821E+02 -0.341001486E+01 -0.222634834E+01
     4
 # iter = 58000  time[fs]=58.00000
   C -0.637171582E+01 -0.179457773E+00 -0.222429939E-01
   C  0.606303856E+01  0.177169241E+00  0.140231974E+00
   H -0.311187023E+02  0.357257437E+01  0.235488397E+01
   H  0.301759202E+02 -0.345577268E+01 -0.225649034E+01
     4
 # iter = 58500  time[fs]=58.50000
   C -0.646165122E+01 -0.182484217E+00 -0.230808799E-01
   C  0.614848276E+01  0.180076932E+00  0.142232457E+00
   H -0.315269125E+02  0.361976378E+01  0.238595886E+01
   H  0.305686532E+02 -0.350155630E+01 -0.228664945E+01
     4
 # iter = 59000  time[fs]=59.00000
   C -0.655167012E+01 -0.185514201E+00 -0.239205393E-01
   C  0.623400918E+01  0.182988362E+00  0.144234892E+00
   H -0.319352973E+02  0.366697598E+01  0.241704829E+01
   H  0.309615763E+02 -0.354736507E+01 -0.231682526E+01
     4
 # iter = 59500  time[fs]=59.50000
   C -0.664177023E+01 -0.188547639E+00 -0.247619293E-01
   C  0.631961555E+01  0.185903440E+00  0.146239232E+00
   H -0.323438523E+02  0.371421039E+01  0.244815192E+01
   H  0.313546846E+02 -0.359319839E+01 -0.234701736E+01
     4
 # iter = 60000  time[fs]=60.00000
   C -0.673194934E+01 -0.191584446E+00 -0.256050088E-01
   C  0.640529970E+01  0.188822077E+00  0.148245433E+00
   H -0.327525732E+02  0.376146647E+01  0.247926939E+01
   H  0.317479736E+02 -0.363905566E+01 -0.237722536E+01
     4
 # iter = 60500  time[fs]=60.50000
   C -0.682220535E+01 -0.194624540E+00 -0.264497381E-01
   C  0.649105954E+01  0.191744187E+00  0.150253451E+00
   H -0.331614560E+02  0.380874369E+01  0.251040037E+01
   H  0.321414389E+02 -0.368493630E+01 -0.240744888E+01
     4
 # iter = 61000  time[fs]=61.00000
   C -0.691253621E+01 -0.197667844E+00 -0.272960786E-01
   C  0.657689307E+01  0.194669690E+00  0.152263245E+00
   H -0.335704967E+02  0.385604154E+01  0.254154453E+01
   H  0.325350762E+02 -0.373083977E+01 -0.243768754E+01
     4
 # iter = 61500  time[fs]=61.50000
   C -0.700293998E+01 -0.200714282E+00 -0.281439933E-01
   C  0.666279836E+01  0.197598505E+00  0.154274773E+00
   H -0.339796916E+02  0.390335955E+01  0.257270157E+01
   H  0.329288815E+02 -0.377676554E+01 -0.246794100E+01
     4
 # iter = 62000  time[fs]=62.00000
   C -0.709341478E+01 -0.203763780E+00 -0.289934463E-01
   C  0.674877354E+01  0.200530556E+00  0.156287996E+00
   H -0.343890369E+02  0.395069723E+01  0.260387117E+01
   H  0.333228506E+02 -0.382271307E+01 -0.249820892E+01
     4
 # iter = 62500  time[fs]=62.50000
   C -0.718395879E+01 -0.206816269E+00 -0.298444029E-01
   C  0.683481684E+01  0.203465769E+00  0.158302876E+00
   H -0.347985291E+02  0.399805413E+01  0.263505306E+01
   H  0.337169800E+02 -0.386868189E+01 -0.252849096E+01
     4
 # iter = 63000  time[fs]=63.00000
   C -0.727457028E+01 -0.209871680E+00 -0.306968296E-01
   C  0.692092653E+01  0.206404072E+00  0.160319377E+00
   H -0.352081649E+02  0.404542981E+01  0.266624695E+01
   H  0.341112657E+02 -0.391467151E+01 -0.255878680E+01
     4
 # iter = 63500  time[fs]=63.50000
   C -0.736524755E+01 -0.212929947E+00 -0.315506939E-01
   C  0.700710096E+01  0.209345396E+00  0.162337462E+00
   H -0.356179408E+02  0.409282384E+01  0.269745256E+01
   H  0.345057043E+02 -0.396068146E+01 -0.258909615E+01
     4
 # iter = 64000  time[fs]=64.00000
   C -0.745598899E+01 -0.215991006E+00 -0.324059644E-01
   C  0.709333852E+01  0.212289674E+00  0.164357099E+00
   H -0.360278538E+02  0.414023582E+01  0.272866965E+01
   H  0.349002924E+02 -0.400671129E+01 -0.261941869E+01
     4
 # iter = 64500  time[fs]=64.50000
   C -0.754679305E+01 -0.219054796E+00 -0.332626107E-01
   C  0.717963769E+01  0.215236841E+00  0.166378252E+00
   H -0.364379008E+02  0.418766535E+01  0.275989794E+01
   H  0.352950265E+02 -0.405276057E+01 -0.264975414E+01
     4
 # iter = 65000  time[fs]=65.00000
   C -0.763765821E+01 -0.222121257E+00 -0.341206032E-01
   C  0.726599697E+01  0.218186835E+00  0.168400891E+00
   H -0.368480787E+02  0.423511204E+01  0.279113720E+01
   H  0.356899035E+02 -0.409882888E+01 -0.268010223E+01
     4
 # iter = 65500  time[fs]=65.50000
   C -0.772858302E+01 -0.225190331E+00 -0.349799136E-01
   C  0.735241493E+01  0.221139594E+00  0.170424983E+00
   H -0.372583847E+02  0.428257552E+01  0.282238720E+01
   H  0.360849203E+02 -0.414491581E+01 -0.271046267E+01
     4
 # iter = 66000  time[fs]=66.00000
   C -0.781956607E+01 -0.228261963E+00 -0.358405141E-01
   C  0.743889018E+01  0.224095060E+00  0.172450499E+00
   H -0.376688160E+02  0.433005543E+01  0.285364769E+01
   H  0.364800737E+02 -0.419102097E+01 -0.274083522E+01
     4
 # iter = 66500  time[fs]=66.50000
   C -0.791060602E+01 -0.231336097E+00 -0.367023779E-01
   C  0.752542139E+01  0.227053176E+00  0.174477408E+00
   H -0.380793699E+02  0.437755143E+01  0.288491847E+01
   H  0.368753610E+02 -0.423714398E+01 -0.277121961E+01
     4
 # iter = 67000  time[fs]=67.00000
   C -0.800170155E+01 -0.234412682E+00 -0.375654790E-01
   C  0.761200728E+01  0.230013887E+00  0.176505684E+00
   H -0.384900439E+02  0.442506317E+01  0.291619930E+01
   H  0.372707792E+02 -0.428328445E+01 -0.280161560E+01
     4
 # iter = 67500  time[fs]=67.50000
   C -0.809285140E+01 -0.237491666E+00 -0.384297921E-01
   C  0.769864658E+01  0.232977139E+00  0.178535296E+00
   H -0.389008353E+02  0.447259032E+01  0.294748999E+01
   H  0.376663257E+02 -0.432944205E+01 -0.283202296E+01
     4
 # iter = 68000  time[fs]=68.00000
   C -0.818405435E+01 -0.240573000E+00 -0.392952930E-01
   C  0.778533809E+01  0.235942879E+00  0.180566220E+00
   H -0.393117417E+02  0.452013258E+01  0.297879033E+01
   H  0.380619977E+02 -0.437561641E+01 -0.286244144E+01
     4
 # iter = 68500  time[fs]=68.50000
   C -0.827530920E+01 -0.243656637E+00 -0.401619577E-01
   C  0.787208066E+01  0.238911059E+00  0.182598429E+00
   H -0.397227607E+02  0.456768962E+01  0.301010013E+01
   H  0.384577928E+02 -0.442180720E+01 -0.289287083E+01
     4
 # iter = 69000  time[fs]=69.00000
   C -0.836661481E+01 -0.246742529E+00 -0.410297632E-01
   C  0.795887314E+01  0.241881628E+00  0.184631897E+00
   H -0.401338901E+02  0.461526117E+01  0.304141919E+01
   H  0.388537083E+02 -0.446801409E+01 -0.292331092E+01
     4
 # iter = 69500  time[fs]=69.50000
   C -0.845797009E+01 -0.249830633E+00 -0.418986872E-01
   C  0.804571445E+01  0.244854539E+00  0.186666600E+00
   H -0.405451276E+02  0.466284691E+01  0.307274733E+01
   H  0.392497419E+02 -0.451423676E+01 -0.295376148E+01
     4
 # iter = 70000  time[fs]=70.00000
   C -0.854937395E+01 -0.252920903E+00 -0.427687078E-01
   C  0.813260353E+01  0.247829747E+00  0.188702515E+00
   H -0.409564710E+02  0.471044658E+01  0.310408437E+01
   H  0.396458912E+02 -0.456047491E+01 -0.298422231E+01
     4
 # iter = 70500  time[fs]=70.50000
   C -0.864082535E+01 -0.256013297E+00 -0.436398041E-01
   C  0.821953935E+01  0.250807206E+00  0.190739617E+00
   H -0.413679182E+02  0.475805990E+01  0.313543014E+01
   H  0.400421539E+02 -0.460672823E+01 -0.301469322E+01
     4
 # iter = 71000  time[fs]=71.00000
   C -0.873232329E+01 -0.259107775E+00 -0.445119554E-01
   C  0.830652093E+01  0.253786873E+00  0.192777885E+00
   H -0.417794673E+02  0.480568661E+01  0.316678446E+01
   H  0.404385278E+02 -0.465299644E+01 -0.304517401E+01
     4
 # iter = 71500  time[fs]=71.50000
   C -0.882386679E+01 -0.262204296E+00 -0.453851419E-01
   C  0.839354730E+01  0.256768706E+00  0.194817296E+00
   H -0.421911161E+02  0.485332644E+01  0.319814718E+01
   H  0.408350108E+02 -0.469927925E+01 -0.307566450E+01
     4
 # iter = 72000  time[fs]=72.00000
   C -0.891545491E+01 -0.265302820E+00 -0.462593440E-01
   C  0.848061753E+01  0.259752663E+00  0.196857830E+00
   H -0.426028628E+02  0.490097916E+01  0.322951813E+01
   H  0.412316007E+02 -0.474557638E+01 -0.310616449E+01
     4
 # iter = 72500  time[fs]=72.50000
   C -0.900708673E+01 -0.268403311E+00 -0.471345430E-01
   C  0.856773071E+01  0.262738705E+00  0.198899465E+00
   H -0.430147056E+02  0.494864451E+01  0.326089716E+01
   H  0.416282956E+02 -0.479188758E+01 -0.313667382E+01
     4
 # iter = 73000  time[fs]=73.00000
   C -0.909876136E+01 -0.271505732E+00 -0.480107205E-01
   C  0.865488597E+01  0.265726793E+00  0.200942181E+00
   H -0.434266425E+02  0.499632226E+01  0.329228412E+01
   H  0.420250934E+02 -0.483821257E+01 -0.316719231E+01
     4
 # iter = 73500  time[fs]=73.50000
   C -0.919047794E+01 -0.274610045E+00 -0.488878586E-01
   C  0.874208247E+01  0.268716889E+00  0.202985959E+00
   H -0.438386718E+02  0.504401218E+01  0.332367885E+01
   H  0.424219923E+02 -0.488455110E+01 -0.319771980E+01
     4
 # iter = 74000  time[fs]=74.00000
   C -0.928223562E+01 -0.277716218E+00 -0.497659400E-01
   C  0.882931937E+01  0.271708957E+00  0.205030779E+00
   H -0.442507919E+02  0.509171405E+01  0.335508123E+01
   H  0.428189903E+02 -0.493090294E+01 -0.322825611E+01
     4
 # iter = 74500  time[fs]=74.50000
   C -0.937403361E+01 -0.280824215E+00 -0.506449477E-01
   C  0.891659587E+01  0.274702960E+00  0.207076624E+00
   H -0.446630010E+02  0.513942765E+01  0.338649110E+01
   H  0.432160857E+02 -0.497726783E+01 -0.325880109E+01
     4
 # iter = 75000  time[fs]=75.00000
   C -0.946587109E+01 -0.283934004E+00 -0.515248652E-01
   C  0.900391119E+01  0.277698863E+00  0.209123474E+00
   H -0.450752975E+02  0.518715276E+01  0.341790834E+01
   H  0.436132766E+02 -0.502364556E+01 -0.328935460E+01
     4
 # iter = 75500  time[fs]=75.50000
   C -0.955774732E+01 -0.287045553E+00 -0.524056766E-01
   C  0.909126459E+01  0.280696634E+00  0.211171312E+00
   H -0.454876798E+02  0.523488919E+01  0.344933281E+01
   H  0.440105614E+02 -0.507003588E+01 -0.331991646E+01
     4
 # iter = 76000  time[fs]=76.00000
   C -0.964966154E+01 -0.290158830E+00 -0.532873661E-01
   C  0.917865532E+01  0.283696239E+00  0.213220122E+00
   H -0.459001464E+02  0.528263674E+01  0.348076439E+01
   H  0.444079384E+02 -0.511643858E+01 -0.335048655E+01
     4
 # iter = 76500  time[fs]=76.50000
   C -0.974161303E+01 -0.293273805E+00 -0.541699186E-01
   C  0.926608268E+01  0.286697645E+00  0.215269886E+00
   H -0.463126958E+02  0.533039520E+01  0.351220295E+01
   H  0.448054059E+02 -0.516285344E+01 -0.338106471E+01
     4
 # iter = 77000  time[fs]=77.00000
   C -0.983360109E+01 -0.296390449E+00 -0.550533193E-01
   C  0.935354596E+01  0.289700822E+00  0.217320587E+00
   H -0.467253265E+02  0.537816438E+01  0.354364837E+01
   H  0.452029624E+02 -0.520928026E+01 -0.341165081E+01
     4
 # iter = 77500  time[fs]=77.50000
   C -0.992562502E+01 -0.299508731E+00 -0.559375536E-01
   C  0.944104450E+01  0.292705739E+00  0.219372211E+00
   H -0.471380371E+02  0.542594411E+01  0.357510053E+01
   H  0.456006064E+02 -0.525571883E+01 -0.344224471E+01
     4
 # iter = 78000  time[fs]=78.00000
   C -0.100176842E+02 -0.302628625E+00 -0.568226074E-01
   C  0.952857764E+01  0.295712366E+00  0.221424741E+00
   H -0.475508263E+02  0.547373420E+01  0.360655931E+01
   H  0.459983362E+02 -0.530216894E+01 -0.347284628E+01
     4
 # iter = 78500  time[fs]=78.50000
   C -0.101097779E+02 -0.305750103E+00 -0.577084671E-01
   C  0.961614473E+01  0.298720674E+00  0.223478163E+00
   H -0.479636926E+02  0.552153448E+01  0.363802461E+01
   H  0.463961504E+02 -0.534863042E+01 -0.350345539E+01
     4
 # iter = 79000  time[fs]=79.00000
   C -0.102019055E+02 -0.308873138E+00 -0.585951192E-01
   C  0.970374518E+01  0.301730635E+00  0.225532461E+00
   H -0.483766348E+02  0.556934477E+01  0.366949631E+01
   H  0.467940477E+02 -0.539510305E+01 -0.353407191E+01
     4
 # iter = 79500  time[fs]=79.50000
   C -0.102940665E+02 -0.311997703E+00 -0.594825506E-01
   C  0.979137835E+01  0.304742222E+00  0.227587621E+00
   H -0.487896515E+02  0.561716491E+01  0.370097431E+01
   H  0.471920266E+02 -0.544158668E+01 -0.356469573E+01
     4
 # iter = 80000  time[fs]=80.00000
   C -0.103862602E+02 -0.315123774E+00 -0.603707485E-01
   C  0.987904368E+01  0.307755407E+00  0.229643630E+00
   H -0.492027416E+02  0.566499473E+01  0.373245850E+01
   H  0.475900857E+02 -0.548808110E+01 -0.359532671E+01
