     4
 # iter = 25000  time[fs]=25.00000
   C -0.987404990E+00  0.319382604E-01 -0.537728430E-01
   C  0.968179871E+00 -0.446454697E-01 -0.465283315E-01
   H -0.530729514E+01  0.508655834E+00  0.249146582E+00
   H  0.527932383E+01 -0.425712936E+00  0.411910025E+00
     4
 # iter = 25500  time[fs]=25.50000
   C -0.103215514E+01  0.310164392E-01 -0.558002752E-01
   C  0.100841213E+01 -0.440744362E-01 -0.485956520E-01
   H -0.563921605E+01  0.538408192E+00  0.266199633E+00
   H  0.559583930E+01 -0.449967755E+00  0.438900558E+00
     4
 # iter = 26000  time[fs]=26.00000
   C -0.107993396E+01  0.301913495E-01 -0.578671881E-01
   C  0.105165133E+01 -0.436059165E-01 -0.506912245E-01
   H -0.597637130E+01  0.568691259E+00  0.283555497E+00
   H  0.591785012E+01 -0.474683896E+00  0.466401071E+00
     4
 # iter = 26500  time[fs]=26.50000
   C -0.113049512E+01  0.294493353E-01 -0.599690341E-01
   C  0.109765243E+01 -0.432254281E-01 -0.528121290E-01
   H -0.631817869E+01  0.599444446E+00  0.301180032E+00
   H  0.624475803E+01 -0.499810686E+00  0.494356094E+00
     4
 # iter = 27000  time[fs]=27.00000
   C -0.118360742E+01  0.287785342E-01 -0.621019121E-01
   C  0.114618560E+01 -0.429204383E-01 -0.549559284E-01
   H -0.666414309E+01  0.630616570E+00  0.319044386E+00
   H  0.657605209E+01 -0.525304988E+00  0.522718421E+00
     4
 # iter = 27500  time[fs]=27.50000
   C -0.123905645E+01  0.281687279E-01 -0.642624656E-01
   C  0.119703765E+01 -0.426801782E-01 -0.571205598E-01
   H -0.701384068E+01  0.662164067E+00  0.337123991E+00
   H  0.691129325E+01 -0.551129844E+00  0.551447587E+00
     4
 # iter = 28000  time[fs]=28.00000
   C -0.129664498E+01  0.276111647E-01 -0.664477977E-01
   C  0.125001260E+01 -0.424954403E-01 -0.593042543E-01
   H -0.736690644E+01  0.694049600E+00  0.355397763E+00
   H  0.725010211E+01 -0.577253387E+00  0.580508685E+00
     4
 # iter = 28500  time[fs]=28.50000
   C -0.135619284E+01  0.270983772E-01 -0.686554000E-01
   C  0.130493135E+01 -0.423583760E-01 -0.615054781E-01
   H -0.772302412E+01  0.726240962E+00  0.373847497E+00
   H  0.759214898E+01 -0.603647985E+00  0.609871418E+00
     4
 # iter = 29000  time[fs]=29.00000
   C -0.141753610E+01  0.266240086E-01 -0.708830933E-01
   C  0.136163103E+01 -0.422623069E-01 -0.637228881E-01
   H -0.808191825E+01  0.758710201E+00  0.392457368E+00
   H  0.793714593E+01 -0.630289542E+00  0.639509338E+00
     4
 # iter = 29500  time[fs]=29.50000
   C -0.148052610E+01  0.261826524E-01 -0.731289776E-01
   C  0.141996396E+01 -0.422015536E-01 -0.659552976E-01
   H -0.844334765E+01  0.791432920E+00  0.411213546E+00
   H  0.828484023E+01 -0.657156940E+00  0.669399238E+00
     4
 # iter = 30000  time[fs]=30.00000
   C -0.154502834E+01  0.257697114E-01 -0.753913906E-01
   C  0.147979650E+01 -0.421712852E-01 -0.682016509E-01
   H -0.880710014E+01  0.824387716E+00  0.430103876E+00
   H  0.863500908E+01 -0.684231578E+00  0.699520654E+00
     4
 # iter = 30500  time[fs]=30.50000
   C -0.161092121E+01  0.253812737E-01 -0.776688728E-01
   C  0.154100786E+01 -0.421673885E-01 -0.704610023E-01
   H -0.917298818E+01  0.857555716E+00  0.449117629E+00
   H  0.898745516E+01 -0.711497000E+00  0.729855457E+00
     4
 # iter = 31000  time[fs]=31.00000
   C -0.167809485E+01  0.250140067E-01 -0.799601380E-01
   C  0.160348893E+01 -0.421863567E-01 -0.727325006E-01
   H -0.954084532E+01  0.890920208E+00  0.468245282E+00
   H  0.934200305E+01 -0.738938582E+00  0.760387517E+00
     4
 # iter = 31500  time[fs]=31.50000
   C -0.174644999E+01  0.246650670E-01 -0.822640489E-01
   C  0.166714114E+01 -0.422251943E-01 -0.750153756E-01
   H -0.991052326E+01  0.924466321E+00  0.487478356E+00
   H  0.969849617E+01 -0.766543281E+00  0.791102428E+00
     4
 # iter = 32000  time[fs]=32.00000
   C -0.181589689E+01  0.243320239E-01 -0.845795964E-01
   C  0.173187537E+01 -0.422813378E-01 -0.773089280E-01
   H -0.102818893E+02  0.958180778E+00  0.506809265E+00
   H  0.100567942E+02 -0.794299412E+00  0.821987269E+00
     4
 # iter = 32500  time[fs]=32.50000
   C -0.188635435E+01  0.240127951E-01 -0.869058818E-01
   C  0.179761101E+01 -0.423525877E-01 -0.796125200E-01
   H -0.106548244E+02  0.992051673E+00  0.526231197E+00
   H  0.104167711E+02 -0.822196477E+00  0.853030418E+00
     4
 # iter = 33000  time[fs]=33.00000
   C -0.195774885E+01  0.237055931E-01 -0.892421024E-01
   C  0.186427507E+01 -0.424370528E-01 -0.819255685E-01
   H -0.110292213E+02  0.102606830E+01  0.545738017E+00
   H  0.107783132E+02 -0.850225008E+00  0.884221379E+00
     4
 # iter = 33500  time[fs]=33.50000
   C -0.203001369E+01  0.234088793E-01 -0.915875387E-01
   C  0.193180136E+01 -0.425331029E-01 -0.842475388E-01
   H -0.114049830E+02  0.106022098E+01  0.565324179E+00
   H  0.111413175E+02 -0.878376442E+00  0.915550647E+00
     4
 # iter = 34000  time[fs]=34.00000
   C -0.210308832E+01  0.231213267E-01 -0.939415438E-01
   C  0.200012977E+01 -0.426393289E-01 -0.865779390E-01
   H -0.117820216E+02  0.109450098E+01  0.584984653E+00
   H  0.115056908E+02 -0.906643006E+00  0.947009590E+00
     4
 # iter = 34500  time[fs]=34.50000
   C -0.217691767E+01  0.228417880E-01 -0.963035346E-01
   C  0.206920565E+01 -0.427545100E-01 -0.889163161E-01
   H -0.121602575E+02  0.112890033E+01  0.604714867E+00
   H  0.118713481E+02 -0.935017631E+00  0.978590342E+00
     4
 # iter = 35000  time[fs]=35.00000
   C -0.225145156E+01  0.225692685E-01 -0.986729835E-01
   C  0.213897924E+01 -0.428775858E-01 -0.912622513E-01
   H -0.125396178E+02  0.116341179E+01  0.624510649E+00
   H  0.122382121E+02 -0.963493865E+00  0.101028572E+01
     4
 # iter = 35500  time[fs]=35.50000
   C -0.232664423E+01  0.223029043E-01 -0.101049412E+00
   C  0.220940512E+01 -0.430076331E-01 -0.936153573E-01
   H -0.129200360E+02  0.119802876E+01  0.644368187E+00
   H  0.126062118E+02 -0.992065809E+00  0.104208915E+01
     4
 # iter = 36000  time[fs]=36.00000
   C -0.240245386E+01  0.220419430E-01 -0.103432386E+00
   C  0.228044179E+01 -0.431438457E-01 -0.959752749E-01
   H -0.133014512E+02  0.123274518E+01  0.664283987E+00
   H  0.129752823E+02 -0.102072805E+01  0.107399460E+01
     4
 # iter = 36500  time[fs]=36.50000
   C -0.247884215E+01  0.217857279E-01 -0.105821508E+00
   C  0.235205130E+01 -0.432855184E-01 -0.983416703E-01
   H -0.136838077E+02  0.126755549E+01  0.684254839E+00
   H  0.133453642E+02 -0.104947562E+01  0.110599651E+01
     4
 # iter = 37000  time[fs]=37.00000
   C -0.255577400E+01  0.215336848E-01 -0.108216416E+00
   C  0.242419882E+01 -0.434320326E-01 -0.100714233E+00
   H -0.140670539E+02  0.130245458E+01  0.704277786E+00
   H  0.137164023E+02 -0.107830394E+01  0.113808977E+01
     4
 # iter = 37500  time[fs]=37.50000
   C -0.263321717E+01  0.212853101E-01 -0.110616779E+00
   C  0.249685239E+01 -0.435828447E-01 -0.103092674E+00
   H -0.144511425E+02  0.133743775E+01  0.724350101E+00
   H  0.140883462E+02 -0.110720879E+01  0.117026964E+01
     4
 # iter = 38000  time[fs]=38.00000
   C -0.271114201E+01  0.210401618E-01 -0.113022291E+00
   C  0.256998259E+01 -0.437374755E-01 -0.105476723E+00
   H -0.148360297E+02  0.137250065E+01  0.744469264E+00
   H  0.144611489E+02 -0.113618625E+01  0.120253176E+01
     4
 # iter = 38500  time[fs]=38.50000
   C -0.278952119E+01  0.207978508E-01 -0.115432672E+00
   C  0.264356235E+01 -0.438955023E-01 -0.107866127E+00
   H -0.152216750E+02  0.140763925E+01  0.764632937E+00
   H  0.148347672E+02 -0.116523270E+01  0.123487207E+01
     4
 # iter = 39000  time[fs]=39.00000
   C -0.286832950E+01  0.205580339E-01 -0.117847665E+00
   C  0.271756667E+01 -0.440565510E-01 -0.110260651E+00
   H -0.156080408E+02  0.144284981E+01  0.784838955E+00
   H  0.152091608E+02 -0.119434479E+01  0.126728680E+01
     4
 # iter = 39500  time[fs]=39.50000
   C -0.294754363E+01  0.203204083E-01 -0.120267029E+00
   C  0.279197244E+01 -0.442202901E-01 -0.112660073E+00
   H -0.159950921E+02  0.147812888E+01  0.805085303E+00
   H  0.155842924E+02 -0.122351940E+01  0.129977245E+01
     4
 # iter = 40000  time[fs]=40.00000
   C -0.302714201E+01  0.200847057E-01 -0.122690545E+00
   C  0.286675830E+01 -0.443864251E-01 -0.115064186E+00
   H -0.163827966E+02  0.151347322E+01  0.825370104E+00
   H  0.159601271E+02 -0.125275360E+01  0.133232574E+01
     4
 # iter = 40500  time[fs]=40.50000
   C -0.310710464E+01  0.198506886E-01 -0.125118007E+00
   C  0.294190442E+01 -0.445546941E-01 -0.117472794E+00
   H -0.167711240E+02  0.154887983E+01  0.845691608E+00
   H  0.163366326E+02 -0.128204469E+01  0.136494363E+01
     4
 # iter = 41000  time[fs]=41.00000
   C -0.318741297E+01  0.196181461E-01 -0.127549226E+00
   C  0.301739241E+01 -0.447248638E-01 -0.119885714E+00
   H -0.171600459E+02  0.158434591E+01  0.866048183E+00
   H  0.167137786E+02 -0.131139014E+01  0.139762327E+01
     4
 # iter = 41500  time[fs]=41.50000
   C -0.326804973E+01  0.193868908E-01 -0.129984024E+00
   C  0.309320518E+01 -0.448967259E-01 -0.122302772E+00
   H -0.175495362E+02  0.161986884E+01  0.886438298E+00
   H  0.170915367E+02 -0.134078757E+01  0.143036198E+01
     4
 # iter = 42000  time[fs]=42.00000
   C -0.334899886E+01  0.191567558E-01 -0.132422236E+00
   C  0.316932680E+01 -0.450700941E-01 -0.124723808E+00
   H -0.179395700E+02  0.165544615E+01  0.906860521E+00
   H  0.174698804E+02 -0.137023476E+01  0.146315728E+01
     4
 # iter = 42500  time[fs]=42.50000
   C -0.343024537E+01  0.189275926E-01 -0.134863708E+00
   C  0.324574245E+01 -0.452448017E-01 -0.127148665E+00
   H -0.183301241E+02  0.169107555E+01  0.927313510E+00
   H  0.178487850E+02 -0.139972963E+01  0.149600681E+01
     4
 # iter = 43000  time[fs]=43.00000
   C -0.351177531E+01  0.186992684E-01 -0.137308297E+00
   C  0.332243828E+01 -0.454206993E-01 -0.129577200E+00
   H -0.187211770E+02  0.172675489E+01  0.947796003E+00
   H  0.182282270E+02 -0.142927021E+01  0.152890836E+01
     4
 # iter = 43500  time[fs]=43.50000
   C -0.359357559E+01  0.184716648E-01 -0.139755868E+00
   C  0.339940136E+01 -0.455976527E-01 -0.132009276E+00
   H -0.191127081E+02  0.176248212E+01  0.968306814E+00
   H  0.186081846E+02 -0.145885468E+01  0.156185985E+01
     4
 # iter = 44000  time[fs]=44.00000
   C -0.367563401E+01  0.182446757E-01 -0.142206295E+00
   C  0.347661958E+01 -0.457755412E-01 -0.134444762E+00
   H -0.195046982E+02  0.179825535E+01  0.988844825E+00
   H  0.189886370E+02 -0.148848129E+01  0.159485935E+01
     4
 # iter = 44500  time[fs]=44.50000
   C -0.375793911E+01  0.180182066E-01 -0.144659459E+00
   C  0.355408160E+01 -0.459542562E-01 -0.136883535E+00
   H -0.198971293E+02  0.183407278E+01  0.100940898E+01
   H  0.193695650E+02 -0.151814841E+01  0.162790499E+01
     4
 # iter = 45000  time[fs]=45.00000
   C -0.384048014E+01  0.177921723E-01 -0.147115249E+00
   C  0.363177679E+01 -0.461337001E-01 -0.139325479E+00
   H -0.202899843E+02  0.186993269E+01  0.102999830E+01
   H  0.197509501E+02 -0.154785451E+01  0.166099503E+01
     4
 # iter = 45500  time[fs]=45.50000
   C -0.392324704E+01  0.175664967E-01 -0.149573561E+00
   C  0.370969518E+01 -0.463137845E-01 -0.141770483E+00
   H -0.206832471E+02  0.190583351E+01  0.105061183E+01
   H  0.201327750E+02 -0.157759812E+01  0.169412784E+01
     4
 # iter = 46000  time[fs]=46.00000
   C -0.400623032E+01  0.173411117E-01 -0.152034295E+00
   C  0.378782737E+01 -0.464944298E-01 -0.144218442E+00
   H -0.210769025E+02  0.194177371E+01  0.107124869E+01
   H  0.205150234E+02 -0.160737787E+01  0.172730186E+01
     4
 # iter = 46500  time[fs]=46.50000
   C -0.408942106E+01  0.171159559E-01 -0.154497359E+00
   C  0.386616455E+01 -0.466755640E-01 -0.146669257E+00
   H -0.214709362E+02  0.197775186E+01  0.109190803E+01
   H  0.208976798E+02 -0.163719245E+01  0.176051561E+01
     4
 # iter = 47000  time[fs]=47.00000
   C -0.417281086E+01  0.168909744E-01 -0.156962665E+00
   C  0.394469839E+01 -0.468571221E-01 -0.149122832E+00
   H -0.218653344E+02  0.201376661E+01  0.111258907E+01
   H  0.212807295E+02 -0.166704064E+01  0.179376769E+01
     4
 # iter = 47500  time[fs]=47.50000
   C -0.425639181E+01  0.166661176E-01 -0.159430129E+00
   C  0.402342107E+01 -0.470390450E-01 -0.151579077E+00
   H -0.222600843E+02  0.204981666E+01  0.113329105E+01
   H  0.216641586E+02 -0.169692125E+01  0.182705678E+01
     4
 # iter = 48000  time[fs]=48.00000
   C -0.434015642E+01  0.164413413E-01 -0.161899675E+00
   C  0.410232517E+01 -0.472212795E-01 -0.154037905E+00
   H -0.226551737E+02  0.208590081E+01  0.115401325E+01
   H  0.220479540E+02 -0.172683318E+01  0.186038162E+01
     4
 # iter = 48500  time[fs]=48.50000
   C -0.442409765E+01  0.162166055E-01 -0.164371227E+00
   C  0.418140373E+01 -0.474037772E-01 -0.156499235E+00
   H -0.230505909E+02  0.212201789E+01  0.117475499E+01
   H  0.224321032E+02 -0.175677538E+01  0.189374101E+01
     4
 # iter = 49000  time[fs]=49.00000
   C -0.450820880E+01  0.159918744E-01 -0.166844714E+00
   C  0.426065012E+01 -0.475864942E-01 -0.158962989E+00
   H -0.234463248E+02  0.215816681E+01  0.119551563E+01
   H  0.228165943E+02 -0.178674683E+01  0.192713382E+01
     4
 # iter = 49500  time[fs]=49.50000
   C -0.459248357E+01  0.157671158E-01 -0.169320071E+00
   C  0.434005810E+01 -0.477693906E-01 -0.161429091E+00
   H -0.238423651E+02  0.219434651E+01  0.121629454E+01
   H  0.232014159E+02 -0.181674658E+01  0.196055896E+01
     4
 # iter = 50000  time[fs]=50.00000
   C -0.467691596E+01  0.155423007E-01 -0.171797233E+00
   C  0.441962176E+01 -0.479524305E-01 -0.163897470E+00
   H -0.242387016E+02  0.223055600E+01  0.123709115E+01
   H  0.235865572E+02 -0.184677373E+01  0.199401540E+01
     4
 # iter = 50500  time[fs]=50.50000
   C -0.476150031E+01  0.153174033E-01 -0.174276140E+00
   C  0.449933546E+01 -0.481355808E-01 -0.166368059E+00
   H -0.246353249E+02  0.226679434E+01  0.125790488E+01
   H  0.239720081E+02 -0.187682740E+01  0.202750216E+01
     4
 # iter = 51000  time[fs]=51.00000
   C -0.484623122E+01  0.150924002E-01 -0.176756735E+00
   C  0.457919390E+01 -0.483188119E-01 -0.168840791E+00
   H -0.250322259E+02  0.230306061E+01  0.127873522E+01
   H  0.243577588E+02 -0.190690678E+01  0.206101830E+01
     4
 # iter = 51500  time[fs]=51.50000
   C -0.493110359E+01  0.148672704E-01 -0.179238964E+00
   C  0.465919201E+01 -0.485020966E-01 -0.171315604E+00
   H -0.254293959E+02  0.233935395E+01  0.129958166E+01
   H  0.247437999E+02 -0.193701106E+01  0.209456293E+01
     4
 # iter = 52000  time[fs]=52.00000
   C -0.501611257E+01  0.146419953E-01 -0.181722774E+00
   C  0.473932500E+01 -0.486854104E-01 -0.173792438E+00
   H -0.258268267E+02  0.237567355E+01  0.132044369E+01
   H  0.251301225E+02 -0.196713950E+01  0.212813518E+01
     4
 # iter = 52500  time[fs]=52.50000
   C -0.510125352E+01  0.144165581E-01 -0.184208117E+00
   C  0.481958828E+01 -0.488687308E-01 -0.176271237E+00
   H -0.262245104E+02  0.241201860E+01  0.134132087E+01
   H  0.255167182E+02 -0.199729138E+01  0.216173424E+01
     4
 # iter = 53000  time[fs]=53.00000
   C -0.518652206E+01  0.141909438E-01 -0.186694943E+00
   C  0.489997752E+01 -0.490520377E-01 -0.178751944E+00
   H -0.266224395E+02  0.244838837E+01  0.136221275E+01
   H  0.259035788E+02 -0.202746601E+01  0.219535932E+01
     4
 # iter = 53500  time[fs]=53.50000
   C -0.527191399E+01  0.139651390E-01 -0.189183209E+00
   C  0.498048858E+01 -0.492353123E-01 -0.181234508E+00
   H -0.270206066E+02  0.248478213E+01  0.138311890E+01
   H  0.262906964E+02 -0.205766272E+01  0.222900969E+01
     4
 # iter = 54000  time[fs]=54.00000
   C -0.535742533E+01  0.137391318E-01 -0.191672872E+00
   C  0.506111751E+01 -0.494185382E-01 -0.183718878E+00
   H -0.274190051E+02  0.252119918E+01  0.140403891E+01
   H  0.266780638E+02 -0.208788090E+01  0.226268461E+01
     4
 # iter = 54500  time[fs]=54.50000
   C -0.544305227E+01  0.135129115E-01 -0.194163889E+00
   C  0.514186054E+01 -0.496016999E-01 -0.186205005E+00
   H -0.278176281E+02  0.255763888E+01  0.142497240E+01
   H  0.270656737E+02 -0.211811992E+01  0.229638341E+01
     4
 # iter = 55000  time[fs]=55.00000
   C -0.552879118E+01  0.132864689E-01 -0.196656223E+00
   C  0.522271408E+01 -0.497847837E-01 -0.188692842E+00
   H -0.282164695E+02  0.259410058E+01  0.144591900E+01
   H  0.274535193E+02 -0.214837922E+01  0.233010541E+01
     4
 # iter = 55500  time[fs]=55.50000
   C -0.561463859E+01  0.130597956E-01 -0.199149834E+00
   C  0.530367472E+01 -0.499677770E-01 -0.191182345E+00
   H -0.286155230E+02  0.263058368E+01  0.146687833E+01
   H  0.278415942E+02 -0.217865824E+01  0.236385000E+01
     4
 # iter = 56000  time[fs]=56.00000
   C -0.570059118E+01  0.128328842E-01 -0.201644687E+00
   C  0.538473917E+01 -0.501506685E-01 -0.193673471E+00
   H -0.290147830E+02  0.266708760E+01  0.148785007E+01
   H  0.282298919E+02 -0.220895644E+01  0.239761656E+01
     4
 # iter = 56500  time[fs]=56.50000
   C -0.578664579E+01  0.126057284E-01 -0.204140747E+00
   C  0.546590429E+01 -0.503334479E-01 -0.196166178E+00
   H -0.294142438E+02  0.270361178E+01  0.150883387E+01
   H  0.286184064E+02 -0.223927331E+01  0.243140451E+01
     4
 # iter = 57000  time[fs]=57.00000
   C -0.587279939E+01  0.123783225E-01 -0.206637980E+00
   C  0.554716710E+01 -0.505161058E-01 -0.198660425E+00
   H -0.298139000E+02  0.274015569E+01  0.152982943E+01
   H  0.290071321E+02 -0.226960836E+01  0.246521328E+01
     4
 # iter = 57500  time[fs]=57.50000
   C -0.595904907E+01  0.121506617E-01 -0.209136356E+00
   C  0.562852472E+01 -0.506986339E-01 -0.201156176E+00
   H -0.302137465E+02  0.277671880E+01  0.155083643E+01
   H  0.293960632E+02 -0.229996111E+01  0.249904235E+01
     4
 # iter = 58000  time[fs]=58.00000
   C -0.604539205E+01  0.119227419E-01 -0.211635844E+00
   C  0.570997441E+01 -0.508810245E-01 -0.203653391E+00
   H -0.306137784E+02  0.281330061E+01  0.157185458E+01
   H  0.297851945E+02 -0.233033112E+01  0.253289118E+01
     4
 # iter = 58500  time[fs]=58.50000
   C -0.613182567E+01  0.116945593E-01 -0.214136413E+00
   C  0.579151354E+01 -0.510632708E-01 -0.206152037E+00
   H -0.310139908E+02  0.284990066E+01  0.159288360E+01
   H  0.301745208E+02 -0.236071794E+01  0.256675929E+01
     4
 # iter = 59000  time[fs]=59.00000
   C -0.621834738E+01  0.114661111E-01 -0.216638036E+00
   C  0.587313958E+01 -0.512453667E-01 -0.208652078E+00
   H -0.314143791E+02  0.288651849E+01  0.161392322E+01
   H  0.305640372E+02 -0.239112115E+01  0.260064619E+01
     4
 # iter = 59500  time[fs]=59.50000
   C -0.630495472E+01  0.112373948E-01 -0.219140685E+00
   C  0.595485010E+01 -0.514273066E-01 -0.211153480E+00
   H -0.318149390E+02  0.292315364E+01  0.163497318E+01
   H  0.309537388E+02 -0.242154034E+01  0.263455141E+01
     4
 # iter = 60000  time[fs]=60.00000
   C -0.639164535E+01  0.110084082E-01 -0.221644335E+00
   C  0.603664280E+01 -0.516090856E-01 -0.213656213E+00
   H -0.322156662E+02  0.295980570E+01  0.165603322E+01
   H  0.313436212E+02 -0.245197513E+01  0.266847451E+01
     4
 # iter = 60500  time[fs]=60.50000
   C -0.647841700E+01  0.107791498E-01 -0.224148960E+00
   C  0.611851542E+01 -0.517906993E-01 -0.216160245E+00
   H -0.326165566E+02  0.299647426E+01  0.167710310E+01
   H  0.317336798E+02 -0.248242513E+01  0.270241507E+01
     4
 # iter = 61000  time[fs]=61.00000
   C -0.656526750E+01  0.105496184E-01 -0.226654536E+00
   C  0.620046584E+01 -0.519721438E-01 -0.218665546E+00
   H -0.330176063E+02  0.303315891E+01  0.169818258E+01
   H  0.321239104E+02 -0.251288998E+01  0.273637266E+01
     4
 # iter = 61500  time[fs]=61.50000
   C -0.665219477E+01  0.103198130E-01 -0.229161040E+00
   C  0.628249198E+01 -0.521534155E-01 -0.221172087E+00
   H -0.334188114E+02  0.306985927E+01  0.171927144E+01
   H  0.325143090E+02 -0.254336934E+01  0.277034689E+01
     4
 # iter = 62000  time[fs]=62.00000
   C -0.673919679E+01  0.100897331E-01 -0.231668449E+00
   C  0.636459187E+01 -0.523345115E-01 -0.223679840E+00
   H -0.338201682E+02  0.310657499E+01  0.174036946E+01
   H  0.329048714E+02 -0.257386285E+01  0.280433736E+01
     4
 # iter = 62500  time[fs]=62.50000
   C -0.682627165E+01  0.985937841E-02 -0.234176741E+00
   C  0.644676360E+01 -0.525154290E-01 -0.226188778E+00
   H -0.342216732E+02  0.314330569E+01  0.176147643E+01
   H  0.332955939E+02 -0.260437020E+01  0.283834371E+01
     4
 # iter = 63000  time[fs]=63.00000
   C -0.691341748E+01  0.962874894E-02 -0.236685896E+00
   C  0.652900533E+01 -0.526961658E-01 -0.228698876E+00
   H -0.346233230E+02  0.318005105E+01  0.178259215E+01
   H  0.336864728E+02 -0.263489108E+01  0.287236558E+01
     4
 # iter = 63500  time[fs]=63.50000
   C -0.700063249E+01  0.939784488E-02 -0.239195893E+00
   C  0.661131530E+01 -0.528767197E-01 -0.231210107E+00
   H -0.350251143E+02  0.321681071E+01  0.180371641E+01
   H  0.340775046E+02 -0.266542516E+01  0.290640261E+01
     4
 # iter = 64000  time[fs]=64.00000
   C -0.708791495E+01  0.916666667E-02 -0.241706714E+00
   C  0.669369180E+01 -0.530570892E-01 -0.233722447E+00
   H -0.354270439E+02  0.325358437E+01  0.182484904E+01
   H  0.344686857E+02 -0.269597216E+01  0.294045447E+01
     4
 # iter = 64500  time[fs]=64.50000
   C -0.717526321E+01  0.893521494E-02 -0.244218338E+00
   C  0.677613319E+01 -0.532372727E-01 -0.236235873E+00
   H -0.358291086E+02  0.329037172E+01  0.184598983E+01
   H  0.348600128E+02 -0.272653180E+01  0.297452083E+01
     4
 # iter = 65000  time[fs]=65.00000
   C -0.726267565E+01  0.870349049E-02 -0.246730748E+00
   C  0.685863788E+01 -0.534172690E-01 -0.238750362E+00
   H -0.362313055E+02  0.332717245E+01  0.186713862E+01
   H  0.352514826E+02 -0.275710379E+01  0.300860138E+01
     4
 # iter = 65500  time[fs]=65.50000
   C -0.735015074E+01  0.847149428E-02 -0.249243926E+00
   C  0.694120435E+01 -0.535970772E-01 -0.241265891E+00
   H -0.366336317E+02  0.336398627E+01  0.188829523E+01
   H  0.356430922E+02 -0.278768787E+01  0.304269581E+01
     4
 # iter = 66000  time[fs]=66.00000
   C -0.743768699E+01  0.823922744E-02 -0.251757856E+00
   C  0.702383113E+01 -0.537766965E-01 -0.243782439E+00
   H -0.370360843E+02  0.340081290E+01  0.190945949E+01
   H  0.360348384E+02 -0.281828379E+01  0.307680382E+01
     4
 # iter = 66500  time[fs]=66.50000
   C -0.752528294E+01  0.800669119E-02 -0.254272520E+00
   C  0.710651680E+01 -0.539561263E-01 -0.246299985E+00
   H -0.374386608E+02  0.343765207E+01  0.193063125E+01
   H  0.364267183E+02 -0.284889128E+01  0.311092514E+01
     4
 # iter = 67000  time[fs]=67.00000
   C -0.761293721E+01  0.777388689E-02 -0.256787903E+00
   C  0.718925997E+01 -0.541353662E-01 -0.248818508E+00
   H -0.378413584E+02  0.347450352E+01  0.195181035E+01
   H  0.368187290E+02 -0.287951011E+01  0.314505947E+01
     4
 # iter = 67500  time[fs]=67.50000
   C -0.770064846E+01  0.754081601E-02 -0.259303990E+00
   C  0.727205932E+01 -0.543144161E-01 -0.251337990E+00
   H -0.382441746E+02  0.351136699E+01  0.197299663E+01
   H  0.372108679E+02 -0.291014004E+01  0.317920656E+01
     4
 # iter = 68000  time[fs]=68.00000
   C -0.778841539E+01  0.730748010E-02 -0.261820765E+00
   C  0.735491358E+01 -0.544932757E-01 -0.253858410E+00
   H -0.386471069E+02  0.354824223E+01  0.199418995E+01
   H  0.376031323E+02 -0.294078085E+01  0.321336615E+01
     4
 # iter = 68500  time[fs]=68.50000
   C -0.787623673E+01  0.707388081E-02 -0.264338215E+00
   C  0.743782149E+01 -0.546719453E-01 -0.256379751E+00
   H -0.390501530E+02  0.358512900E+01  0.201539016E+01
   H  0.379955195E+02 -0.297143230E+01  0.324753797E+01
     4
 # iter = 69000  time[fs]=69.00000
   C -0.796411128E+01  0.684001984E-02 -0.266856324E+00
   C  0.752078186E+01 -0.548504249E-01 -0.258901994E+00
   H -0.394533105E+02  0.362202707E+01  0.203659713E+01
   H  0.383880271E+02 -0.300209420E+01  0.328172178E+01
     4
 # iter = 69500  time[fs]=69.50000
   C -0.805203786E+01  0.660589899E-02 -0.269375080E+00
   C  0.760379353E+01 -0.550287148E-01 -0.261425122E+00
   H -0.398565772E+02  0.365893621E+01  0.205781072E+01
   H  0.387806527E+02 -0.303276632E+01  0.331591735E+01
     4
 # iter = 70000  time[fs]=70.00000
   C -0.814001533E+01  0.637152010E-02 -0.271894470E+00
   C  0.768685538E+01 -0.552068155E-01 -0.263949118E+00
   H -0.402599509E+02  0.369585620E+01  0.207903080E+01
   H  0.391733939E+02 -0.306344848E+01  0.335012445E+01
     4
 # iter = 70500  time[fs]=70.50000
   C -0.822804260E+01  0.613688506E-02 -0.274414480E+00
   C  0.776996631E+01 -0.553847274E-01 -0.266473966E+00
   H -0.406634295E+02  0.373278684E+01  0.210025725E+01
   H  0.395662483E+02 -0.309414046E+01  0.338434284E+01
     4
 # iter = 71000  time[fs]=71.00000
   C -0.831611858E+01  0.590199581E-02 -0.276935098E+00
   C  0.785312528E+01 -0.555624511E-01 -0.268999649E+00
   H -0.410670109E+02  0.376972791E+01  0.212148993E+01
   H  0.399592139E+02 -0.312484209E+01  0.341857232E+01
     4
 # iter = 71500  time[fs]=71.50000
   C -0.840424225E+01  0.566685433E-02 -0.279456312E+00
   C  0.793633127E+01 -0.557399874E-01 -0.271526151E+00
   H -0.414706932E+02  0.380667921E+01  0.214272874E+01
   H  0.403522884E+02 -0.315555317E+01  0.345281267E+01
     4
 # iter = 72000  time[fs]=72.00000
   C -0.849241262E+01  0.543146264E-02 -0.281978111E+00
   C  0.801958328E+01 -0.559173368E-01 -0.274053459E+00
   H -0.418744744E+02  0.384364055E+01  0.216397356E+01
   H  0.407454697E+02 -0.318627353E+01  0.348706368E+01
     4
 # iter = 72500  time[fs]=72.50000
   C -0.858062870E+01  0.519582279E-02 -0.284500483E+00
   C  0.810288036E+01 -0.560945003E-01 -0.276581556E+00
   H -0.422783525E+02  0.388061174E+01  0.218522427E+01
   H  0.411387558E+02 -0.321700299E+01  0.352132515E+01
     4
 # iter = 73000  time[fs]=73.00000
   C -0.866888955E+01  0.495993684E-02 -0.287023417E+00
   C  0.818622158E+01 -0.562714787E-01 -0.279110429E+00
   H -0.426823259E+02  0.391759259E+01  0.220648076E+01
   H  0.415321448E+02 -0.324774139E+01  0.355559690E+01
     4
 # iter = 73500  time[fs]=73.50000
   C -0.875719427E+01  0.472380689E-02 -0.289546902E+00
   C  0.826960604E+01 -0.564482729E-01 -0.281640064E+00
   H -0.430863927E+02  0.395458292E+01  0.222774293E+01
   H  0.419256346E+02 -0.327848855E+01  0.358987873E+01
     4
 # iter = 74000  time[fs]=74.00000
   C -0.884554197E+01  0.448743503E-02 -0.292070929E+00
   C  0.835303286E+01 -0.566248838E-01 -0.284170447E+00
   H -0.434905511E+02  0.399158257E+01  0.224901067E+01
   H  0.423192235E+02 -0.330924431E+01  0.362417045E+01
     4
 # iter = 74500  time[fs]=74.50000
   C -0.893393178E+01  0.425082340E-02 -0.294595487E+00
   C  0.843650120E+01 -0.568013126E-01 -0.286701564E+00
   H -0.438947995E+02  0.402859136E+01  0.227028388E+01
   H  0.427129096E+02 -0.334000853E+01  0.365847189E+01
     4
 # iter = 75000  time[fs]=75.00000
   C -0.902236287E+01  0.401397411E-02 -0.297120565E+00
   C  0.852001022E+01 -0.569775602E-01 -0.289233404E+00
   H -0.442991363E+02  0.406560912E+01  0.229156247E+01
   H  0.431066912E+02 -0.337078104E+01  0.369278287E+01
     4
 # iter = 75500  time[fs]=75.50000
   C -0.911083444E+01  0.377688932E-02 -0.299646156E+00
   C  0.860355914E+01 -0.571536278E-01 -0.291765952E+00
   H -0.447035599E+02  0.410263570E+01  0.231284633E+01
   H  0.435005665E+02 -0.340156170E+01  0.372710323E+01
     4
 # iter = 76000  time[fs]=76.00000
   C -0.919934569E+01  0.353957115E-02 -0.302172249E+00
   C  0.868714717E+01 -0.573295165E-01 -0.294299198E+00
   H -0.451080686E+02  0.413967093E+01  0.233413538E+01
   H  0.438945338E+02 -0.343235037E+01  0.376143280E+01
     4
 # iter = 76500  time[fs]=76.50000
   C -0.928789586E+01  0.330202176E-02 -0.304698835E+00
   C  0.877077356E+01 -0.575052274E-01 -0.296833130E+00
   H -0.455126611E+02  0.417671467E+01  0.235542952E+01
   H  0.442885915E+02 -0.346314690E+01  0.379577141E+01
     4
 # iter = 77000  time[fs]=77.00000
   C -0.937648420E+01  0.306424329E-02 -0.307225905E+00
   C  0.885443758E+01 -0.576807617E-01 -0.299367734E+00
   H -0.459173357E+02  0.421376677E+01  0.237672867E+01
   H  0.446827381E+02 -0.349395116E+01  0.383011892E+01
     4
 # iter = 77500  time[fs]=77.50000
   C -0.946511000E+01  0.282623788E-02 -0.309753451E+00
   C  0.893813851E+01 -0.578561207E-01 -0.301903001E+00
   H -0.463220912E+02  0.425082709E+01  0.239803274E+01
   H  0.450769720E+02 -0.352476301E+01  0.386447517E+01
     4
 # iter = 78000  time[fs]=78.00000
   C -0.955377255E+01  0.258800766E-02 -0.312281465E+00
   C  0.902187566E+01 -0.580313055E-01 -0.304438920E+00
   H -0.467269261E+02  0.428789548E+01  0.241934164E+01
   H  0.454712916E+02 -0.355558233E+01  0.389884000E+01
     4
 # iter = 78500  time[fs]=78.50000
   C -0.964247116E+01  0.234955477E-02 -0.314809938E+00
   C  0.910564835E+01 -0.582063174E-01 -0.306975479E+00
   H -0.471318390E+02  0.432497180E+01  0.244065530E+01
   H  0.458656955E+02 -0.358640899E+01  0.393321328E+01
     4
 # iter = 79000  time[fs]=79.00000
   C -0.973120518E+01  0.211088133E-02 -0.317338863E+00
   C  0.918945593E+01 -0.583811577E-01 -0.309512667E+00
   H -0.475368287E+02  0.436205592E+01  0.246197363E+01
   H  0.462601823E+02 -0.361724287E+01  0.396759486E+01
     4
 # iter = 79500  time[fs]=79.50000
   C -0.981997395E+01  0.187198946E-02 -0.319868231E+00
   C  0.927329776E+01 -0.585558276E-01 -0.312050476E+00
   H -0.479418937E+02  0.439914772E+01  0.248329656E+01
   H  0.466547506E+02 -0.364808384E+01  0.400198461E+01
     4
 # iter = 80000  time[fs]=80.00000
   C -0.990877684E+01  0.163288126E-02 -0.322398036E+00
   C  0.935717322E+01 -0.587303284E-01 -0.314588894E+00
   H -0.483470329E+02  0.443624706E+01  0.250462401E+01
   H  0.470493990E+02 -0.367893178E+01  0.403638238E+01
