     4
 # iter = 25000  time[fs]=25.00000
   C -0.970459177E+00 -0.491876670E-03 -0.138093983E-01
   C  0.988795241E+00  0.344305027E-01 -0.508843480E-01
   H -0.518215121E+01 -0.120589927E-01  0.248774305E+00
   H  0.524845069E+01 -0.534405712E+00  0.451734877E+00
     4
 # iter = 25500  time[fs]=25.50000
   C -0.101524767E+01 -0.122735944E-04 -0.146313110E-01
   C  0.103216202E+01  0.385180271E-01 -0.533139230E-01
   H -0.551648136E+01 -0.109483035E-01  0.264557856E+00
   H  0.556371406E+01 -0.565264099E+00  0.481241664E+00
     4
 # iter = 26000  time[fs]=26.00000
   C -0.106309219E+01  0.419470002E-03 -0.154214357E-01
   C  0.107859653E+01  0.427068840E-01 -0.558466843E-01
   H -0.585647190E+01 -0.984577202E-02  0.280645468E+00
   H  0.588449734E+01 -0.596756005E+00  0.511301167E+00
     4
 # iter = 26500  time[fs]=26.50000
   C -0.111373696E+01  0.804445700E-03 -0.161817675E-01
   C  0.112783886E+01  0.469900154E-01 -0.584726675E-01
   H -0.620147329E+01 -0.874957410E-02  0.297001094E+00
   H  0.621020071E+01 -0.628811655E+00  0.541853806E+00
     4
 # iter = 27000  time[fs]=27.00000
   C -0.116694312E+01  0.114420324E-02 -0.169143820E-01
   C  0.117964706E+01  0.513608165E-01 -0.611830468E-01
   H -0.655093600E+01 -0.765830109E-02  0.313594505E+00
   H  0.654031147E+01 -0.661371801E+00  0.572848806E+00
     4
 # iter = 27500  time[fs]=27.50000
   C -0.122249005E+01  0.144059444E-02 -0.176213412E-01
   C  0.123379826E+01  0.558131212E-01 -0.639699988E-01
   H -0.690439184E+01 -0.657085389E-02  0.330400140E+00
   H  0.687438878E+01 -0.694385766E+00  0.604242589E+00
     4
 # iter = 28000  time[fs]=28.00000
   C -0.128017575E+01  0.169565077E-02 -0.183046341E-01
   C  0.129008876E+01  0.603411893E-01 -0.668265826E-01
   H -0.726143939E+01 -0.548636717E-02  0.347396220E+00
   H  0.721205147E+01 -0.727809915E+00  0.635997515E+00
     4
 # iter = 28500  time[fs]=28.50000
   C -0.133981636E+01  0.191149041E-02 -0.189661417E-01
   C  0.134833343E+01  0.649396948E-01 -0.697466341E-01
   H -0.762173229E+01 -0.440415423E-02  0.364564052E+00
   H  0.755296818E+01 -0.761606437E+00  0.668080876E+00
     4
 # iter = 29000  time[fs]=29.00000
   C -0.140124520E+01  0.209024977E-02 -0.196076189E-01
   C  0.140836470E+01  0.696037095E-01 -0.727246711E-01
   H -0.798497000E+01 -0.332366640E-02  0.381887491E+00
   H  0.789684944E+01 -0.795742382E+00  0.700464091E+00
     4
 # iter = 29500  time[fs]=29.50000
   C -0.146431164E+01  0.223403487E-02 -0.202306870E-01
   C  0.147003125E+01  0.743286844E-01 -0.757558105E-01
   H -0.835089031E+01 -0.224446267E-02  0.399352502E+00
   H  0.824344111E+01 -0.830188873E+00  0.733122056E+00
     4
 # iter = 30000  time[fs]=30.00000
   C -0.152887979E+01  0.234488790E-02 -0.208368342E-01
   C  0.153319670E+01  0.791104284E-01 -0.788356956E-01
   H -0.871926329E+01 -0.116618684E-02  0.416946820E+00
   H  0.859251907E+01 -0.864920482E+00  0.766032610E+00
     4
 # iter = 30500  time[fs]=30.50000
   C -0.159482711E+01  0.242476564E-02 -0.214274199E-01
   C  0.159773819E+01  0.839450858E-01 -0.819604315E-01
   H -0.908988636E+01 -0.885499880E-04  0.434659667E+00
   H  0.894388487E+01 -0.899914708E+00  0.799176107E+00
     4
 # iter = 31000  time[fs]=31.00000
   C -0.166204321E+01  0.247552646E-02 -0.220036825E-01
   C  0.166354506E+01  0.888291121E-01 -0.851265292E-01
   H -0.946258023E+01  0.988683032E-03  0.452481529E+00
   H  0.929736200E+01 -0.935151555E+00  0.832535053E+00
     4
 # iter = 31500  time[fs]=31.50000
   C -0.173042852E+01  0.249892370E-02 -0.225667474E-01
   C  0.173051763E+01  0.937592510E-01 -0.883308565E-01
   H -0.983718554E+01  0.206570406E-02  0.470403965E+00
   H  0.965279294E+01 -0.970613178E+00  0.866093808E+00
     4
 # iter = 32000  time[fs]=32.00000
   C -0.179989324E+01  0.249660356E-02 -0.231176364E-01
   C  0.179856598E+01  0.987325111E-01 -0.915705960E-01
   H -0.102135601E+02  0.314266988E-02  0.488419459E+00
   H  0.100100366E+02 -0.100628359E+01  0.899838340E+00
     4
 # iter = 32500  time[fs]=32.50000
   C -0.187035627E+01  0.247010607E-02 -0.236572770E-01
   C  0.186760899E+01  0.103746144E+00 -0.948432069E-01
   H -0.105915766E+02  0.421970876E-02  0.506521288E+00
   H  0.103689660E+02 -0.104214842E+01  0.933756014E+00
     4
 # iter = 33000  time[fs]=33.00000
   C -0.194174428E+01  0.242086825E-02 -0.241865108E-01
   C  0.193757332E+01  0.108797623E+00 -0.981463936E-01
   H -0.109711206E+02  0.529692560E-02  0.524703419E+00
   H  0.107294669E+02 -0.107819470E+01  0.967835414E+00
     4
 # iter = 33500  time[fs]=33.50000
   C -0.201399087E+01  0.235022849E-02 -0.247061023E-01
   C  0.200839258E+01  0.113884626E+00 -0.101478077E+00
   H -0.113520889E+02  0.637440615E-02  0.542960416E+00
   H  0.110914357E+02 -0.111441070E+01  0.100206620E+01
     4
 # iter = 34000  time[fs]=34.00000
   C -0.208703581E+01  0.225943183E-02 -0.252167458E-01
   C  0.208000661E+01  0.119005013E+00 -0.104836369E+00
   H -0.117343882E+02  0.745222032E-02  0.561287367E+00
   H  0.114547786E+02 -0.115078577E+01  0.103643896E+01
     4
 # iter = 34500  time[fs]=34.50000
   C -0.216082442E+01  0.214963563E-02 -0.257190730E-01
   C  0.215236077E+01  0.124156814E+00 -0.108219555E+00
   H -0.121179337E+02  0.853042494E-02  0.579679821E+00
   H  0.118194102E+02 -0.118731021E+01  0.107094515E+01
     4
 # iter = 35000  time[fs]=35.00000
   C -0.223530692E+01  0.202191528E-02 -0.262136591E-01
   C  0.222540537E+01  0.129338214E+00 -0.111626068E+00
   H -0.125026485E+02  0.960906594E-02  0.598133730E+00
   H  0.121852525E+02 -0.122397517E+01  0.110557691E+01
     4
 # iter = 35500  time[fs]=35.50000
   C -0.231043797E+01  0.187726999E-02 -0.267010284E-01
   C  0.229909512E+01  0.134547534E+00 -0.115054479E+00
   H -0.128884622E+02  0.106881802E-01  0.616645403E+00
   H  0.125522344E+02 -0.126077254E+01  0.114032709E+01
     4
 # iter = 36000  time[fs]=36.00000
   C -0.238617615E+01  0.171662833E-02 -0.271816596E-01
   C  0.237338871E+01  0.139783224E+00 -0.118503481E+00
   H -0.132753107E+02  0.117677971E-01  0.635211467E+00
   H  0.129202905E+02 -0.129769491E+01  0.117518911E+01
     4
 # iter = 36500  time[fs]=36.50000
   C -0.246248358E+01  0.154085351E-02 -0.276559903E-01
   C  0.244824834E+01  0.145043850E+00 -0.121971872E+00
   H -0.136631349E+02  0.128479396E-01  0.653828832E+00
   H  0.132893610E+02 -0.133473544E+01  0.121015689E+01
     4
 # iter = 37000  time[fs]=37.00000
   C -0.253932556E+01  0.135074840E-02 -0.281244210E-01
   C  0.252363940E+01  0.150328083E+00 -0.125458551E+00
   H -0.140518807E+02  0.139286255E-01  0.672494659E+00
   H  0.136593906E+02 -0.137188783E+01  0.124522486E+01
     4
 # iter = 37500  time[fs]=37.50000
   C -0.261667026E+01  0.114706023E-02 -0.285873192E-01
   C  0.259953014E+01  0.155634691E+00 -0.128962501E+00
   H -0.144414984E+02  0.150098680E-01  0.691206335E+00
   H  0.140303285E+02 -0.140914628E+01  0.128038785E+01
     4
 # iter = 38000  time[fs]=38.00000
   C -0.269448839E+01  0.930484899E-03 -0.290450219E-01
   C  0.267589137E+01  0.160962529E+00 -0.132482787E+00
   H -0.148319420E+02  0.160916767E-01  0.709961451E+00
   H  0.144021275E+02 -0.144650540E+01  0.131564108E+01
     4
 # iter = 38500  time[fs]=38.50000
   C -0.277275300E+01  0.701671038E-03 -0.294978394E-01
   C  0.275269622E+01  0.166310531E+00 -0.136018542E+00
   H -0.152231689E+02  0.171740580E-01  0.728757777E+00
   H  0.147747441E+02 -0.148396022E+01  0.135098011E+01
     4
 # iter = 39000  time[fs]=39.00000
   C -0.285143922E+01  0.461223721E-03 -0.299460571E-01
   C  0.282991992E+01  0.171677708E+00 -0.139568968E+00
   H -0.156151398E+02  0.182570158E-01  0.747593250E+00
   H  0.151481379E+02 -0.152150610E+01  0.138640084E+01
     4
 # iter = 39500  time[fs]=39.50000
   C -0.293052408E+01  0.209707884E-03 -0.303899385E-01
   C  0.290753959E+01  0.177063136E+00 -0.143133320E+00
   H -0.160078182E+02  0.193405516E-01  0.766465958E+00
   H  0.155222713E+02 -0.155913874E+01  0.142189942E+01
     4
 # iter = 40000  time[fs]=40.00000
   C -0.300998634E+01 -0.523485388E-04 -0.308297267E-01
   C  0.298553405E+01  0.182465952E+00 -0.146710910E+00
   H -0.164011701E+02  0.204246652E-01  0.785374120E+00
   H  0.158971095E+02 -0.159685414E+01  0.145747228E+01
     4
 # iter = 40500  time[fs]=40.50000
   C -0.308980631E+01 -0.324451727E-03 -0.312656468E-01
   C  0.306388370E+01  0.187885351E+00 -0.150301097E+00
   H -0.167951640E+02  0.215093548E-01  0.804316081E+00
   H  0.162726197E+02 -0.163464855E+01  0.149311609E+01
     4
 # iter = 41000  time[fs]=41.00000
   C -0.316996570E+01 -0.606139343E-03 -0.316979070E-01
   C  0.314257035E+01  0.193320579E+00 -0.153903283E+00
   H -0.171897702E+02  0.225946173E-01  0.823290296E+00
   H  0.166487717E+02 -0.167251846E+01  0.152882772E+01
     4
 # iter = 41500  time[fs]=41.50000
   C -0.325044755E+01 -0.896978113E-03 -0.321267006E-01
   C  0.322157708E+01  0.198770931E+00 -0.157516912E+00
   H -0.175849615E+02  0.236804487E-01  0.842295324E+00
   H  0.170255369E+02 -0.171046062E+01  0.156460425E+01
     4
 # iter = 42000  time[fs]=42.00000
   C -0.333123603E+01 -0.119656162E-02 -0.325522071E-01
   C  0.330088816E+01  0.204235746E+00 -0.161141464E+00
   H -0.179807119E+02  0.247668438E-01  0.861329815E+00
   H  0.174028888E+02 -0.174847196E+01  0.160044294E+01
     4
 # iter = 42500  time[fs]=42.50000
   C -0.341231644E+01 -0.150450826E-02 -0.329745933E-01
   C  0.338048895E+01  0.209714401E+00 -0.164776453E+00
   H -0.183769974E+02  0.258537969E-01  0.880392507E+00
   H  0.177808023E+02 -0.178654959E+01  0.163634123E+01
     4
 # iter = 43000  time[fs]=43.00000
   C -0.349367502E+01 -0.182045944E-02 -0.333940146E-01
   C  0.346036577E+01  0.215206315E+00 -0.168421422E+00
   H -0.187737954E+02  0.269413016E-01  0.899482215E+00
   H  0.181592542E+02 -0.182469081E+01  0.167229670E+01
     4
 # iter = 43500  time[fs]=43.50000
   C -0.357529893E+01 -0.214407782E-02 -0.338106159E-01
   C  0.354050584E+01  0.220710938E+00 -0.172075945E+00
   H -0.191710848E+02  0.280293512E-01  0.918597826E+00
   H  0.185382223E+02 -0.186289308E+01  0.170830706E+01
     4
 # iter = 44000  time[fs]=44.00000
   C -0.365717617E+01 -0.247504578E-02 -0.342245322E-01
   C  0.362089722E+01  0.226227753E+00 -0.175739621E+00
   H -0.195688454E+02  0.291179383E-01  0.937738296E+00
   H  0.189176860E+02 -0.190115400E+01  0.174437019E+01
     4
 # iter = 44500  time[fs]=44.50000
   C -0.373929549E+01 -0.281306405E-02 -0.346358900E-01
   C  0.370152871E+01  0.231756274E+00 -0.179412073E+00
   H -0.199670587E+02  0.302070554E-01  0.956902639E+00
   H  0.192976257E+02 -0.193947132E+01  0.178048405E+01
     4
 # iter = 45000  time[fs]=45.00000
   C -0.382164633E+01 -0.315785029E-02 -0.350448074E-01
   C  0.378238984E+01  0.237296041E+00 -0.183092947E+00
   H -0.203657068E+02  0.312966948E-01  0.976089927E+00
   H  0.196780230E+02 -0.197784289E+01  0.181664673E+01
     4
 # iter = 45500  time[fs]=45.50000
   C -0.390421879E+01 -0.350913802E-02 -0.354513952E-01
   C  0.386347075E+01  0.242846620E+00 -0.186781908E+00
   H -0.207647731E+02  0.323868486E-01  0.995299287E+00
   H  0.200588606E+02 -0.201626672E+01  0.185285645E+01
     4
 # iter = 46000  time[fs]=46.00000
   C -0.398700357E+01 -0.386667542E-02 -0.358557571E-01
   C  0.394476219E+01  0.248407602E+00 -0.190478642E+00
   H -0.211642419E+02  0.334775086E-01  0.101452989E+01
   H  0.204401221E+02 -0.205474088E+01  0.188911147E+01
     4
 # iter = 46500  time[fs]=46.50000
   C -0.406999191E+01 -0.423022438E-02 -0.362579907E-01
   C  0.402625546E+01  0.253978599E+00 -0.194182851E+00
   H -0.215640982E+02  0.345686668E-01  0.103378096E+01
   H  0.208217919E+02 -0.209326358E+01  0.192541020E+01
     4
 # iter = 47000  time[fs]=47.00000
   C -0.415317556E+01 -0.459955951E-02 -0.366581873E-01
   C  0.410794236E+01  0.259559243E+00 -0.197894254E+00
   H -0.219643280E+02  0.356603149E-01  0.105305175E+01
   H  0.212038554E+02 -0.213183310E+01  0.196175110E+01
     4
 # iter = 47500  time[fs]=47.50000
   C -0.423654675E+01 -0.497446737E-02 -0.370564333E-01
   C  0.418981516E+01  0.265149186E+00 -0.201612586E+00
   H -0.223649178E+02  0.367524448E-01  0.107234156E+01
   H  0.215862985E+02 -0.217044782E+01  0.199813270E+01
     4
 # iter = 48000  time[fs]=48.00000
   C -0.432009815E+01 -0.535474558E-02 -0.374528095E-01
   C  0.427186659E+01  0.270748099E+00 -0.205337595E+00
   H -0.227658551E+02  0.378450483E-01  0.109164973E+01
   H  0.219691081E+02 -0.220910621E+01  0.203455364E+01
     4
 # iter = 48500  time[fs]=48.50000
   C -0.440382281E+01 -0.574020219E-02 -0.378473926E-01
   C  0.435408974E+01  0.276355668E+00 -0.209069042E+00
   H -0.231671279E+02  0.389381174E-01  0.111097562E+01
   H  0.223522716E+02 -0.224780680E+01  0.207101260E+01
     4
 # iter = 49000  time[fs]=49.00000
   C -0.448771420E+01 -0.613065492E-02 -0.382402544E-01
   C  0.443647812E+01  0.281971596E+00 -0.212806703E+00
   H -0.235687247E+02  0.400316438E-01  0.113031865E+01
   H  0.227357772E+02 -0.228654819E+01  0.210750832E+01
     4
 # iter = 49500  time[fs]=49.50000
   C -0.457176611E+01 -0.652593062E-02 -0.386314631E-01
   C  0.451902557E+01  0.287595599E+00 -0.216550361E+00
   H -0.239706347E+02  0.411256196E-01  0.114967823E+01
   H  0.231196134E+02 -0.232532907E+01  0.214403963E+01
     4
 # iter = 50000  time[fs]=50.00000
   C -0.465597266E+01 -0.692586462E-02 -0.390210831E-01
   C  0.460172624E+01  0.293227409E+00 -0.220299814E+00
   H -0.243728476E+02  0.422200370E-01  0.116905383E+01
   H  0.235037694E+02 -0.236414816E+01  0.218060538E+01
     4
 # iter = 50500  time[fs]=50.50000
   C -0.474032830E+01 -0.733030026E-02 -0.394091750E-01
   C  0.468457462E+01  0.298866769E+00 -0.224054867E+00
   H -0.247753535E+02  0.433148881E-01  0.118844494E+01
   H  0.238882351E+02 -0.240300428E+01  0.221720450E+01
     4
 # iter = 51000  time[fs]=51.00000
   C -0.482482774E+01 -0.773908838E-02 -0.397957966E-01
   C  0.476756547E+01  0.304513435E+00 -0.227815336E+00
   H -0.251781432E+02  0.444101652E-01  0.120785105E+01
   H  0.242730005E+02 -0.244189626E+01  0.225383596E+01
     4
 # iter = 51500  time[fs]=51.50000
   C -0.490946596E+01 -0.815208684E-02 -0.401810023E-01
   C  0.485069379E+01  0.310167175E+00 -0.231581045E+00
   H -0.255812077E+02  0.455058608E-01  0.122727171E+01
   H  0.246580564E+02 -0.248082302E+01  0.229049877E+01
     4
 # iter = 52000  time[fs]=52.00000
   C -0.499423820E+01 -0.856916015E-02 -0.405648439E-01
   C  0.493395487E+01  0.315827766E+00 -0.235351828E+00
   H -0.259845384E+02  0.466019673E-01  0.124670646E+01
   H  0.250433938E+02 -0.251978350E+01  0.232719200E+01
     4
 # iter = 52500  time[fs]=52.50000
   C -0.507913994E+01 -0.899017902E-02 -0.409473705E-01
   C  0.501734421E+01  0.321494996E+00 -0.239127524E+00
   H -0.263881274E+02  0.476984775E-01  0.126615488E+01
   H  0.254290043E+02 -0.255877672E+01  0.236391474E+01
     4
 # iter = 53000  time[fs]=53.00000
   C -0.516416685E+01 -0.941502003E-02 -0.413286286E-01
   C  0.510085752E+01  0.327168663E+00 -0.242907982E+00
   H -0.267919668E+02  0.487953841E-01  0.128561656E+01
   H  0.258148795E+02 -0.259780170E+01  0.240066613E+01
     4
 # iter = 53500  time[fs]=53.50000
   C -0.524931483E+01 -0.984356529E-02 -0.417086626E-01
   C  0.518449072E+01  0.332848572E+00 -0.246693055E+00
   H -0.271960492E+02  0.498926801E-01  0.130509111E+01
   H  0.262010118E+02 -0.263685754E+01  0.243744535E+01
     4
 # iter = 54000  time[fs]=54.00000
   C -0.533457997E+01 -0.102757021E-01 -0.420875146E-01
   C  0.526823995E+01  0.338534540E+00 -0.250482605E+00
   H -0.276003674E+02  0.509903586E-01  0.132457815E+01
   H  0.265873938E+02 -0.267594335E+01  0.247425162E+01
     4
 # iter = 54500  time[fs]=54.50000
   C -0.541995853E+01 -0.107113227E-01 -0.424652246E-01
   C  0.535210148E+01  0.344226388E+00 -0.254276499E+00
   H -0.280049148E+02  0.520884127E-01  0.134407733E+01
   H  0.269740181E+02 -0.271505830E+01  0.251108417E+01
     4
 # iter = 55000  time[fs]=55.00000
   C -0.550544696E+01 -0.111503240E-01 -0.428418309E-01
   C  0.543607179E+01  0.349923947E+00 -0.258074610E+00
   H -0.284096848E+02  0.531868357E-01  0.136358831E+01
   H  0.273608782E+02 -0.275420159E+01  0.254794229E+01
     4
 # iter = 55500  time[fs]=55.50000
   C -0.559104184E+01 -0.115926071E-01 -0.432173698E-01
   C  0.552014751E+01  0.355627054E+00 -0.261876817E+00
   H -0.288146712E+02  0.542856212E-01  0.138311076E+01
   H  0.277479672E+02 -0.279337243E+01  0.258482527E+01
     4
 # iter = 56000  time[fs]=56.00000
   C -0.567673994E+01 -0.120380775E-01 -0.435918760E-01
   C  0.560432540E+01  0.361335553E+00 -0.265683002E+00
   H -0.292198679E+02  0.553847627E-01  0.140264436E+01
   H  0.281352791E+02 -0.283257008E+01  0.262173245E+01
     4
 # iter = 56500  time[fs]=56.50000
   C -0.576253814E+01 -0.124866446E-01 -0.439653826E-01
   C  0.568860239E+01  0.367049295E+00 -0.269493053E+00
   H -0.296252693E+02  0.564842540E-01  0.142218881E+01
   H  0.285228077E+02 -0.287179384E+01  0.265866318E+01
     4
 # iter = 57000  time[fs]=57.00000
   C -0.584843348E+01 -0.129382213E-01 -0.443379211E-01
   C  0.577297553E+01  0.372768136E+00 -0.273306865E+00
   H -0.300308698E+02  0.575840889E-01  0.144174381E+01
   H  0.289105472E+02 -0.291104302E+01  0.269561686E+01
     4
 # iter = 57500  time[fs]=57.50000
   C -0.593442310E+01 -0.133927241E-01 -0.447095219E-01
   C  0.585744199E+01  0.378491939E+00 -0.277124333E+00
   H -0.304366641E+02  0.586842615E-01  0.146130910E+01
   H  0.292984920E+02 -0.295031695E+01  0.273259289E+01
     4
 # iter = 58000  time[fs]=58.00000
   C -0.602050427E+01 -0.138500731E-01 -0.450802138E-01
   C  0.594199907E+01  0.384220570E+00 -0.280945360E+00
   H -0.308426472E+02  0.597847658E-01  0.148088441E+01
   H  0.296866369E+02 -0.298961501E+01  0.276959069E+01
     4
 # iter = 58500  time[fs]=58.50000
   C -0.610667440E+01 -0.143101911E-01 -0.454500243E-01
   C  0.602664419E+01  0.389953902E+00 -0.284769850E+00
   H -0.312488142E+02  0.608855961E-01  0.150046947E+01
   H  0.300749766E+02 -0.302893658E+01  0.280660972E+01
     4
 # iter = 59000  time[fs]=59.00000
   C -0.619293097E+01 -0.147730044E-01 -0.458189798E-01
   C  0.611137486E+01  0.395691814E+00 -0.288597712E+00
   H -0.316551603E+02  0.619867469E-01  0.152006403E+01
   H  0.304635062E+02 -0.306828108E+01  0.284364945E+01
     4
 # iter = 59500  time[fs]=59.50000
   C -0.627927157E+01 -0.152384417E-01 -0.461871058E-01
   C  0.619618869E+01  0.401434187E+00 -0.292428859E+00
   H -0.320616810E+02  0.630882125E-01  0.153966787E+01
   H  0.308522209E+02 -0.310764795E+01  0.288070937E+01
     4
 # iter = 60000  time[fs]=60.00000
   C -0.636569391E+01 -0.157064347E-01 -0.465544263E-01
   C  0.628108340E+01  0.407180909E+00 -0.296263206E+00
   H -0.324683721E+02  0.641899876E-01  0.155928074E+01
   H  0.312411161E+02 -0.314703663E+01  0.291778900E+01
     4
 # iter = 60500  time[fs]=60.50000
   C -0.645219577E+01 -0.161769175E-01 -0.469209647E-01
   C  0.636605679E+01  0.412931869E+00 -0.300100672E+00
   H -0.328752291E+02  0.652920670E-01  0.157890243E+01
   H  0.316301875E+02 -0.318644661E+01  0.295488785E+01
     4
 # iter = 61000  time[fs]=61.00000
   C -0.653877502E+01 -0.166498269E-01 -0.472867432E-01
   C  0.645110676E+01  0.418686963E+00 -0.303941180E+00
   H -0.332822483E+02  0.663944454E-01  0.159853273E+01
   H  0.320194306E+02 -0.322587737E+01  0.299200547E+01
     4
 # iter = 61500  time[fs]=61.50000
   C -0.662542961E+01 -0.171251018E-01 -0.476517832E-01
   C  0.653623127E+01  0.424446089E+00 -0.307784653E+00
   H -0.336894255E+02  0.674971180E-01  0.161817142E+01
   H  0.324088414E+02 -0.326532842E+01  0.302914142E+01
     4
 # iter = 62000  time[fs]=62.00000
   C -0.671215758E+01 -0.176026834E-01 -0.480161052E-01
   C  0.662142838E+01  0.430209149E+00 -0.311631020E+00
   H -0.340967571E+02  0.686000797E-01  0.163781831E+01
   H  0.327984160E+02 -0.330479930E+01  0.306629527E+01
     4
 # iter = 62500  time[fs]=62.50000
   C -0.679895703E+01 -0.180825149E-01 -0.483797289E-01
   C  0.670669620E+01  0.435976050E+00 -0.315480210E+00
   H -0.345042394E+02  0.697033258E-01  0.165747322E+01
   H  0.331881505E+02 -0.334428955E+01  0.310346662E+01
     4
 # iter = 63000  time[fs]=63.00000
   C -0.688582614E+01 -0.185645419E-01 -0.487426733E-01
   C  0.679203294E+01  0.441746701E+00 -0.319332155E+00
   H -0.349118689E+02  0.708068515E-01  0.167713594E+01
   H  0.335780411E+02 -0.338379872E+01  0.314065506E+01
     4
 # iter = 63500  time[fs]=63.50000
   C -0.697276315E+01 -0.190487114E-01 -0.491049566E-01
   C  0.687743685E+01  0.447521013E+00 -0.323186792E+00
   H -0.353196423E+02  0.719106523E-01  0.169680631E+01
   H  0.339680843E+02 -0.342332640E+01  0.317786022E+01
     4
 # iter = 64000  time[fs]=64.00000
   C -0.705976638E+01 -0.195349727E-01 -0.494665963E-01
   C  0.696290626E+01  0.453298901E+00 -0.327044057E+00
   H -0.357275562E+02  0.730147236E-01  0.171648414E+01
   H  0.343582767E+02 -0.346287216E+01  0.321508172E+01
     4
 # iter = 64500  time[fs]=64.50000
   C -0.714683419E+01 -0.200232765E-01 -0.498276092E-01
   C  0.704843955E+01  0.459080284E+00 -0.330903889E+00
   H -0.361356075E+02  0.741190611E-01  0.173616928E+01
   H  0.347486150E+02 -0.350243562E+01  0.325231920E+01
     4
 # iter = 65000  time[fs]=65.00000
   C -0.723396502E+01 -0.205135755E-01 -0.501880115E-01
   C  0.713403516E+01  0.464865083E+00 -0.334766230E+00
   H -0.365437931E+02  0.752236604E-01  0.175586157E+01
   H  0.351390958E+02 -0.354201639E+01  0.328957232E+01
     4
 # iter = 65500  time[fs]=65.50000
   C -0.732115734E+01 -0.210058237E-01 -0.505478190E-01
   C  0.721969160E+01  0.470653221E+00 -0.338631022E+00
   H -0.369521101E+02  0.763285174E-01  0.177556084E+01
   H  0.355297160E+02 -0.358161408E+01  0.332684074E+01
     4
 # iter = 66000  time[fs]=66.00000
   C -0.740840969E+01 -0.214999769E-01 -0.509070466E-01
   C  0.730540741E+01  0.476444623E+00 -0.342498212E+00
   H -0.373605556E+02  0.774336279E-01  0.179526694E+01
   H  0.359204727E+02 -0.362122835E+01  0.336412413E+01
     4
 # iter = 66500  time[fs]=66.50000
   C -0.749572066E+01 -0.219959920E-01 -0.512657088E-01
   C  0.739118119E+01  0.482239219E+00 -0.346367747E+00
   H -0.377691269E+02  0.785389879E-01  0.181497974E+01
   H  0.363113628E+02 -0.366085885E+01  0.340142218E+01
     4
 # iter = 67000  time[fs]=67.00000
   C -0.758308888E+01 -0.224938279E-01 -0.516238197E-01
   C  0.747701160E+01  0.488036938E+00 -0.350239574E+00
   H -0.381778212E+02  0.796445934E-01  0.183469908E+01
   H  0.367023837E+02 -0.370050522E+01  0.343873458E+01
     4
 # iter = 67500  time[fs]=67.50000
   C -0.767051304E+01 -0.229934441E-01 -0.519813928E-01
   C  0.756289731E+01  0.493837714E+00 -0.354113645E+00
   H -0.385866360E+02  0.807504407E-01  0.185442483E+01
   H  0.370935324E+02 -0.374016716E+01  0.347606104E+01
     4
 # iter = 68000  time[fs]=68.00000
   C -0.775799186E+01 -0.234948021E-01 -0.523384409E-01
   C  0.764883709E+01  0.499641482E+00 -0.357989911E+00
   H -0.389955687E+02  0.818565260E-01  0.187415685E+01
   H  0.374848064E+02 -0.377984433E+01  0.351340128E+01
     4
 # iter = 68500  time[fs]=68.50000
   C -0.784552411E+01 -0.239978641E-01 -0.526949768E-01
   C  0.773482969E+01  0.505448178E+00 -0.361868326E+00
   H -0.394046170E+02  0.829628455E-01  0.189389502E+01
   H  0.378762030E+02 -0.381953643E+01  0.355075500E+01
     4
 # iter = 69000  time[fs]=69.00000
   C -0.793310860E+01 -0.245025938E-01 -0.530510126E-01
   C  0.782087395E+01  0.511257742E+00 -0.365748845E+00
   H -0.398137783E+02  0.840693956E-01  0.191363922E+01
   H  0.382677198E+02 -0.385924315E+01  0.358812194E+01
     4
 # iter = 69500  time[fs]=69.50000
   C -0.802074418E+01 -0.250089559E-01 -0.534065600E-01
   C  0.790696872E+01  0.517070114E+00 -0.369631424E+00
   H -0.402230506E+02  0.851761729E-01  0.193338931E+01
   H  0.386593544E+02 -0.389896422E+01  0.362550185E+01
     4
 # iter = 70000  time[fs]=70.00000
   C -0.810842972E+01 -0.255169162E-01 -0.537616303E-01
   C  0.799311289E+01  0.522885237E+00 -0.373516020E+00
   H -0.406324314E+02  0.862831738E-01  0.195314519E+01
   H  0.390511043E+02 -0.393869934E+01  0.366289446E+01
     4
 # iter = 70500  time[fs]=70.50000
   C -0.819616416E+01 -0.260264415E-01 -0.541162344E-01
   C  0.807930540E+01  0.528703056E+00 -0.377402594E+00
   H -0.410419187E+02  0.873903951E-01  0.197290674E+01
   H  0.394429674E+02 -0.397844825E+01  0.370029952E+01
     4
 # iter = 71000  time[fs]=71.00000
   C -0.828394644E+01 -0.265374998E-01 -0.544703831E-01
   C  0.816554521E+01  0.534523515E+00 -0.381291104E+00
   H -0.414515103E+02  0.884978333E-01  0.199267384E+01
   H  0.398349413E+02 -0.401821067E+01  0.373771681E+01
     4
 # iter = 71500  time[fs]=71.50000
   C -0.837177554E+01 -0.270500598E-01 -0.548240864E-01
   C  0.825183132E+01  0.540346563E+00 -0.385181512E+00
   H -0.418612043E+02  0.896054853E-01  0.201244639E+01
   H  0.402270239E+02 -0.405798635E+01  0.377514608E+01
     4
 # iter = 72000  time[fs]=72.00000
   C -0.845965050E+01 -0.275640913E-01 -0.551773544E-01
   C  0.833816275E+01  0.546172150E+00 -0.389073781E+00
   H -0.422709987E+02  0.907133478E-01  0.203222429E+01
   H  0.406192131E+02 -0.409777503E+01  0.381258711E+01
     4
 # iter = 72500  time[fs]=72.50000
   C -0.854757035E+01 -0.280795649E-01 -0.555301966E-01
   C  0.842453857E+01  0.552000224E+00 -0.392967874E+00
   H -0.426808914E+02  0.918214178E-01  0.205200744E+01
   H  0.410115070E+02 -0.413757648E+01  0.385003967E+01
     4
 # iter = 73000  time[fs]=73.00000
   C -0.863553417E+01 -0.285964522E-01 -0.558826224E-01
   C  0.851095785E+01  0.557830739E+00 -0.396863756E+00
   H -0.430908807E+02  0.929296923E-01  0.207179573E+01
   H  0.414039034E+02 -0.417739046E+01  0.388750356E+01
     4
 # iter = 73500  time[fs]=73.50000
   C -0.872354106E+01 -0.291147254E-01 -0.562346407E-01
   C  0.859741971E+01  0.563663647E+00 -0.400761392E+00
   H -0.435009648E+02  0.940381682E-01  0.209158906E+01
   H  0.417964005E+02 -0.421721673E+01  0.392497856E+01
     4
 # iter = 74000  time[fs]=74.00000
   C -0.881159016E+01 -0.296343577E-01 -0.565862603E-01
   C  0.868392329E+01  0.569498904E+00 -0.404660750E+00
   H -0.439111419E+02  0.951468426E-01  0.211138736E+01
   H  0.421889965E+02 -0.425705506E+01  0.396246448E+01
     4
 # iter = 74500  time[fs]=74.50000
   C -0.889968063E+01 -0.301553229E-01 -0.569374895E-01
   C  0.877046775E+01  0.575336466E+00 -0.408561796E+00
   H -0.443214102E+02  0.962557127E-01  0.213119051E+01
   H  0.425816895E+02 -0.429690525E+01  0.399996111E+01
     4
 # iter = 75000  time[fs]=75.00000
   C -0.898781164E+01 -0.306775957E-01 -0.572883367E-01
   C  0.885705229E+01  0.581176288E+00 -0.412464499E+00
   H -0.447317681E+02  0.973647757E-01  0.215099845E+01
   H  0.429744777E+02 -0.433676708E+01  0.403746827E+01
     4
 # iter = 75500  time[fs]=75.50000
   C -0.907598239E+01 -0.312011514E-01 -0.576388098E-01
   C  0.894367612E+01  0.587018330E+00 -0.416368828E+00
   H -0.451422141E+02  0.984740289E-01  0.217081107E+01
   H  0.433673594E+02 -0.437664034E+01  0.407498576E+01
     4
 # iter = 76000  time[fs]=76.00000
   C -0.916419213E+01 -0.317259659E-01 -0.579889164E-01
   C  0.903033847E+01  0.592862552E+00 -0.420274754E+00
   H -0.455527464E+02  0.995834695E-01  0.219062830E+01
   H  0.437603330E+02 -0.441652483E+01  0.411251340E+01
     4
 # iter = 76500  time[fs]=76.50000
   C -0.925244009E+01 -0.322520160E-01 -0.583386640E-01
   C  0.911703860E+01  0.598708913E+00 -0.424182248E+00
   H -0.459633635E+02  0.100693095E+00  0.221045006E+01
   H  0.441533968E+02 -0.445642036E+01  0.415005103E+01
     4
 # iter = 77000  time[fs]=77.00000
   C -0.934072554E+01 -0.327792789E-01 -0.586880600E-01
   C  0.920377579E+01  0.604557375E+00 -0.428091281E+00
   H -0.463740641E+02  0.101802903E+00  0.223027626E+01
   H  0.445465492E+02 -0.449632672E+01  0.418759846E+01
     4
 # iter = 77500  time[fs]=77.50000
   C -0.942904779E+01 -0.333077325E-01 -0.590371114E-01
   C  0.929054933E+01  0.610407901E+00 -0.432001825E+00
   H -0.467848465E+02  0.102912890E+00  0.225010682E+01
   H  0.449397887E+02 -0.453624375E+01  0.422515552E+01
     4
 # iter = 78000  time[fs]=78.00000
   C -0.951740613E+01 -0.338373553E-01 -0.593858249E-01
   C  0.937735855E+01  0.616260454E+00 -0.435913855E+00
   H -0.471957094E+02  0.104023055E+00  0.226994169E+01
   H  0.453331137E+02 -0.457617125E+01  0.426272206E+01
     4
 # iter = 78500  time[fs]=78.50000
   C -0.960579990E+01 -0.343681264E-01 -0.597342073E-01
   C  0.946420278E+01  0.622114999E+00 -0.439827343E+00
   H -0.476066514E+02  0.105133394E+00  0.228978077E+01
   H  0.457265229E+02 -0.461610904E+01  0.430029791E+01
     4
 # iter = 79000  time[fs]=79.00000
   C -0.969422845E+01 -0.349000255E-01 -0.600822650E-01
   C  0.955108138E+01  0.627971502E+00 -0.443742264E+00
   H -0.480176712E+02  0.106243906E+00  0.230962399E+01
   H  0.461200147E+02 -0.465605696E+01  0.433788292E+01
     4
 # iter = 79500  time[fs]=79.50000
   C -0.978269113E+01 -0.354330325E-01 -0.604300043E-01
   C  0.963799371E+01  0.633829928E+00 -0.447658595E+00
   H -0.484287674E+02  0.107354588E+00  0.232947130E+01
   H  0.465135878E+02 -0.469601484E+01  0.437547693E+01
     4
 # iter = 80000  time[fs]=80.00000
   C -0.987118734E+01 -0.359671283E-01 -0.607774313E-01
   C  0.972493917E+01  0.639690245E+00 -0.451576310E+00
   H -0.488399387E+02  0.108465438E+00  0.234932262E+01
   H  0.469072408E+02 -0.473598251E+01  0.441307980E+01
