     4
 # iter = 25000  time[fs]=25.00000
   C -0.106309910E+01  0.287682965E-01  0.229101541E-02
   C  0.962445635E+00 -0.141011749E-02  0.971330272E-02
   H -0.530721002E+01 -0.818860803E+00 -0.516178546E+00
   H  0.525973270E+01  0.575749792E+00 -0.244141980E+00
     4
 # iter = 25500  time[fs]=25.50000
   C -0.111457647E+01  0.322425565E-01  0.482745468E-02
   C  0.100347444E+01 -0.331720693E-02  0.114930003E-01
   H -0.564091723E+01 -0.871097954E+00 -0.546893443E+00
   H  0.557747837E+01  0.613170953E+00 -0.258457312E+00
     4
 # iter = 26000  time[fs]=26.00000
   C -0.116887509E+01  0.358188268E-01  0.740108695E-02
   C  0.104736353E+01 -0.529236123E-02  0.133063909E-01
   H -0.598024992E+01 -0.924343794E+00 -0.578215553E+00
   H  0.590038095E+01  0.651193457E+00 -0.273016063E+00
     4
 # iter = 26500  time[fs]=26.50000
   C -0.122575705E+01  0.394914124E-01  0.100087480E-01
   C  0.109386902E+01 -0.733404401E-02  0.151486864E-01
   H -0.632457479E+01 -0.978484314E+00 -0.610075611E+00
   H  0.622787924E+01  0.689753200E+00 -0.287792071E+00
     4
 # iter = 27000  time[fs]=27.00000
   C -0.128500178E+01  0.432548528E-01  0.126477221E-01
   C  0.114276544E+01 -0.944025887E-02  0.170158699E-01
   H -0.667335405E+01 -0.103342313E+01 -0.642415148E+00
   H  0.655949375E+01  0.728795365E+00 -0.302763013E+00
     4
 # iter = 27500  time[fs]=27.50000
   C -0.134640660E+01  0.471039106E-01  0.153156387E-01
   C  0.119384618E+01 -0.116086794E-01  0.189045695E-01
   H -0.702612805E+01 -0.108907813E+01 -0.675184426E+00
   H  0.689481240E+01  0.768272779E+00 -0.317909716E+00
     4
 # iter = 28000  time[fs]=28.00000
   C -0.140978659E+01  0.510335775E-01  0.180104000E-01
   C  0.124692305E+01 -0.138367636E-01  0.208119505E-01
   H -0.738250148E+01 -0.114537889E+01 -0.708340832E+00
   H  0.723347897E+01  0.808144601E+00 -0.333215603E+00
     4
 # iter = 28500  time[fs]=28.50000
   C -0.147497381E+01  0.550390840E-01  0.207301303E-01
   C  0.130182540E+01 -0.161218481E-01  0.227356242E-01
   H -0.774213239E+01 -0.120226458E+01 -0.741847611E+00
   H  0.757518388E+01  0.848375281E+00 -0.348666260E+00
     4
 # iter = 29000  time[fs]=29.00000
   C -0.154181623E+01  0.591159099E-01  0.234731394E-01
   C  0.135839897E+01 -0.184612231E-01  0.246735727E-01
   H -0.810472336E+01 -0.125968236E+01 -0.775672866E+00
   H  0.791965674E+01  0.888933706E+00 -0.364249082E+00
     4
 # iter = 29500  time[fs]=29.50000
   C -0.161017655E+01  0.632597888E-01  0.262378947E-01
   C  0.141650454E+01 -0.208521894E-01  0.266240853E-01
   H -0.847001431E+01 -0.131758606E+01 -0.809788755E+00
   H  0.826666017E+01  0.929792514E+00 -0.379952995E+00
     4
 # iter = 30000  time[fs]=30.00000
   C -0.167993085E+01  0.674667096E-01  0.290230004E-01
   C  0.147601663E+01 -0.232921006E-01  0.285857068E-01
   H -0.883777676E+01 -0.137593514E+01 -0.844170847E+00
   H  0.861598490E+01  0.970927529E+00 -0.395768217E+00
     4
 # iter = 30500  time[fs]=30.50000
   C -0.175096740E+01  0.717329127E-01  0.318271807E-01
   C  0.153682212E+01 -0.257783917E-01  0.305571948E-01
   H -0.920780902E+01 -0.143469379E+01 -0.878797596E+00
   H  0.896744560E+01  0.101231730E+01 -0.411686074E+00
     4
 # iter = 31000  time[fs]=31.00000
   C -0.182318544E+01  0.760548832E-01  0.346492662E-01
   C  0.159881907E+01 -0.283085999E-01  0.325374841E-01
   H -0.957993231E+01 -0.149383030E+01 -0.913649913E+00
   H  0.932087748E+01  0.105394271E+01 -0.427698841E+00
     4
 # iter = 31500  time[fs]=31.50000
   C -0.189649400E+01  0.804293413E-01  0.374881827E-01
   C  0.166191553E+01 -0.308803756E-01  0.345256578E-01
   H -0.995398746E+01 -0.155331640E+01 -0.948710812E+00
   H  0.967613346E+01  0.109578668E+01 -0.443799611E+00
     4
 # iter = 32000  time[fs]=32.00000
   C -0.197081093E+01  0.848532313E-01  0.403429415E-01
   C  0.172602848E+01 -0.334914898E-01  0.365209234E-01
   H -0.103298323E+02 -0.161312681E+01 -0.983965118E+00
   H  0.100330818E+02  0.113783384E+01 -0.459982185E+00
     4
 # iter = 32500  time[fs]=32.50000
   C -0.204606195E+01  0.893237088E-01  0.432126308E-01
   C  0.179108286E+01 -0.361398358E-01  0.385225934E-01
   H -0.107073393E+02 -0.167323888E+01 -0.101939922E+01
   H  0.103916041E+02  0.118007039E+01 -0.476240982E+00
     4
 # iter = 33000  time[fs]=33.00000
   C -0.212217979E+01  0.938381280E-01  0.460964091E-01
   C  0.185701076E+01 -0.388234285E-01  0.405300686E-01
   H -0.110863937E+02 -0.173363218E+01 -0.105500087E+01
   H  0.107515935E+02  0.122248383E+01 -0.492570959E+00
     4
 # iter = 33500  time[fs]=33.50000
   C -0.219910345E+01  0.983940285E-01  0.489934978E-01
   C  0.192375057E+01 -0.415404018E-01  0.425428249E-01
   H -0.114668919E+02 -0.179428827E+01 -0.109075901E+01
   H  0.111129534E+02  0.126506284E+01 -0.508967548E+00
     4
 # iter = 34000  time[fs]=34.00000
   C -0.227677752E+01  0.102989123E+00  0.519031762E-01
   C  0.199124640E+01 -0.442890040E-01  0.445604020E-01
   H -0.118487401E+02 -0.185519041E+01 -0.112666362E+01
   H  0.114755963E+02  0.130779714E+01 -0.525426596E+00
     4
 # iter = 34500  time[fs]=34.50000
   C -0.235515161E+01  0.107621283E+00  0.548247762E-01
   C  0.205944737E+01 -0.470675928E-01  0.465823941E-01
   H -0.122318532E+02 -0.191632341E+01 -0.116270558E+01
   H  0.118394423E+02  0.135067733E+01 -0.541944319E+00
     4
 # iter = 35000  time[fs]=35.00000
   C -0.243417977E+01  0.112288530E+00  0.577576774E-01
   C  0.212830715E+01 -0.498746299E-01  0.486084423E-01
   H -0.126161536E+02 -0.197767341E+01 -0.119887662E+01
   H  0.122044189E+02  0.139369487E+01 -0.558517261E+00
     4
 # iter = 35500  time[fs]=35.50000
   C -0.251382008E+01  0.116989022E+00  0.607013033E-01
   C  0.219778346E+01 -0.527086742E-01  0.506382277E-01
   H -0.130015705E+02 -0.203922774E+01 -0.123516915E+01
   H  0.125704595E+02  0.143684189E+01 -0.575142254E+00
     4
 # iter = 36000  time[fs]=36.00000
   C -0.259403420E+01  0.121721044E+00  0.636551175E-01
   C  0.226783762E+01 -0.555683767E-01  0.526714662E-01
   H -0.133880390E+02 -0.210097480E+01 -0.127157623E+01
   H  0.129375032E+02  0.148011118E+01 -0.591816394E+00
     4
 # iter = 36500  time[fs]=36.50000
   C -0.267478701E+01  0.126482996E+00  0.666186202E-01
   C  0.233843423E+01 -0.584524743E-01  0.547079040E-01
   H -0.137754998E+02 -0.216290394E+01 -0.130809149E+01
   H  0.133054940E+02  0.152349612E+01 -0.608537004E+00
     4
 # iter = 37000  time[fs]=37.00000
   C -0.275604630E+01  0.131273388E+00  0.695913453E-01
   C  0.240954081E+01 -0.613597838E-01  0.567473132E-01
   H -0.141638982E+02 -0.222500534E+01 -0.134470908E+01
   H  0.136743805E+02  0.156699058E+01 -0.625301620E+00
     4
 # iter = 37500  time[fs]=37.50000
   C -0.283778243E+01  0.136090828E+00  0.725728575E-01
   C  0.248112749E+01 -0.642891968E-01  0.587894889E-01
   H -0.145531837E+02 -0.228726996E+01 -0.138142357E+01
   H  0.140441151E+02  0.161058893E+01 -0.642107964E+00
     4
 # iter = 38000  time[fs]=38.00000
   C -0.291996816E+01  0.140934017E+00  0.755627500E-01
   C  0.255316681E+01 -0.672396746E-01  0.608342463E-01
   H -0.149433100E+02 -0.234968942E+01 -0.141823000E+01
   H  0.144146539E+02  0.165428591E+01 -0.658953927E+00
     4
 # iter = 38500  time[fs]=38.50000
   C -0.300257833E+01  0.145801740E+00  0.785606419E-01
   C  0.262563343E+01 -0.702102429E-01  0.628814178E-01
   H -0.153342340E+02 -0.241225599E+01 -0.145512372E+01
   H  0.147859562E+02  0.169807668E+01 -0.675837553E+00
     4
 # iter = 39000  time[fs]=39.00000
   C -0.308558974E+01  0.150692858E+00  0.815661766E-01
   C  0.269850395E+01 -0.731999874E-01  0.649308517E-01
   H -0.157259159E+02 -0.247496248E+01 -0.149210045E+01
   H  0.151579844E+02  0.174195674E+01 -0.692757027E+00
     4
 # iter = 39500  time[fs]=39.50000
   C -0.316898090E+01  0.155606307E+00  0.845790195E-01
   C  0.277175674E+01 -0.762080499E-01  0.669824097E-01
   H -0.161183187E+02 -0.253780220E+01 -0.152915622E+01
   H  0.155307033E+02  0.178592189E+01 -0.709710659E+00
     4
 # iter = 40000  time[fs]=40.00000
   C -0.325273193E+01  0.160541089E+00  0.875988565E-01
   C  0.284537175E+01 -0.792336238E-01  0.690359660E-01
   H -0.165114080E+02 -0.260076896E+01 -0.156628731E+01
   H  0.159040804E+02  0.182996821E+01 -0.726696872E+00
     4
 # iter = 40500  time[fs]=40.50000
   C -0.333682436E+01  0.165496265E+00  0.906253923E-01
   C  0.291933038E+01 -0.822759508E-01  0.710914050E-01
   H -0.169051517E+02 -0.266385693E+01 -0.160349027E+01
   H  0.162780853E+02  0.187409205E+01 -0.743714197E+00
     4
 # iter = 41000  time[fs]=41.00000
   C -0.342124104E+01  0.170470955E+00  0.936583493E-01
   C  0.299361537E+01 -0.853343171E-01  0.731486214E-01
   H -0.172995199E+02 -0.272706072E+01 -0.164076188E+01
   H  0.166526895E+02  0.191829000E+01 -0.760761260E+00
     4
 # iter = 41500  time[fs]=41.50000
   C -0.350596601E+01  0.175464333E+00  0.966974660E-01
   C  0.306821063E+01 -0.884080509E-01  0.752075179E-01
   H -0.176944848E+02 -0.279037526E+01 -0.167809911E+01
   H  0.170278666E+02  0.196255887E+01 -0.777836773E+00
     4
 # iter = 42000  time[fs]=42.00000
   C -0.359098442E+01  0.180475618E+00  0.997424959E-01
   C  0.314310120E+01 -0.914965188E-01  0.772680053E-01
   H -0.180900202E+02 -0.285379580E+01 -0.171549915E+01
   H  0.174035916E+02  0.200689566E+01 -0.794939531E+00
     4
 # iter = 42500  time[fs]=42.50000
   C -0.367628239E+01  0.185504078E+00  0.102793206E+00
   C  0.321827311E+01 -0.945991234E-01  0.793300012E-01
   H -0.184861016E+02 -0.291731790E+01 -0.175295934E+01
   H  0.177798414E+02  0.205129755E+01 -0.812068401E+00
     4
 # iter = 43000  time[fs]=43.00000
   C -0.376184696E+01  0.190549021E+00  0.105849378E+00
   C  0.329371332E+01 -0.977153008E-01  0.813934295E-01
   H -0.188827061E+02 -0.298093739E+01 -0.179047721E+01
   H  0.181565940E+02  0.209576191E+01 -0.829222321E+00
     4
 # iter = 43500  time[fs]=43.50000
   C -0.384766603E+01  0.195609794E+00  0.108910803E+00
   C  0.336940962E+01 -0.100844519E+00  0.834582195E-01
   H -0.192798122E+02 -0.304465033E+01 -0.182805041E+01
   H  0.185338288E+02  0.214028624E+01 -0.846400288E+00
     4
 # iter = 44000  time[fs]=44.00000
   C -0.393372824E+01  0.200685781E+00  0.111977285E+00
   C  0.344535059E+01 -0.103986273E+00  0.855243059E-01
   H -0.196773994E+02 -0.310845302E+01 -0.186567674E+01
   H  0.189115267E+02  0.218486820E+01 -0.863601360E+00
     4
 # iter = 44500  time[fs]=44.50000
   C -0.402002297E+01  0.205776400E+00  0.115048639E+00
   C  0.352152552E+01 -0.107140088E+00  0.875916279E-01
   H -0.200754489E+02 -0.317234200E+01 -0.190335415E+01
   H  0.192896693E+02  0.222950558E+01 -0.880824648E+00
     4
 # iter = 45000  time[fs]=45.00000
   C -0.410654022E+01  0.210881100E+00  0.118124687E+00
   C  0.359792437E+01 -0.110305512E+00  0.896601288E-01
   H -0.204739425E+02 -0.323631396E+01 -0.194108066E+01
   H  0.196682394E+02  0.227419630E+01 -0.898069311E+00
     4
 # iter = 45500  time[fs]=45.50000
   C -0.419327062E+01  0.215999358E+00  0.121205263E+00
   C  0.367453767E+01 -0.113482117E+00  0.917297559E-01
   H -0.208728632E+02 -0.330036581E+01 -0.197885444E+01
   H  0.200472210E+02  0.231893837E+01 -0.915334558E+00
     4
 # iter = 46000  time[fs]=46.00000
   C -0.428020535E+01  0.221130681E+00  0.124290209E+00
   C  0.375135657E+01 -0.116669500E+00  0.938004599E-01
   H -0.212721952E+02 -0.336449461E+01 -0.201667374E+01
   H  0.204265985E+02  0.236372994E+01 -0.932619636E+00
     4
 # iter = 46500  time[fs]=46.50000
   C -0.436733609E+01  0.226274599E+00  0.127379373E+00
   C  0.382837268E+01 -0.119867274E+00  0.958721946E-01
   H -0.216719231E+02 -0.342869758E+01 -0.205453692E+01
   H  0.208063576E+02  0.240856923E+01 -0.949923837E+00
     4
 # iter = 47000  time[fs]=47.00000
   C -0.445465502E+01  0.231430669E+00  0.130472613E+00
   C  0.390557813E+01 -0.123075075E+00  0.979449170E-01
   H -0.220720326E+02 -0.349297209E+01 -0.209244240E+01
   H  0.211864846E+02  0.245345458E+01 -0.967246485E+00
     4
 # iter = 47500  time[fs]=47.50000
   C -0.454215474E+01  0.236598467E+00  0.133569792E+00
   C  0.398296548E+01 -0.126292555E+00  0.100018586E+00
   H -0.224725102E+02 -0.355731565E+01 -0.213038871E+01
   H  0.215669663E+02  0.249838438E+01 -0.984586941E+00
     4
 # iter = 48000  time[fs]=48.00000
   C -0.462982829E+01  0.241777591E+00  0.136670780E+00
   C  0.406052771E+01 -0.129519385E+00  0.102093165E+00
   H -0.228733430E+02 -0.362172588E+01 -0.216837444E+01
   H  0.219477905E+02  0.254335714E+01 -0.100194460E+01
     4
 # iter = 48500  time[fs]=48.50000
   C -0.471766906E+01  0.246967660E+00  0.139775454E+00
   C  0.413825817E+01 -0.132755250E+00  0.104168617E+00
   H -0.232745186E+02 -0.368620054E+01 -0.220639826E+01
   H  0.223289455E+02  0.258837140E+01 -0.101931888E+01
     4
 # iter = 49000  time[fs]=49.00000
   C -0.480567081E+01  0.252168311E+00  0.142883697E+00
   C  0.421615059E+01 -0.135999851E+00  0.106244908E+00
   H -0.236760256E+02 -0.375073749E+01 -0.224445889E+01
   H  0.227104200E+02  0.263342582E+01 -0.103670925E+01
     4
 # iter = 49500  time[fs]=49.50000
   C -0.489382764E+01  0.257379196E+00  0.145995395E+00
   C  0.429419902E+01 -0.139252904E+00  0.108322008E+00
   H -0.240778527E+02 -0.381533470E+01 -0.228255514E+01
   H  0.230922037E+02  0.267851910E+01 -0.105411516E+01
     4
 # iter = 50000  time[fs]=50.00000
   C -0.498213394E+01  0.262599986E+00  0.149110442E+00
   C  0.437239782E+01 -0.142514136E+00  0.110399885E+00
   H -0.244799897E+02 -0.387999023E+01 -0.232068584E+01
   H  0.234742862E+02  0.272364998E+01 -0.107153614E+01
     4
 # iter = 50500  time[fs]=50.50000
   C -0.507058440E+01  0.267830366E+00  0.152228735E+00
   C  0.445074164E+01 -0.145783288E+00  0.112478512E+00
   H -0.248824263E+02 -0.394470222E+01 -0.235884991E+01
   H  0.238566582E+02  0.276881730E+01 -0.108897169E+01
     4
 # iter = 51000  time[fs]=51.00000
   C -0.515917397E+01  0.273070036E+00  0.155350176E+00
   C  0.452922541E+01 -0.149060113E+00  0.114557862E+00
   H -0.252851531E+02 -0.400946893E+01 -0.239704630E+01
   H  0.242393103E+02  0.281401992E+01 -0.110642138E+01
     4
 # iter = 51500  time[fs]=51.50000
   C -0.524789788E+01  0.278318708E+00  0.158474671E+00
   C  0.460784430E+01 -0.152344373E+00  0.116637909E+00
   H -0.256881611E+02 -0.407428867E+01 -0.243527401E+01
   H  0.246222340E+02  0.285925678E+01 -0.112388477E+01
     4
 # iter = 52000  time[fs]=52.00000
   C -0.533675154E+01  0.283576108E+00  0.161602131E+00
   C  0.468659374E+01 -0.155635844E+00  0.118718630E+00
   H -0.260914414E+02 -0.413915983E+01 -0.247353209E+01
   H  0.250054207E+02  0.290452684E+01 -0.114136145E+01
     4
 # iter = 52500  time[fs]=52.50000
   C -0.542573065E+01  0.288841975E+00  0.164732470E+00
   C  0.476546935E+01 -0.158934308E+00  0.120800002E+00
   H -0.264949858E+02 -0.420408089E+01 -0.251181964E+01
   H  0.253888627E+02  0.294982913E+01 -0.115885102E+01
     4
 # iter = 53000  time[fs]=53.00000
   C -0.551483105E+01  0.294116056E+00  0.167865606E+00
   C  0.484446698E+01 -0.162239559E+00  0.122882003E+00
   H -0.268987865E+02 -0.426905037E+01 -0.255013578E+01
   H  0.257725523E+02  0.299516270E+01 -0.117635310E+01
     4
 # iter = 53500  time[fs]=53.50000
   C -0.560404883E+01  0.299398113E+00  0.171001460E+00
   C  0.492358268E+01 -0.165551399E+00  0.124964612E+00
   H -0.273028358E+02 -0.433406687E+01 -0.258847968E+01
   H  0.261564822E+02  0.304052665E+01 -0.119386734E+01
     4
 # iter = 54000  time[fs]=54.00000
   C -0.569338022E+01  0.304687916E+00  0.174139956E+00
   C  0.500281266E+01 -0.168869638E+00  0.127047811E+00
   H -0.277071265E+02 -0.439912905E+01 -0.262685055E+01
   H  0.265406454E+02  0.308592013E+01 -0.121139339E+01
     4
 # iter = 54500  time[fs]=54.50000
   C -0.578282166E+01  0.309985243E+00  0.177281021E+00
   C  0.508215334E+01 -0.172194094E+00  0.129131579E+00
   H -0.281116516E+02 -0.446423563E+01 -0.266524762E+01
   H  0.269250354E+02  0.313134230E+01 -0.122893092E+01
     4
 # iter = 55000  time[fs]=55.00000
   C -0.587236972E+01  0.315289883E+00  0.180424587E+00
   C  0.516160126E+01 -0.175524592E+00  0.131215901E+00
   H -0.285164046E+02 -0.452938536E+01 -0.270367017E+01
   H  0.273096456E+02  0.317679238E+01 -0.124647961E+01
     4
 # iter = 55500  time[fs]=55.50000
   C -0.596202114E+01  0.320601635E+00  0.183570586E+00
   C  0.524115315E+01 -0.178860965E+00  0.133300758E+00
   H -0.289213790E+02 -0.459457706E+01 -0.274211748E+01
   H  0.276944700E+02  0.322226961E+01 -0.126403915E+01
     4
 # iter = 56000  time[fs]=56.00000
   C -0.605177279E+01  0.325920302E+00  0.186718954E+00
   C  0.532080586E+01 -0.182203052E+00  0.135386135E+00
   H -0.293265687E+02 -0.465980961E+01 -0.278058890E+01
   H  0.280795027E+02  0.326777325E+01 -0.128160926E+01
     4
 # iter = 56500  time[fs]=56.50000
   C -0.614162170E+01  0.331245698E+00  0.189869628E+00
   C  0.540055639E+01 -0.185550700E+00  0.137472016E+00
   H -0.297319678E+02 -0.472508190E+01 -0.281908377E+01
   H  0.284647380E+02  0.331330260E+01 -0.129918965E+01
     4
 # iter = 57000  time[fs]=57.00000
   C -0.623156500E+01  0.336577644E+00  0.193022551E+00
   C  0.548040186E+01 -0.188903759E+00  0.139558387E+00
   H -0.301375709E+02 -0.479039288E+01 -0.285760147E+01
   H  0.288501706E+02  0.335885701E+01 -0.131678005E+01
     4
 # iter = 57500  time[fs]=57.50000
   C -0.632159996E+01  0.341915967E+00  0.196177663E+00
   C  0.556033953E+01 -0.192262086E+00  0.141645233E+00
   H -0.305433723E+02 -0.485574156E+01 -0.289614141E+01
   H  0.292357952E+02  0.340443580E+01 -0.133438020E+01
     4
 # iter = 58000  time[fs]=58.00000
   C -0.641172395E+01  0.347260500E+00  0.199334911E+00
   C  0.564036675E+01 -0.195625546E+00  0.143732541E+00
   H -0.309493670E+02 -0.492112697E+01 -0.293470300E+01
   H  0.296216068E+02  0.345003837E+01 -0.135198985E+01
     4
 # iter = 58500  time[fs]=58.50000
   C -0.650193447E+01  0.352611085E+00  0.202494240E+00
   C  0.572048099E+01 -0.198994005E+00  0.145820298E+00
   H -0.313555499E+02 -0.498654816E+01 -0.297328571E+01
   H  0.300076006E+02  0.349566411E+01 -0.136960877E+01
     4
 # iter = 59000  time[fs]=59.00000
   C -0.659222909E+01  0.357967567E+00  0.205655601E+00
   C  0.580067982E+01 -0.202367336E+00  0.147908491E+00
   H -0.317619162E+02 -0.505200425E+01 -0.301188900E+01
   H  0.303937721E+02  0.354131245E+01 -0.138723672E+01
     4
 # iter = 59500  time[fs]=59.50000
   C -0.668260551E+01  0.363329798E+00  0.208818943E+00
   C  0.588096092E+01 -0.205745418E+00  0.149997110E+00
   H -0.321684614E+02 -0.511749437E+01 -0.305051236E+01
   H  0.307801166E+02  0.358698283E+01 -0.140487347E+01
     4
 # iter = 60000  time[fs]=60.00000
   C -0.677306149E+01  0.368697636E+00  0.211984219E+00
   C  0.596132206E+01 -0.209128132E+00  0.152086142E+00
   H -0.325751809E+02 -0.518301768E+01 -0.308915529E+01
   H  0.311666300E+02  0.363267471E+01 -0.142251882E+01
     4
 # iter = 60500  time[fs]=60.50000
   C -0.686359491E+01  0.374070943E+00  0.215151382E+00
   C  0.604176107E+01 -0.212515364E+00  0.154175576E+00
   H -0.329820704E+02 -0.524857338E+01 -0.312781733E+01
   H  0.315533080E+02  0.367838758E+01 -0.144017256E+01
     4
 # iter = 61000  time[fs]=61.00000
   C -0.695420372E+01  0.379449585E+00  0.218320390E+00
   C  0.612227590E+01 -0.215907005E+00  0.156265403E+00
   H -0.333891258E+02 -0.531416071E+01 -0.316649800E+01
   H  0.319401468E+02  0.372412094E+01 -0.145783448E+01
     4
 # iter = 61500  time[fs]=61.50000
   C -0.704488593E+01  0.384833437E+00  0.221491198E+00
   C  0.620286457E+01 -0.219302949E+00  0.158355612E+00
   H -0.337963432E+02 -0.537977890E+01 -0.320519688E+01
   H  0.323271424E+02  0.376987431E+01 -0.147550439E+01
     4
 # iter = 62000  time[fs]=62.00000
   C -0.713563966E+01  0.390222373E+00  0.224663766E+00
   C  0.628352515E+01 -0.222703094E+00  0.160446192E+00
   H -0.342037187E+02 -0.544542725E+01 -0.324391353E+01
   H  0.327142912E+02  0.381564722E+01 -0.149318211E+01
     4
 # iter = 62500  time[fs]=62.50000
   C -0.722646306E+01  0.395616274E+00  0.227838053E+00
   C  0.636425582E+01 -0.226107341E+00  0.162537136E+00
   H -0.346112485E+02 -0.551110505E+01 -0.328264754E+01
   H  0.331015895E+02  0.386143922E+01 -0.151086746E+01
     4
 # iter = 63000  time[fs]=63.00000
   C -0.731735439E+01  0.401015026E+00  0.231014021E+00
   C  0.644505479E+01 -0.229515595E+00  0.164628434E+00
   H -0.350189290E+02 -0.557681164E+01 -0.332139852E+01
   H  0.334890339E+02  0.390724989E+01 -0.152856026E+01
     4
 # iter = 63500  time[fs]=63.50000
   C -0.740831194E+01  0.406418518E+00  0.234191633E+00
   C  0.652592037E+01 -0.232927765E+00  0.166720078E+00
   H -0.354267569E+02 -0.564254635E+01 -0.336016608E+01
   H  0.338766211E+02  0.395307880E+01 -0.154626034E+01
     4
 # iter = 64000  time[fs]=64.00000
   C -0.749933408E+01  0.411826641E+00  0.237370852E+00
   C  0.660685091E+01 -0.236343760E+00  0.168812058E+00
   H -0.358347287E+02 -0.570830858E+01 -0.339894985E+01
   H  0.342643478E+02  0.399892554E+01 -0.156396755E+01
     4
 # iter = 64500  time[fs]=64.50000
   C -0.759041924E+01  0.417239292E+00  0.240551643E+00
   C  0.668784483E+01 -0.239763496E+00  0.170904367E+00
   H -0.362428413E+02 -0.577409769E+01 -0.343774947E+01
   H  0.346522109E+02  0.404478974E+01 -0.158168173E+01
     4
 # iter = 65000  time[fs]=65.00000
   C -0.768156589E+01  0.422656370E+00  0.243733973E+00
   C  0.676890058E+01 -0.243186889E+00  0.172996998E+00
   H -0.366510915E+02 -0.583991312E+01 -0.347656459E+01
   H  0.350402074E+02  0.409067100E+01 -0.159940272E+01
     4
 # iter = 65500  time[fs]=65.50000
   C -0.777277257E+01  0.428077778E+00  0.246917809E+00
   C  0.685001671E+01 -0.246613858E+00  0.175089943E+00
   H -0.370594762E+02 -0.590575429E+01 -0.351539488E+01
   H  0.354283344E+02  0.413656895E+01 -0.161713038E+01
     4
 # iter = 66000  time[fs]=66.00000
   C -0.786403785E+01  0.433503422E+00  0.250103118E+00
   C  0.693119179E+01 -0.250044326E+00  0.177183194E+00
   H -0.374679926E+02 -0.597162065E+01 -0.355424001E+01
   H  0.358165889E+02  0.418248326E+01 -0.163486457E+01
     4
 # iter = 66500  time[fs]=66.50000
   C -0.795536039E+01  0.438933210E+00  0.253289871E+00
   C  0.701242443E+01 -0.253478217E+00  0.179276745E+00
   H -0.378766377E+02 -0.603751166E+01 -0.359309966E+01
   H  0.362049684E+02  0.422841356E+01 -0.165260514E+01
     4
 # iter = 67000  time[fs]=67.00000
   C -0.804673884E+01  0.444367055E+00  0.256478036E+00
   C  0.709371332E+01 -0.256915459E+00  0.181370589E+00
   H -0.382854090E+02 -0.610342681E+01 -0.363197354E+01
   H  0.365934702E+02  0.427435953E+01 -0.167035197E+01
     4
 # iter = 67500  time[fs]=67.50000
   C -0.813817194E+01  0.449804870E+00  0.259667587E+00
   C  0.717505715E+01 -0.260355980E+00  0.183464719E+00
   H -0.386943036E+02 -0.616936560E+01 -0.367086134E+01
   H  0.369820916E+02  0.432032085E+01 -0.168810492E+01
     4
 # iter = 68000  time[fs]=68.00000
   C -0.822965846E+01  0.455246573E+00  0.262858493E+00
   C  0.725645471E+01 -0.263799712E+00  0.185559130E+00
   H -0.391033191E+02 -0.623532755E+01 -0.370976278E+01
   H  0.373708302E+02  0.436629719E+01 -0.170586387E+01
     4
 # iter = 68500  time[fs]=68.50000
   C -0.832119719E+01  0.460692084E+00  0.266050728E+00
   C  0.733790477E+01 -0.267246588E+00  0.187653815E+00
   H -0.395124529E+02 -0.630131217E+01 -0.374867758E+01
   H  0.377596836E+02  0.441228827E+01 -0.172362870E+01
     4
 # iter = 69000  time[fs]=69.00000
   C -0.841278698E+01  0.466141324E+00  0.269244266E+00
   C  0.741940619E+01 -0.270696544E+00  0.189748768E+00
   H -0.399217026E+02 -0.636731903E+01 -0.378760547E+01
   H  0.381486494E+02  0.445829377E+01 -0.174139929E+01
     4
 # iter = 69500  time[fs]=69.50000
   C -0.850442671E+01  0.471594219E+00  0.272439081E+00
   C  0.750095784E+01 -0.274149518E+00  0.191843983E+00
   H -0.403310658E+02 -0.643334767E+01 -0.382654619E+01
   H  0.385377254E+02  0.450431342E+01 -0.175917553E+01
     4
 # iter = 70000  time[fs]=70.00000
   C -0.859611531E+01  0.477050693E+00  0.275635148E+00
   C  0.758255862E+01 -0.277605449E+00  0.193939456E+00
   H -0.407405404E+02 -0.649939766E+01 -0.386549949E+01
   H  0.389269093E+02  0.455034693E+01 -0.177695729E+01
     4
 # iter = 70500  time[fs]=70.50000
   C -0.868785172E+01  0.482510678E+00  0.278832443E+00
   C  0.766420748E+01 -0.281064277E+00  0.196035180E+00
   H -0.411501240E+02 -0.656546858E+01 -0.390446511E+01
   H  0.393161991E+02  0.459639405E+01 -0.179474449E+01
     4
 # iter = 71000  time[fs]=71.00000
   C -0.877963493E+01  0.487974102E+00  0.282030942E+00
   C  0.774590341E+01 -0.284525946E+00  0.198131152E+00
   H -0.415598145E+02 -0.663156004E+01 -0.394344283E+01
   H  0.397055927E+02  0.464245450E+01 -0.181253700E+01
     4
 # iter = 71500  time[fs]=71.50000
   C -0.887146395E+01  0.493440900E+00  0.285230623E+00
   C  0.782764542E+01 -0.287990400E+00  0.200227364E+00
   H -0.419696099E+02 -0.669767164E+01 -0.398243240E+01
   H  0.400950880E+02  0.468852803E+01 -0.183033474E+01
     4
 # iter = 72000  time[fs]=72.00000
   C -0.896333784E+01  0.498911006E+00  0.288431463E+00
   C  0.790943253E+01 -0.291457586E+00  0.202323813E+00
   H -0.423795081E+02 -0.676380299E+01 -0.402143360E+01
   H  0.404846831E+02  0.473461439E+01 -0.184813759E+01
     4
 # iter = 72500  time[fs]=72.50000
   C -0.905525566E+01  0.504384356E+00  0.291633440E+00
   C  0.799126383E+01 -0.294927450E+00  0.204420495E+00
   H -0.427895072E+02 -0.682995372E+01 -0.406044621E+01
   H  0.408743760E+02  0.478071335E+01 -0.186594547E+01
     4
 # iter = 73000  time[fs]=73.00000
   C -0.914721652E+01  0.509860889E+00  0.294836534E+00
   C  0.807313841E+01 -0.298399943E+00  0.206517404E+00
   H -0.431996052E+02 -0.689612347E+01 -0.409947003E+01
   H  0.412641650E+02  0.482682467E+01 -0.188375828E+01
     4
 # iter = 73500  time[fs]=73.50000
   C -0.923921955E+01  0.515340546E+00  0.298040725E+00
   C  0.815505540E+01 -0.301875013E+00  0.208614535E+00
   H -0.436098003E+02 -0.696231190E+01 -0.413850483E+01
   H  0.416540483E+02  0.487294812E+01 -0.190157593E+01
     4
 # iter = 74000  time[fs]=74.00000
   C -0.933126390E+01  0.520823267E+00  0.301245991E+00
   C  0.823701394E+01 -0.305352614E+00  0.210711886E+00
   H -0.440200907E+02 -0.702851865E+01 -0.417755042E+01
   H  0.420440240E+02  0.491908348E+01 -0.191939833E+01
     4
 # iter = 74500  time[fs]=74.50000
   C -0.942334876E+01  0.526308997E+00  0.304452315E+00
   C  0.831901322E+01 -0.308832699E+00  0.212809451E+00
   H -0.444304746E+02 -0.709474340E+01 -0.421660660E+01
   H  0.424340905E+02  0.496523054E+01 -0.193722539E+01
     4
 # iter = 75000  time[fs]=75.00000
   C -0.951547333E+01  0.531797680E+00  0.307659676E+00
   C  0.840105242E+01 -0.312315221E+00  0.214907226E+00
   H -0.448409503E+02 -0.716098581E+01 -0.425567319E+01
   H  0.428242462E+02  0.501138909E+01 -0.195505704E+01
     4
 # iter = 75500  time[fs]=75.50000
   C -0.960763683E+01  0.537289263E+00  0.310868058E+00
   C  0.848313078E+01 -0.315800137E+00  0.217005208E+00
   H -0.452515162E+02 -0.722724559E+01 -0.429474999E+01
   H  0.432144894E+02  0.505755891E+01 -0.197289319E+01
     4
 # iter = 76000  time[fs]=76.00000
   C -0.969983851E+01  0.542783693E+00  0.314077441E+00
   C  0.856524754E+01 -0.319287403E+00  0.219103393E+00
   H -0.456621706E+02 -0.729352241E+01 -0.433383683E+01
   H  0.436048186E+02  0.510373982E+01 -0.199073375E+01
     4
 # iter = 76500  time[fs]=76.50000
   C -0.979207765E+01  0.548280921E+00  0.317287809E+00
   C  0.864740197E+01 -0.322776978E+00  0.221201777E+00
   H -0.460729119E+02 -0.735981599E+01 -0.437293352E+01
   H  0.439952322E+02  0.514993163E+01 -0.200857866E+01
     4
 # iter = 77000  time[fs]=77.00000
   C -0.988435354E+01  0.553780895E+00  0.320499144E+00
   C  0.872959334E+01 -0.326268821E+00  0.223300356E+00
   H -0.464837387E+02 -0.742612602E+01 -0.441203990E+01
   H  0.443857288E+02  0.519613413E+01 -0.202642784E+01
     4
 # iter = 77500  time[fs]=77.50000
   C -0.997666548E+01  0.559283569E+00  0.323711430E+00
   C  0.881182097E+01 -0.329762891E+00  0.225399127E+00
   H -0.468946494E+02 -0.749245224E+01 -0.445115580E+01
   H  0.447763069E+02  0.524234716E+01 -0.204428121E+01
     4
 # iter = 78000  time[fs]=78.00000
   C -0.100690128E+02  0.564788895E+00  0.326924651E+00
   C  0.889408418E+01 -0.333259150E+00  0.227498086E+00
   H -0.473056427E+02 -0.755879435E+01 -0.449028106E+01
   H  0.451669651E+02  0.528857052E+01 -0.206213871E+01
     4
 # iter = 78500  time[fs]=78.50000
   C -0.101613949E+02  0.570296828E+00  0.330138792E+00
   C  0.897638231E+01 -0.336757560E+00  0.229597230E+00
   H -0.477167169E+02 -0.762515209E+01 -0.452941551E+01
   H  0.455577020E+02  0.533480405E+01 -0.208000025E+01
     4
 # iter = 79000  time[fs]=79.00000
   C -0.102538110E+02  0.575807322E+00  0.333353836E+00
   C  0.905871474E+01 -0.340258084E+00  0.231696556E+00
   H -0.481278709E+02 -0.769152520E+01 -0.456855901E+01
   H  0.459485163E+02  0.538104757E+01 -0.209786579E+01
     4
 # iter = 79500  time[fs]=79.50000
   C -0.103462606E+02  0.581320335E+00  0.336569769E+00
   C  0.914108082E+01 -0.343760687E+00  0.233796061E+00
   H -0.485391031E+02 -0.775791342E+01 -0.460771140E+01
   H  0.463394067E+02  0.542730093E+01 -0.211573524E+01
     4
 # iter = 80000  time[fs]=80.00000
   C -0.104387431E+02  0.586835825E+00  0.339786576E+00
   C  0.922347997E+01 -0.347265333E+00  0.235895741E+00
   H -0.489504124E+02 -0.782431651E+01 -0.464687253E+01
   H  0.467303719E+02  0.547356395E+01 -0.213360854E+01
