     4
 # iter = 25000  time[fs]=25.00000
   C -0.104331092E+01 -0.374075467E-01 -0.835674196E-02
   C  0.999340509E+00  0.301306273E-01  0.499552689E-02
   H -0.535523660E+01  0.535414348E+00 -0.422281655E+00
   H  0.540821778E+01  0.175696420E+00 -0.279835127E+00
     4
 # iter = 25500  time[fs]=25.50000
   C -0.109457100E+01 -0.399985448E-01 -0.620351227E-02
   C  0.104349294E+01  0.305606406E-01  0.671698769E-02
   H -0.568927136E+01  0.569062154E+00 -0.446462313E+00
   H  0.572947651E+01  0.184702541E+00 -0.296393842E+00
     4
 # iter = 26000  time[fs]=26.00000
   C -0.114839141E+01 -0.426958268E-01 -0.405096001E-02
   C  0.109020702E+01  0.310681266E-01  0.846706631E-02
   H -0.602590402E+01  0.602988444E+00 -0.470848442E+00
   H  0.605331747E+01  0.193775912E+00 -0.313082372E+00
     4
 # iter = 26500  time[fs]=26.50000
   C -0.120454990E+01 -0.454894539E-01 -0.189828624E-02
   C  0.113925964E+01  0.316463343E-01  0.102419308E-01
   H -0.636484921E+01  0.637162407E+00 -0.495417142E+00
   H  0.637946528E+01  0.202909092E+00 -0.329887220E+00
     4
 # iter = 27000  time[fs]=27.00000
   C -0.126284300E+01 -0.483705585E-01  0.255174701E-03
   C  0.119044674E+01  0.322890834E-01  0.120383504E-01
   H -0.670586523E+01  0.671558088E+00 -0.520149126E+00
   H  0.670768554E+01  0.212095784E+00 -0.346796890E+00
     4
 # iter = 27500  time[fs]=27.50000
   C -0.132308559E+01 -0.513312322E-01  0.240996237E-02
   C  0.124358275E+01  0.329907523E-01  0.138535965E-01
   H -0.704874572E+01  0.706153416E+00 -0.545027998E+00
   H  0.703777717E+01  0.221330622E+00 -0.363801512E+00
     4
 # iter = 28000  time[fs]=28.00000
   C -0.138510999E+01 -0.543644227E-01  0.456650346E-02
   C  0.129849967E+01  0.337462500E-01  0.156853600E-01
   H -0.739331315E+01  0.740929464E+00 -0.570039706E+00
   H  0.736956648E+01  0.230608997E+00 -0.380892546E+00
     4
 # iter = 28500  time[fs]=28.50000
   C -0.144876475E+01 -0.574638385E-01  0.672512722E-02
   C  0.135504584E+01  0.345509803E-01  0.175316805E-01
   H -0.773941379E+01  0.775869878E+00 -0.595172117E+00
   H  0.770290251E+01  0.239926918E+00 -0.398062554E+00
     4
 # iter = 29000  time[fs]=29.00000
   C -0.151391334E+01 -0.606238626E-01  0.888608077E-02
   C  0.141308455E+01  0.354008011E-01  0.193908888E-01
   H -0.808691369E+01  0.810960431E+00 -0.620414682E+00
   H  0.803765322E+01  0.249280914E+00 -0.415305019E+00
     4
 # iter = 29500  time[fs]=29.50000
   C -0.158043279E+01 -0.638394744E-01  0.110495433E-01
   C  0.147249271E+01  0.362919832E-01  0.212615581E-01
   H -0.843569543E+01  0.846188668E+00 -0.645758174E+00
   H  0.837370256E+01  0.258667943E+00 -0.432614196E+00
     4
 # iter = 30000  time[fs]=30.00000
   C -0.164821236E+01 -0.671061804E-01  0.132156384E-01
   C  0.153315953E+01  0.372211697E-01  0.231424643E-01
   H -0.878565557E+01  0.881543626E+00 -0.671194476E+00
   H  0.871094797E+01  0.268085328E+00 -0.449984999E+00
     4
 # iter = 30500  time[fs]=30.50000
   C -0.171715231E+01 -0.704199524E-01  0.153844450E-01
   C  0.159498522E+01  0.381853384E-01  0.250325532E-01
   H -0.913670254E+01  0.917015601E+00 -0.696716409E+00
   H  0.904929840E+01  0.277530701E+00 -0.467412900E+00
     4
 # iter = 31000  time[fs]=31.00000
   C -0.178716274E+01 -0.737771727E-01  0.175560063E-01
   C  0.165787984E+01  0.391817663E-01  0.269309128E-01
   H -0.948875490E+01  0.952595963E+00 -0.722317596E+00
   H  0.938867268E+01  0.287001957E+00 -0.484893852E+00
     4
 # iter = 31500  time[fs]=31.50000
   C -0.185816253E+01 -0.771745864E-01  0.197303370E-01
   C  0.172176227E+01  0.402079974E-01  0.288367513E-01
   H -0.984173990E+01  0.988277004E+00 -0.747992343E+00
   H  0.972899815E+01  0.296497216E+00 -0.502424222E+00
     4
 # iter = 32000  time[fs]=32.00000
   C -0.193007840E+01 -0.806092592E-01  0.219074298E-01
   C  0.178655925E+01  0.412618139E-01  0.307493781E-01
   H -0.101955923E+02  0.102405181E+01 -0.773735548E+00
   H  0.100702095E+02  0.306014794E+00 -0.520000741E+00
     4
 # iter = 32500  time[fs]=32.50000
   C -0.200284404E+01 -0.840785406E-01  0.240872603E-01
   C  0.185220447E+01  0.423412101E-01  0.326681888E-01
   H -0.105502535E+02  0.105991416E+01 -0.799542623E+00
   H  0.104122479E+02  0.315553177E+00 -0.537620448E+00
     4
 # iter = 33000  time[fs]=33.00000
   C -0.207639939E+01 -0.875800311E-01  0.262697906E-01
   C  0.191863790E+01  0.434443693E-01  0.345926522E-01
   H -0.109056704E+02  0.109585842E+01 -0.825409422E+00
   H  0.107550601E+02  0.325110996E+00 -0.555280663E+00
     4
 # iter = 33500  time[fs]=33.50000
   C -0.215068992E+01 -0.911115543E-01  0.284549733E-01
   C  0.198580503E+01  0.445696432E-01  0.365222997E-01
   H -0.112617950E+02  0.113187951E+01 -0.851332191E+00
   H  0.110985977E+02  0.334687013E+00 -0.572978943E+00
     4
 # iter = 34000  time[fs]=34.00000
   C -0.222566605E+01 -0.946711322E-01  0.306427536E-01
   C  0.205365632E+01  0.457155339E-01  0.384567160E-01
   H -0.116185836E+02  0.116797277E+01 -0.877307519E+00
   H  0.114428167E+02  0.344280104E+00 -0.590713063E+00
     4
 # iter = 34500  time[fs]=34.50000
   C -0.230128265E+01 -0.982569632E-01  0.328330714E-01
   C  0.212214666E+01  0.468806775E-01  0.403955324E-01
   H -0.119759967E+02  0.120413399E+01 -0.903332295E+00
   H  0.117876770E+02  0.353889244E+00 -0.608480985E+00
     4
 # iter = 35000  time[fs]=35.00000
   C -0.237749852E+01 -0.101867403E+00  0.350258632E-01
   C  0.219123490E+01  0.480638302E-01  0.423384199E-01
   H -0.123339977E+02  0.124035929E+01 -0.929403679E+00
   H  0.121331418E+02  0.363513495E+00 -0.626280840E+00
     4
 # iter = 35500  time[fs]=35.50000
   C -0.245427601E+01 -0.105500948E+00  0.372210632E-01
   C  0.226088341E+01  0.492638555E-01  0.442850839E-01
   H -0.126925534E+02  0.127664513E+01 -0.955519065E+00
   H  0.124791774E+02  0.373152002E+00 -0.644110910E+00
     4
 # iter = 36000  time[fs]=36.00000
   C -0.253158066E+01 -0.109156221E+00  0.394186045E-01
   C  0.233105779E+01  0.504797134E-01  0.462352602E-01
   H -0.130516333E+02  0.131298825E+01 -0.981676062E+00
   H  0.128257529E+02  0.382803977E+00 -0.661969612E+00
     4
 # iter = 36500  time[fs]=36.50000
   C -0.260938086E+01 -0.112831958E+00  0.416184197E-01
   C  0.240172643E+01  0.517104500E-01  0.481887106E-01
   H -0.134112092E+02  0.134938564E+01 -0.100787247E+01
   H  0.131728397E+02  0.392468695E+00 -0.679855483E+00
     4
 # iter = 37000  time[fs]=37.00000
   C -0.268764755E+01 -0.116526995E+00  0.438204417E-01
   C  0.247286034E+01  0.529551895E-01  0.501452202E-01
   H -0.137712553E+02  0.138583453E+01 -0.103410625E+01
   H  0.135204113E+02  0.402145488E+00 -0.697767171E+00
     4
 # iter = 37500  time[fs]=37.50000
   C -0.276635402E+01 -0.120240262E+00  0.460246043E-01
   C  0.254443283E+01  0.542131260E-01  0.521045940E-01
   H -0.141317474E+02  0.142233235E+01 -0.106037552E+01
   H  0.138684435E+02  0.411833740E+00 -0.715703419E+00
     4
 # iter = 38000  time[fs]=38.00000
   C -0.284547562E+01 -0.123970770E+00  0.482308420E-01
   C  0.261641928E+01  0.554835168E-01  0.540666551E-01
   H -0.144926634E+02  0.145887673E+01 -0.108667855E+01
   H  0.142169135E+02  0.421532879E+00 -0.733663063E+00
     4
 # iter = 38500  time[fs]=38.50000
   C -0.292498961E+01 -0.127717605E+00  0.504390911E-01
   C  0.268879699E+01  0.567656765E-01  0.560312423E-01
   H -0.148539828E+02  0.149546545E+01 -0.111301372E+01
   H  0.145658004E+02  0.431242375E+00 -0.751645018E+00
     4
 # iter = 39000  time[fs]=39.00000
   C -0.300487494E+01 -0.131479922E+00  0.526492892E-01
   C  0.276154494E+01  0.580589712E-01  0.579982083E-01
   H -0.152156863E+02  0.153209646E+01 -0.113937952E+01
   H  0.149150846E+02  0.440961735E+00 -0.769648273E+00
     4
 # iter = 39500  time[fs]=39.50000
   C -0.308511213E+01 -0.135256935E+00  0.548613757E-01
   C  0.283464370E+01  0.593628143E-01  0.599674183E-01
   H -0.155777561E+02  0.156876784E+01 -0.116577456E+01
   H  0.152647480E+02  0.450690500E+00 -0.787671884E+00
     4
 # iter = 40000  time[fs]=40.00000
   C -0.316568310E+01 -0.139047916E+00  0.570752918E-01
   C  0.290807520E+01  0.606766615E-01  0.619387488E-01
   H -0.159401757E+02  0.160547781E+01 -0.119219752E+01
   H  0.156147734E+02  0.460428243E+00 -0.805714967E+00
     4
 # iter = 40500  time[fs]=40.50000
   C -0.324657108E+01 -0.142852186E+00  0.592909806E-01
   C  0.298182270E+01  0.620000076E-01  0.639120859E-01
   H -0.163029294E+02  0.164222469E+01 -0.121864719E+01
   H  0.159651450E+02  0.470174564E+00 -0.823776696E+00
     4
 # iter = 41000  time[fs]=41.00000
   C -0.332776044E+01 -0.146669114E+00  0.615083869E-01
   C  0.305587061E+01  0.633323826E-01  0.658873250E-01
   H -0.166660028E+02  0.167900691E+01 -0.124512242E+01
   H  0.163158480E+02  0.479929090E+00 -0.841856297E+00
     4
 # iter = 41500  time[fs]=41.50000
   C -0.340923663E+01 -0.150498111E+00  0.637274577E-01
   C  0.313020441E+01  0.646733488E-01  0.678643693E-01
   H -0.170293822E+02  0.171582301E+01 -0.127162215E+01
   H  0.166668684E+02  0.489691472E+00 -0.859953040E+00
     4
 # iter = 42000  time[fs]=42.00000
   C -0.349098609E+01 -0.154338627E+00  0.659481416E-01
   C  0.320481056E+01  0.660224981E-01  0.698431292E-01
   H -0.173930549E+02  0.175267160E+01 -0.129814536E+01
   H  0.170181931E+02  0.499461380E+00 -0.878066242E+00
     4
 # iter = 42500  time[fs]=42.50000
   C -0.357299614E+01 -0.158190146E+00  0.681703892E-01
   C  0.327967640E+01  0.673794494E-01  0.718235217E-01
   H -0.177570089E+02  0.178955140E+01 -0.132469111E+01
   H  0.173698097E+02  0.509238508E+00 -0.896195258E+00
     4
 # iter = 43000  time[fs]=43.00000
   C -0.365525493E+01 -0.162052186E+00  0.703941529E-01
   C  0.335479012E+01  0.687438464E-01  0.738054698E-01
   H -0.181212330E+02  0.182646117E+01 -0.135125852E+01
   H  0.177217068E+02  0.519022564E+00 -0.914339481E+00
     4
 # iter = 43500  time[fs]=43.50000
   C -0.373775136E+01 -0.165924296E+00  0.726193869E-01
   C  0.343014065E+01  0.701153556E-01  0.757889018E-01
   H -0.184857165E+02  0.186339978E+01 -0.137784674E+01
   H  0.180738734E+02  0.528813278E+00 -0.932498337E+00
     4
 # iter = 44000  time[fs]=44.00000
   C -0.382047503E+01 -0.169806051E+00  0.748460469E-01
   C  0.350571759E+01  0.714936644E-01  0.777737508E-01
   H -0.188504494E+02  0.190036613E+01 -0.140445499E+01
   H  0.184262993E+02  0.538610391E+00 -0.950671286E+00
     4
 # iter = 44500  time[fs]=44.50000
   C -0.390341618E+01 -0.173697052E+00  0.770740907E-01
   C  0.358151122E+01  0.728784795E-01  0.797599545E-01
   H -0.192154222E+02  0.193735920E+01 -0.143108252E+01
   H  0.187789747E+02  0.548413660E+00 -0.968857816E+00
     4
 # iter = 45000  time[fs]=45.00000
   C -0.398656564E+01 -0.177596923E+00  0.793034772E-01
   C  0.365751238E+01  0.742695254E-01  0.817474546E-01
   H -0.195806262E+02  0.197437801E+01 -0.145772862E+01
   H  0.191318904E+02  0.558222858E+00 -0.987057442E+00
     4
 # iter = 45500  time[fs]=45.50000
   C -0.406991478E+01 -0.181505312E+00  0.815341674E-01
   C  0.373371248E+01  0.756665432E-01  0.837361965E-01
   H -0.199460528E+02  0.201142166E+01 -0.148439263E+01
   H  0.194850377E+02  0.568037767E+00 -0.100526970E+01
     4
 # iter = 46000  time[fs]=46.00000
   C -0.415345547E+01 -0.185421884E+00  0.837661232E-01
   C  0.381010340E+01  0.770692888E-01  0.857261292E-01
   H -0.203116940E+02  0.204848927E+01 -0.151107392E+01
   H  0.198384085E+02  0.577858182E+00 -0.102349417E+01
     4
 # iter = 46500  time[fs]=46.50000
   C -0.423718008E+01 -0.189346325E+00  0.859993085E-01
   C  0.388667752E+01  0.784775326E-01  0.877172045E-01
   H -0.206775424E+02  0.208558002E+01 -0.153777188E+01
   H  0.201919949E+02  0.587683909E+00 -0.104173042E+01
     4
 # iter = 47000  time[fs]=47.00000
   C -0.432108136E+01 -0.193278338E+00  0.882336883E-01
   C  0.396342762E+01  0.798910578E-01  0.897093773E-01
   H -0.210435906E+02  0.212269313E+01 -0.156448595E+01
   H  0.205457895E+02  0.597514763E+00 -0.105997807E+01
     4
 # iter = 47500  time[fs]=47.50000
   C -0.440515251E+01 -0.197217641E+00  0.904692288E-01
   C  0.404034692E+01  0.813096597E-01  0.917026051E-01
   H -0.214098320E+02  0.215982784E+01 -0.159121559E+01
   H  0.208997853E+02  0.607350571E+00 -0.107823674E+01
     4
 # iter = 48000  time[fs]=48.00000
   C -0.448938707E+01 -0.201163968E+00  0.927058979E-01
   C  0.411742897E+01  0.827331448E-01  0.936968480E-01
   H -0.217762600E+02  0.219698346E+01 -0.161796029E+01
   H  0.212539757E+02  0.617191165E+00 -0.109650607E+01
     4
 # iter = 48500  time[fs]=48.50000
   C -0.457377894E+01 -0.205117067E+00  0.949436642E-01
   C  0.419466770E+01  0.841613303E-01  0.956920682E-01
   H -0.221428685E+02  0.223415931E+01 -0.164471955E+01
   H  0.216083541E+02  0.627036387E+00 -0.111478574E+01
     4
 # iter = 49000  time[fs]=49.00000
   C -0.465832236E+01 -0.209076699E+00  0.971824978E-01
   C  0.427205735E+01  0.855940430E-01  0.976882299E-01
   H -0.225096517E+02  0.227135475E+01 -0.167149291E+01
   H  0.219629147E+02  0.636886088E+00 -0.113307541E+01
     4
 # iter = 49500  time[fs]=49.50000
   C -0.474301185E+01 -0.213042636E+00  0.994223700E-01
   C  0.434959246E+01  0.870311186E-01  0.996852995E-01
   H -0.228766039E+02  0.230856916E+01 -0.169827993E+01
   H  0.223176517E+02  0.646740124E+00 -0.115137477E+01
     4
 # iter = 50000  time[fs]=50.00000
   C -0.482784220E+01 -0.217014664E+00  0.101663253E+00
   C  0.442726785E+01  0.884724016E-01  0.101683245E+00
   H -0.232437199E+02  0.234580197E+01 -0.172508019E+01
   H  0.226725595E+02  0.656598359E+00 -0.116968354E+01
     4
 # iter = 50500  time[fs]=50.50000
   C -0.491280851E+01 -0.220992577E+00  0.103905120E+00
   C  0.450507861E+01  0.899177442E-01  0.103682036E+00
   H -0.236109945E+02  0.238305262E+01 -0.175189328E+01
   H  0.230276328E+02  0.666460662E+00 -0.118800144E+01
     4
 # iter = 51000  time[fs]=51.00000
   C -0.499790608E+01 -0.224976180E+00  0.106147944E+00
   C  0.458302008E+01  0.913670061E-01  0.105681645E+00
   H -0.239784230E+02  0.242032058E+01 -0.177871882E+01
   H  0.233828668E+02  0.676326909E+00 -0.120632818E+01
     4
 # iter = 51500  time[fs]=51.50000
   C -0.508313046E+01 -0.228965288E+00  0.108391703E+00
   C  0.466108781E+01  0.928200538E-01  0.107682043E+00
   H -0.243460007E+02  0.245760534E+01 -0.180555644E+01
   H  0.237382566E+02  0.686196982E+00 -0.122466353E+01
     4
 # iter = 52000  time[fs]=52.00000
   C -0.516847741E+01 -0.232959723E+00  0.110636370E+00
   C  0.473927757E+01  0.942767605E-01  0.109683205E+00
   H -0.247137232E+02  0.249490641E+01 -0.183240579E+01
   H  0.240937976E+02  0.696070768E+00 -0.124300722E+01
     4
 # iter = 52500  time[fs]=52.50000
   C -0.525394291E+01 -0.236959317E+00  0.112881924E+00
   C  0.481758536E+01  0.957370052E-01  0.111685106E+00
   H -0.250815864E+02  0.253222332E+01 -0.185926652E+01
   H  0.244494854E+02  0.705948157E+00 -0.126135903E+01
     4
 # iter = 53000  time[fs]=53.00000
   C -0.533952311E+01 -0.240963910E+00  0.115128342E+00
   C  0.489600734E+01  0.972006729E-01  0.113687723E+00
   H -0.254495860E+02  0.256955563E+01 -0.188613833E+01
   H  0.248053159E+02  0.715829046E+00 -0.127971874E+01
     4
 # iter = 53500  time[fs]=53.50000
   C -0.542521433E+01 -0.244973346E+00  0.117375602E+00
   C  0.497453985E+01  0.986676538E-01  0.115691034E+00
   H -0.258177183E+02  0.260690292E+01 -0.191302089E+01
   H  0.251612850E+02  0.725713336E+00 -0.129808612E+01
     4
 # iter = 54000  time[fs]=54.00000
   C -0.551101310E+01 -0.248987481E+00  0.119623684E+00
   C  0.505317941E+01  0.100137843E+00  0.117695017E+00
   H -0.261859796E+02  0.264426478E+01 -0.193991392E+01
   H  0.255173889E+02  0.735600931E+00 -0.131646096E+01
     4
 # iter = 54500  time[fs]=54.50000
   C -0.559691606E+01 -0.253006172E+00  0.121872568E+00
   C  0.513192270E+01  0.101611141E+00  0.119699653E+00
   H -0.265543662E+02  0.268164080E+01 -0.196681713E+01
   H  0.258736239E+02  0.745491740E+00 -0.133484307E+01
     4
 # iter = 55000  time[fs]=55.00000
   C -0.568292004E+01 -0.257029287E+00  0.124122234E+00
   C  0.521076653E+01  0.103087452E+00  0.121704921E+00
   H -0.269228749E+02  0.271903061E+01 -0.199373024E+01
   H  0.262299865E+02  0.755385676E+00 -0.135323226E+01
     4
 # iter = 55500  time[fs]=55.50000
   C -0.576902197E+01 -0.261056696E+00  0.126372664E+00
   C  0.528970786E+01  0.104566685E+00  0.123710803E+00
   H -0.272915022E+02  0.275643386E+01 -0.202065299E+01
   H  0.265864732E+02  0.765282653E+00 -0.137162834E+01
     4
 # iter = 56000  time[fs]=56.00000
   C -0.585521894E+01 -0.265088276E+00  0.128623840E+00
   C  0.536874380E+01  0.106048753E+00  0.125717282E+00
   H -0.276602451E+02  0.279385019E+01 -0.204758513E+01
   H  0.269430808E+02  0.775182592E+00 -0.139003114E+01
     4
 # iter = 56500  time[fs]=56.50000
   C -0.594150816E+01 -0.269123911E+00  0.130875744E+00
   C  0.544787155E+01  0.107533571E+00  0.127724340E+00
   H -0.280291005E+02  0.283127926E+01 -0.207452643E+01
   H  0.272998061E+02  0.785085415E+00 -0.140844048E+01
     4
 # iter = 57000  time[fs]=57.00000
   C -0.602788696E+01 -0.273163485E+00  0.133128359E+00
   C  0.552708845E+01  0.109021060E+00  0.129731962E+00
   H -0.283980656E+02  0.286872076E+01 -0.210147664E+01
   H  0.276566461E+02  0.794991048E+00 -0.142685620E+01
     4
 # iter = 57500  time[fs]=57.50000
   C -0.611435277E+01 -0.277206891E+00  0.135381670E+00
   C  0.560639195E+01  0.110511144E+00  0.131740131E+00
   H -0.287671375E+02  0.290617438E+01 -0.212843554E+01
   H  0.280135979E+02  0.804899417E+00 -0.144527815E+01
     4
 # iter = 58000  time[fs]=58.00000
   C -0.620090314E+01 -0.281254025E+00  0.137635659E+00
   C  0.568577961E+01  0.112003748E+00  0.133748834E+00
   H -0.291363135E+02  0.294363980E+01 -0.215540292E+01
   H  0.283706588E+02  0.814810455E+00 -0.146370616E+01
     4
 # iter = 58500  time[fs]=58.50000
   C -0.628753571E+01 -0.285304787E+00  0.139890314E+00
   C  0.576524907E+01  0.113498803E+00  0.135758055E+00
   H -0.295055911E+02  0.298111676E+01 -0.218237857E+01
   H  0.287278259E+02  0.824724095E+00 -0.148214011E+01
     4
 # iter = 59000  time[fs]=59.00000
   C -0.637424822E+01 -0.289359081E+00  0.142145617E+00
   C  0.584479808E+01  0.114996240E+00  0.137767781E+00
   H -0.298749677E+02  0.301860496E+01 -0.220936229E+01
   H  0.290850968E+02  0.834640273E+00 -0.150057983E+01
     4
 # iter = 59500  time[fs]=59.50000
   C -0.646103850E+01 -0.293416814E+00  0.144401556E+00
   C  0.592442448E+01  0.116495995E+00  0.139777999E+00
   H -0.302444409E+02  0.305610415E+01 -0.223635388E+01
   H  0.294424688E+02  0.844558927E+00 -0.151902521E+01
     4
 # iter = 60000  time[fs]=60.00000
   C -0.654790447E+01 -0.297477897E+00  0.146658115E+00
   C  0.600412618E+01  0.117998006E+00  0.141788696E+00
   H -0.306140085E+02  0.309361406E+01 -0.226335317E+01
   H  0.297999397E+02  0.854479998E+00 -0.153747610E+01
     4
 # iter = 60500  time[fs]=60.50000
   C -0.663484411E+01 -0.301542245E+00  0.148915283E+00
   C  0.608390120E+01  0.119502212E+00  0.143799861E+00
   H -0.309836682E+02  0.313113444E+01 -0.229035996E+01
   H  0.301575070E+02  0.864403427E+00 -0.155593237E+01
     4
 # iter = 61000  time[fs]=61.00000
   C -0.672185549E+01 -0.305609776E+00  0.151173046E+00
   C  0.616374761E+01  0.121008556E+00  0.145811480E+00
   H -0.313534177E+02  0.316866506E+01 -0.231737408E+01
   H  0.305151685E+02  0.874329161E+00 -0.157439392E+01
     4
 # iter = 61500  time[fs]=61.50000
   C -0.680893677E+01 -0.309680410E+00  0.153431390E+00
   C  0.624366357E+01  0.122516983E+00  0.147823544E+00
   H -0.317232552E+02  0.320620568E+01 -0.234439538E+01
   H  0.308729221E+02  0.884257144E+00 -0.159286061E+01
     4
 # iter = 62000  time[fs]=62.00000
   C -0.689608616E+01 -0.313754071E+00  0.155690305E+00
   C  0.632364728E+01  0.124027438E+00  0.149836040E+00
   H -0.320931784E+02  0.324375607E+01 -0.237142368E+01
   H  0.312307656E+02  0.894187327E+00 -0.161133234E+01
     4
 # iter = 62500  time[fs]=62.50000
   C -0.698330193E+01 -0.317830685E+00  0.157949778E+00
   C  0.640369705E+01  0.125539871E+00  0.151848960E+00
   H -0.324631855E+02  0.328131602E+01 -0.239845883E+01
   H  0.315886970E+02  0.904119658E+00 -0.162980899E+01
     4
 # iter = 63000  time[fs]=63.00000
   C -0.707058244E+01 -0.321910182E+00  0.160209798E+00
   C  0.648381122E+01  0.127054232E+00  0.153862292E+00
   H -0.328332747E+02  0.331888533E+01 -0.242550068E+01
   H  0.319467144E+02  0.914054089E+00 -0.164829045E+01
     4
 # iter = 63500  time[fs]=63.50000
   C -0.715792607E+01 -0.325992492E+00  0.162470354E+00
   C  0.656398819E+01  0.128570473E+00  0.155876027E+00
   H -0.332034440E+02  0.335646377E+01 -0.245254908E+01
   H  0.323048159E+02  0.923990575E+00 -0.166677663E+01
     4
 # iter = 64000  time[fs]=64.00000
   C -0.724533130E+01 -0.330077550E+00  0.164731434E+00
   C  0.664422645E+01  0.130088549E+00  0.157890156E+00
   H -0.335736917E+02  0.339405117E+01 -0.247960389E+01
   H  0.326629996E+02  0.933929069E+00 -0.168526741E+01
     4
 # iter = 64500  time[fs]=64.50000
   C -0.733279664E+01 -0.334165291E+00  0.166993029E+00
   C  0.672452450E+01  0.131608415E+00  0.159904669E+00
   H -0.339440162E+02  0.343164733E+01 -0.250666498E+01
   H  0.330212637E+02  0.943869529E+00 -0.170376271E+01
     4
 # iter = 65000  time[fs]=65.00000
   C -0.742032066E+01 -0.338255655E+00  0.169255128E+00
   C  0.680488092E+01  0.133130028E+00  0.161919559E+00
   H -0.343144157E+02  0.346925206E+01 -0.253373221E+01
   H  0.333796066E+02  0.953811911E+00 -0.172226243E+01
     4
 # iter = 65500  time[fs]=65.50000
   C -0.750790196E+01 -0.342348580E+00  0.171517721E+00
   C  0.688529433E+01  0.134653347E+00  0.163934816E+00
   H -0.346848888E+02  0.350686519E+01 -0.256080544E+01
   H  0.337380266E+02  0.963756176E+00 -0.174076648E+01
     4
 # iter = 66000  time[fs]=66.00000
   C -0.759553922E+01 -0.346444011E+00  0.173780798E+00
   C  0.696576340E+01  0.136178332E+00  0.165950432E+00
   H -0.350554337E+02  0.354448654E+01 -0.258788457E+01
   H  0.340965220E+02  0.973702282E+00 -0.175927477E+01
     4
 # iter = 66500  time[fs]=66.50000
   C -0.768323115E+01 -0.350541891E+00  0.176044351E+00
   C  0.704628685E+01  0.137704944E+00  0.167966399E+00
   H -0.354260491E+02  0.358211595E+01 -0.261496946E+01
   H  0.344550913E+02  0.983650193E+00 -0.177778721E+01
     4
 # iter = 67000  time[fs]=67.00000
   C -0.777097649E+01 -0.354642166E+00  0.178308370E+00
   C  0.712686344E+01  0.139233147E+00  0.169982710E+00
   H -0.357967335E+02  0.361975324E+01 -0.264206000E+01
   H  0.348137330E+02  0.993599871E+00 -0.179630372E+01
     4
 # iter = 67500  time[fs]=67.50000
   C -0.785877404E+01 -0.358744783E+00  0.180572847E+00
   C  0.720749195E+01  0.140762904E+00  0.171999358E+00
   H -0.361674855E+02  0.365739828E+01 -0.266915608E+01
   H  0.351724457E+02  0.100355128E+01 -0.181482422E+01
     4
 # iter = 68000  time[fs]=68.00000
   C -0.794662264E+01 -0.362849694E+00  0.182837772E+00
   C  0.728817124E+01  0.142294180E+00  0.174016335E+00
   H -0.365383037E+02  0.369505089E+01 -0.269625758E+01
   H  0.355312278E+02  0.101350438E+01 -0.183334864E+01
     4
 # iter = 68500  time[fs]=68.50000
   C -0.803452116E+01 -0.366956848E+00  0.185103138E+00
   C  0.736890018E+01  0.143826942E+00  0.176033635E+00
   H -0.369091868E+02  0.373271094E+01 -0.272336440E+01
   H  0.358900781E+02  0.102345915E+01 -0.185187688E+01
     4
 # iter = 69000  time[fs]=69.00000
   C -0.812246849E+01 -0.371066198E+00  0.187368936E+00
   C  0.744967767E+01  0.145361157E+00  0.178051250E+00
   H -0.372801335E+02  0.377037827E+01 -0.275047644E+01
   H  0.362489951E+02  0.103341555E+01 -0.187040889E+01
     4
 # iter = 69500  time[fs]=69.50000
   C -0.821046359E+01 -0.375177698E+00  0.189635158E+00
   C  0.753050268E+01  0.146896793E+00  0.180069174E+00
   H -0.376511426E+02  0.380805276E+01 -0.277759359E+01
   H  0.366079776E+02  0.104337354E+01 -0.188894460E+01
     4
 # iter = 70000  time[fs]=70.00000
   C -0.829850544E+01 -0.379291304E+00  0.191901797E+00
   C  0.761137417E+01  0.148433821E+00  0.182087402E+00
   H -0.380222128E+02  0.384573425E+01 -0.280471575E+01
   H  0.369670243E+02  0.105333310E+01 -0.190748391E+01
     4
 # iter = 70500  time[fs]=70.50000
   C -0.838659303E+01 -0.383406973E+00  0.194168846E+00
   C  0.769229116E+01  0.149972210E+00  0.184105926E+00
   H -0.383933430E+02  0.388342263E+01 -0.283184284E+01
   H  0.373261340E+02  0.106329419E+01 -0.192602679E+01
     4
 # iter = 71000  time[fs]=71.00000
   C -0.847472542E+01 -0.387524663E+00  0.196436296E+00
   C  0.777325270E+01  0.151511932E+00  0.186124741E+00
   H -0.387645321E+02  0.392111775E+01 -0.285897476E+01
   H  0.376853054E+02  0.107325679E+01 -0.194457315E+01
     4
 # iter = 71500  time[fs]=71.50000
   C -0.856290166E+01 -0.391644333E+00  0.198704141E+00
   C  0.785425785E+01  0.153052958E+00  0.188143842E+00
   H -0.391357789E+02  0.395881950E+01 -0.288611141E+01
   H  0.380445375E+02  0.108322087E+01 -0.196312293E+01
     4
 # iter = 72000  time[fs]=72.00000
   C -0.865112085E+01 -0.395765944E+00  0.200972374E+00
   C  0.793530571E+01  0.154595263E+00  0.190163222E+00
   H -0.395070823E+02  0.399652776E+01 -0.291325272E+01
   H  0.384038291E+02  0.109318640E+01 -0.198167607E+01
     4
 # iter = 72500  time[fs]=72.50000
   C -0.873938213E+01 -0.399889457E+00  0.203240988E+00
   C  0.801639542E+01  0.156138819E+00  0.192182876E+00
   H -0.398784413E+02  0.403424240E+01 -0.294039859E+01
   H  0.387631791E+02  0.110315335E+01 -0.200023250E+01
     4
 # iter = 73000  time[fs]=73.00000
   C -0.882768462E+01 -0.404014836E+00  0.205509977E+00
   C  0.809752613E+01  0.157683601E+00  0.194202800E+00
   H -0.402498549E+02  0.407196332E+01 -0.296754895E+01
   H  0.391225864E+02  0.111312170E+01 -0.201879218E+01
     4
 # iter = 73500  time[fs]=73.50000
   C -0.891602752E+01 -0.408142045E+00  0.207779334E+00
   C  0.817869701E+01  0.159229586E+00  0.196222988E+00
   H -0.406213221E+02  0.410969039E+01 -0.299470371E+01
   H  0.394820500E+02  0.112309142E+01 -0.203735504E+01
     4
 # iter = 74000  time[fs]=74.00000
   C -0.900441002E+01 -0.412271047E+00  0.210049053E+00
   C  0.825990727E+01  0.160776748E+00  0.198243434E+00
   H -0.409928420E+02  0.414742351E+01 -0.302186279E+01
   H  0.398415690E+02  0.113306249E+01 -0.205592103E+01
     4
 # iter = 74500  time[fs]=74.50000
   C -0.909283134E+01 -0.416401810E+00  0.212319127E+00
   C  0.834115614E+01  0.162325066E+00  0.200264135E+00
   H -0.413644135E+02  0.418516258E+01 -0.304902612E+01
   H  0.402011422E+02  0.114303488E+01 -0.207449009E+01
     4
 # iter = 75000  time[fs]=75.00000
   C -0.918129073E+01 -0.420534300E+00  0.214589552E+00
   C  0.842244286E+01  0.163874515E+00  0.202285085E+00
   H -0.417360358E+02  0.422290749E+01 -0.307619363E+01
   H  0.405607687E+02  0.115300857E+01 -0.209306217E+01
     4
 # iter = 75500  time[fs]=75.50000
   C -0.926978746E+01 -0.424668486E+00  0.216860321E+00
   C  0.850376670E+01  0.165425075E+00  0.204306280E+00
   H -0.421077079E+02  0.426065813E+01 -0.310336524E+01
   H  0.409204477E+02  0.116298354E+01 -0.211163722E+01
     4
 # iter = 76000  time[fs]=76.00000
   C -0.935832080E+01 -0.428804335E+00  0.219131428E+00
   C  0.858512695E+01  0.166976724E+00  0.206327716E+00
   H -0.424794291E+02  0.429841442E+01 -0.313054088E+01
   H  0.412801782E+02  0.117295977E+01 -0.213021518E+01
     4
 # iter = 76500  time[fs]=76.50000
   C -0.944689007E+01 -0.432941817E+00  0.221402868E+00
   C  0.866652292E+01  0.168529441E+00  0.208349388E+00
   H -0.428511984E+02  0.433617625E+01 -0.315772048E+01
   H  0.416399593E+02  0.118293722E+01 -0.214879601E+01
     4
 # iter = 77000  time[fs]=77.00000
   C -0.953549459E+01 -0.437080903E+00  0.223674636E+00
   C  0.874795394E+01  0.170083206E+00  0.210371292E+00
   H -0.432230151E+02  0.437394354E+01 -0.318490398E+01
   H  0.419997901E+02  0.119291589E+01 -0.216737966E+01
     4
 # iter = 77500  time[fs]=77.50000
   C -0.962413370E+01 -0.441221564E+00  0.225946725E+00
   C  0.882941936E+01  0.171638000E+00  0.212393424E+00
   H -0.435948783E+02  0.441171619E+01 -0.321209131E+01
   H  0.423596699E+02  0.120289575E+01 -0.218596608E+01
     4
 # iter = 78000  time[fs]=78.00000
   C -0.971280678E+01 -0.445363771E+00  0.228219133E+00
   C  0.891091855E+01  0.173193804E+00  0.214415781E+00
   H -0.439667872E+02  0.444949411E+01 -0.323928241E+01
   H  0.427195978E+02  0.121287678E+01 -0.220455523E+01
     4
 # iter = 78500  time[fs]=78.50000
   C -0.980151319E+01 -0.449507498E+00  0.230491852E+00
   C  0.899245087E+01  0.174750600E+00  0.216438357E+00
   H -0.443387412E+02  0.448727722E+01 -0.326647721E+01
   H  0.430795729E+02  0.122285896E+01 -0.222314707E+01
     4
 # iter = 79000  time[fs]=79.00000
   C -0.989025234E+01 -0.453652717E+00  0.232764878E+00
   C  0.907401575E+01  0.176308368E+00  0.218461150E+00
   H -0.447107394E+02  0.452506543E+01 -0.329367566E+01
   H  0.434395946E+02  0.123284227E+01 -0.224174154E+01
     4
 # iter = 79500  time[fs]=79.50000
   C -0.997902363E+01 -0.457799404E+00  0.235038207E+00
   C  0.915561258E+01  0.177867092E+00  0.220484155E+00
   H -0.450827811E+02  0.456285866E+01 -0.332087769E+01
   H  0.437996621E+02  0.124282670E+01 -0.226033861E+01
     4
 # iter = 80000  time[fs]=80.00000
   C -0.100678265E+02 -0.461947532E+00  0.237311834E+00
   C  0.923724080E+01  0.179426755E+00  0.222507370E+00
   H -0.454548656E+02  0.460065683E+01 -0.334808325E+01
   H  0.441597746E+02  0.125281223E+01 -0.227893824E+01
