     4
 # iter = 25000  time[fs]=25.00000
   C -0.967748324E+00  0.279800893E-01  0.181497938E-01
   C  0.100646156E+01 -0.267045602E-01  0.319400733E-01
   H -0.531199652E+01  0.172436270E+00 -0.536703149E+00
   H  0.529684094E+01  0.425238282E+00  0.483046110E+00
     4
 # iter = 25500  time[fs]=25.50000
   C -0.101153479E+01  0.273842400E-01  0.208281064E-01
   C  0.104859791E+01 -0.296919597E-01  0.319719816E-01
   H -0.564181280E+01  0.179846348E+00 -0.569861253E+00
   H  0.561527935E+01  0.450007436E+00  0.514072303E+00
     4
 # iter = 26000  time[fs]=26.00000
   C -0.105887216E+01  0.268801297E-01  0.234986873E-01
   C  0.109428104E+01 -0.327957192E-01  0.320151166E-01
   H -0.597424563E+01  0.187325971E+00 -0.603315897E+00
   H  0.593638370E+01  0.475002497E+00  0.545353097E+00
     4
 # iter = 26500  time[fs]=26.50000
   C -0.110946328E+01  0.264602657E-01  0.261666059E-01
   C  0.114321390E+01 -0.360056079E-01  0.320639132E-01
   H -0.630900805E+01  0.194866900E+00 -0.637034291E+00
   H  0.625986597E+01  0.500198847E+00  0.576861648E+00
     4
 # iter = 27000  time[fs]=27.00000
   C -0.116302894E+01  0.261175585E-01  0.288358967E-01
   C  0.119511742E+01 -0.393122356E-01  0.321139360E-01
   H -0.664585723E+01  0.202462263E+00 -0.670988829E+00
   H  0.658548170E+01  0.525575750E+00  0.608575164E+00
     4
 # iter = 27500  time[fs]=27.50000
   C -0.121931022E+01  0.258453983E-01  0.315096939E-01
   C  0.124973281E+01 -0.427070400E-01  0.321617225E-01
   H -0.698458595E+01  0.210106273E+00 -0.705156053E+00
   H  0.691302178E+01  0.551115561E+00  0.640474124E+00
     4
 # iter = 28000  time[fs]=28.00000
   C -0.127806931E+01  0.256376896E-01  0.341903741E-01
   C  0.130682245E+01 -0.461822538E-01  0.322046245E-01
   H -0.732501604E+01  0.217794009E+00 -0.739515856E+00
   H  0.724230597E+01  0.576803142E+00  0.672541680E+00
     4
 # iter = 28500  time[fs]=28.50000
   C -0.133908940E+01  0.254888557E-01  0.368796904E-01
   C  0.136616970E+01 -0.497308579E-01  0.322406616E-01
   H -0.766699319E+01  0.225521254E+00 -0.774050869E+00
   H  0.757317790E+01  0.602625400E+00  0.704763193E+00
     4
 # iter = 29000  time[fs]=29.00000
   C -0.140217381E+01  0.253938244E-01  0.395788938E-01
   C  0.142757806E+01 -0.533465265E-01  0.322683912E-01
   H -0.801038298E+01  0.233284370E+00 -0.808745990E+00
   H  0.790550105E+01  0.628570928E+00  0.737125857E+00
     4
 # iter = 29500  time[fs]=29.50000
   C -0.146714480E+01  0.253480010E-01  0.422888358E-01
   C  0.149086995E+01 -0.570235682E-01  0.322867987E-01
   H -0.835506756E+01  0.241080194E+00 -0.843587997E+00
   H  0.823915559E+01  0.654629733E+00  0.769618411E+00
     4
 # iter = 30000  time[fs]=30.00000
   C -0.153384209E+01  0.253472346E-01  0.450100553E-01
   C  0.155588525E+01 -0.607568672E-01  0.322952053E-01
   H -0.870094310E+01  0.248905958E+00 -0.878565253E+00
   H  0.857403575E+01  0.680793000E+00  0.802230893E+00
     4
 # iter = 30500  time[fs]=30.50000
   C -0.160212136E+01  0.253877812E-01  0.477428492E-01
   C  0.162247979E+01 -0.645418260E-01  0.322931937E-01
   H -0.904791766E+01  0.256759233E+00 -0.913667459E+00
   H  0.891004775E+01  0.707052918E+00  0.834954453E+00
     4
 # iter = 31000  time[fs]=31.00000
   C -0.167185273E+01  0.254662667E-01  0.504873290E-01
   C  0.169052384E+01 -0.683743116E-01  0.322805474E-01
   H -0.939590942E+01  0.264637867E+00 -0.948885456E+00
   H  0.924710808E+01  0.733402532E+00  0.867781188E+00
     4
 # iter = 31500  time[fs]=31.50000
   C -0.174291928E+01  0.255796508E-01  0.532434668E-01
   C  0.175990061E+01 -0.722506061E-01  0.322572030E-01
   H -0.974484532E+01  0.272539953E+00 -0.984211064E+00
   H  0.958514202E+01  0.759835618E+00  0.900704015E+00
     4
 # iter = 32000  time[fs]=32.00000
   C -0.181521576E+01  0.257251931E-01  0.560111304E-01
   C  0.183050499E+01 -0.761673612E-01  0.322232124E-01
   H -0.100946598E+02  0.280463787E+00 -0.101963694E+01
   H  0.992408249E+01  0.786346584E+00  0.933716558E+00
     4
 # iter = 32500  time[fs]=32.50000
   C -0.188864729E+01  0.259004214E-01  0.587901119E-01
   C  0.190224220E+01 -0.801215576E-01  0.321787125E-01
   H -0.104452939E+02  0.288407844E+00 -0.105515648E+01
   H  0.102638691E+02  0.812930389E+00  0.966813061E+00
     4
 # iter = 33000  time[fs]=33.00000
   C -0.196312827E+01  0.261031037E-01  0.615801491E-01
   C  0.197502678E+01 -0.841104685E-01  0.321239026E-01
   H -0.107966942E+02  0.296370754E+00 -0.109076371E+01
   H  0.106044471E+02  0.839582471E+00  0.999988303E+00
     4
 # iter = 33500  time[fs]=33.50000
   C -0.203858137E+01  0.263312218E-01  0.643809430E-01
   C  0.204878147E+01 -0.881316276E-01  0.320590259E-01
   H -0.111488125E+02  0.304351279E+00 -0.112645322E+01
   H  0.109457670E+02  0.866298684E+00  0.103323754E+01
     4
 # iter = 34000  time[fs]=34.00000
   C -0.211493660E+01  0.265829485E-01  0.671921699E-01
   C  0.212343640E+01 -0.921827998E-01  0.319843560E-01
   H -0.115016048E+02  0.312348299E+00 -0.116222007E+01
   H  0.112877837E+02  0.893075256E+00  0.106655645E+01
     4
 # iter = 34500  time[fs]=34.50000
   C -0.219213053E+01  0.268566268E-01  0.700134921E-01
   C  0.219892822E+01 -0.962619559E-01  0.319001858E-01
   H -0.118550312E+02  0.320360796E+00 -0.119805977E+01
   H  0.116304560E+02  0.919908739E+00  0.109994107E+01
     4
 # iter = 35000  time[fs]=35.00000
   C -0.227010558E+01  0.271507519E-01  0.728445651E-01
   C  0.227519944E+01 -0.100367251E+00  0.318068194E-01
   H -0.122090549E+02  0.328387845E+00 -0.123396822E+01
   H  0.119737463E+02  0.946795975E+00  0.113338778E+01
     4
 # iter = 35500  time[fs]=35.50000
   C -0.234880936E+01  0.274639544E-01  0.756850432E-01
   C  0.235219777E+01 -0.104497003E+00  0.317045659E-01
   H -0.125636425E+02  0.336428598E+00 -0.126994163E+01
   H  0.123176202E+02  0.973734063E+00  0.116689323E+01
     4
 # iter = 36000  time[fs]=36.00000
   C -0.242819418E+01  0.277949865E-01  0.785345835E-01
   C  0.242987556E+01 -0.108649677E+00  0.315937352E-01
   H -0.129187631E+02  0.344482282E+00 -0.130597655E+01
   H  0.126620458E+02  0.100072033E+01  0.120045437E+01
     4
 # iter = 36500  time[fs]=36.50000
   C -0.250821647E+01  0.281427090E-01  0.813928495E-01
   C  0.250818934E+01 -0.112823870E+00  0.314746337E-01
   H -0.132743884E+02  0.352548183E+00 -0.134206976E+01
   H  0.130069940E+02  0.102775232E+01  0.123406836E+01
     4
 # iter = 37000  time[fs]=37.00000
   C -0.258883641E+01  0.285060798E-01  0.842595129E-01
   C  0.258709934E+01 -0.117018295E+00  0.313475623E-01
   H -0.136304922E+02  0.360625649E+00 -0.137821833E+01
   H  0.133524378E+02  0.105482775E+01  0.126773256E+01
     4
 # iter = 37500  time[fs]=37.50000
   C -0.267001754E+01  0.288841445E-01  0.871342550E-01
   C  0.266656917E+01 -0.121231771E+00  0.312128147E-01
   H -0.139870503E+02  0.368714074E+00 -0.141441952E+01
   H  0.136983522E+02  0.108194451E+01  0.130144455E+01
     4
 # iter = 38000  time[fs]=38.00000
   C -0.275172640E+01  0.292760269E-01  0.900167680E-01
   C  0.274656542E+01 -0.125463212E+00  0.310706758E-01
   H -0.143440402E+02  0.376812902E+00 -0.145067079E+01
   H  0.140447141E+02  0.110910064E+01  0.133520208E+01
     4
 # iter = 38500  time[fs]=38.50000
   C -0.283393221E+01  0.296809219E-01  0.929067554E-01
   C  0.282705738E+01 -0.129711619E+00  0.309214208E-01
   H -0.147014411E+02  0.384921615E+00 -0.148696979E+01
   H  0.143915020E+02  0.113629431E+01  0.136900302E+01
     4
 # iter = 39000  time[fs]=39.00000
   C -0.291660668E+01  0.300980879E-01  0.958039326E-01
   C  0.290801679E+01 -0.133976068E+00  0.307653153E-01
   H -0.150592337E+02  0.393039734E+00 -0.152331432E+01
   H  0.147386960E+02  0.116352383E+01  0.140284544E+01
     4
 # iter = 39500  time[fs]=39.50000
   C -0.299972368E+01  0.305268410E-01  0.987080265E-01
   C  0.298941758E+01 -0.138255706E+00  0.306026143E-01
   H -0.154173999E+02  0.401166814E+00 -0.155970235E+01
   H  0.150862774E+02  0.119078762E+01  0.143672749E+01
     4
 # iter = 40000  time[fs]=40.00000
   C -0.308325909E+01  0.309665495E-01  0.101618776E+00
   C  0.307123569E+01 -0.142549743E+00  0.304335627E-01
   H -0.157759229E+02  0.409302441E+00 -0.159613196E+01
   H  0.154342288E+02  0.121808419E+01  0.147064747E+01
     4
 # iter = 40500  time[fs]=40.50000
   C -0.316719060E+01  0.314166290E-01  0.104535931E+00
   C  0.315344883E+01 -0.146857448E+00  0.302583950E-01
   H -0.161347870E+02  0.417446226E+00 -0.163260137E+01
   H  0.157825340E+02  0.124541215E+01  0.150460378E+01
     4
 # iter = 41000  time[fs]=41.00000
   C -0.325149754E+01  0.318765378E-01  0.107459252E+00
   C  0.323603639E+01 -0.151178139E+00  0.300773356E-01
   H -0.164939775E+02  0.425597811E+00 -0.166910891E+01
   H  0.161311779E+02  0.127277020E+01  0.153859490E+01
     4
 # iter = 41500  time[fs]=41.50000
   C -0.333616072E+01  0.323457734E-01  0.110388513E+00
   C  0.331897920E+01 -0.155511185E+00  0.298905992E-01
   H -0.168534806E+02  0.433756855E+00 -0.170565300E+01
   H  0.164801461E+02  0.130015713E+01  0.157261944E+01
     4
 # iter = 42000  time[fs]=42.00000
   C -0.342116231E+01  0.328238687E-01  0.113323496E+00
   C  0.340225949E+01 -0.159855997E+00  0.296983909E-01
   H -0.172132834E+02  0.441923044E+00 -0.174223217E+01
   H  0.168294253E+02  0.132757178E+01  0.160667606E+01
     4
 # iter = 42500  time[fs]=42.50000
   C -0.350648573E+01  0.333103892E-01  0.116263993E+00
   C  0.348586070E+01 -0.164212025E+00  0.295009065E-01
   H -0.175733737E+02  0.450096079E+00 -0.177884504E+01
   H  0.171790029E+02  0.135501308E+01  0.164076352E+01
     4
 # iter = 43000  time[fs]=43.00000
   C -0.359211552E+01  0.338049299E-01  0.119209807E+00
   C  0.356976740E+01 -0.168578755E+00  0.292983331E-01
   H -0.179337401E+02  0.458275683E+00 -0.181549030E+01
   H  0.175288671E+02  0.138248000E+01  0.167488064E+01
     4
 # iter = 43500  time[fs]=43.50000
   C -0.367803726E+01  0.343071129E-01  0.122160749E+00
   C  0.365396520E+01 -0.172955709E+00  0.290908492E-01
   H -0.182943719E+02  0.466461593E+00 -0.185216672E+01
   H  0.178790068E+02  0.140997159E+01  0.170902630E+01
     4
 # iter = 44000  time[fs]=44.00000
   C -0.376423747E+01  0.348165850E-01  0.125116639E+00
   C  0.373844066E+01 -0.177342437E+00  0.288786254E-01
   H -0.186552588E+02  0.474653563E+00 -0.188887314E+01
   H  0.182294114E+02  0.143748693E+01  0.174319946E+01
     4
 # iter = 44500  time[fs]=44.50000
   C -0.385070355E+01  0.353330161E-01  0.128077306E+00
   C  0.382318120E+01 -0.181738518E+00  0.286618244E-01
   H -0.190163913E+02  0.482851359E+00 -0.192560846E+01
   H  0.185800711E+02  0.146502518E+01  0.177739913E+01
     4
 # iter = 45000  time[fs]=45.00000
   C -0.393742368E+01  0.358560968E-01  0.131042587E+00
   C  0.390817504E+01 -0.186143556E+00  0.284406015E-01
   H -0.193777603E+02  0.491054761E+00 -0.196237164E+01
   H  0.189309764E+02  0.149258551E+01  0.181162436E+01
     4
 # iter = 45500  time[fs]=45.50000
   C -0.402438681E+01  0.363855371E-01  0.134012325E+00
   C  0.399341114E+01 -0.190557180E+00  0.282151051E-01
   H -0.197393573E+02  0.499263564E+00 -0.199916170E+01
   H  0.192821185E+02  0.152016716E+01  0.184587426E+01
     4
 # iter = 46000  time[fs]=46.00000
   C -0.411158254E+01  0.369210647E-01  0.136986371E+00
   C  0.407887913E+01 -0.194979040E+00  0.279854769E-01
   H -0.201011742E+02  0.507477569E+00 -0.203597771E+01
   H  0.196334889E+02  0.154776940E+01  0.188014799E+01
     4
 # iter = 46500  time[fs]=46.50000
   C -0.419900109E+01  0.374624237E-01  0.139964583E+00
   C  0.416456926E+01 -0.199408808E+00  0.277518524E-01
   H -0.204632033E+02  0.515696591E+00 -0.207281878E+01
   H  0.199850798E+02  0.157539153E+01  0.191444475E+01
     4
 # iter = 47000  time[fs]=47.00000
   C -0.428663329E+01  0.380093734E-01  0.142946825E+00
   C  0.425047237E+01 -0.203846173E+00  0.275143608E-01
   H -0.208254372E+02  0.523920455E+00 -0.210968407E+01
   H  0.203368836E+02  0.160303290E+01  0.194876378E+01
     4
 # iter = 47500  time[fs]=47.50000
   C -0.437447049E+01  0.385616871E-01  0.145932967E+00
   C  0.433657983E+01 -0.208290843E+00  0.272731258E-01
   H -0.211878691E+02  0.532148993E+00 -0.214657278E+01
   H  0.206888930E+02  0.163069287E+01  0.198310434E+01
     4
 # iter = 48000  time[fs]=48.00000
   C -0.446250452E+01  0.391191511E-01  0.148922886E+00
   C  0.442288350E+01 -0.212742540E+00  0.270282656E-01
   H -0.215504924E+02  0.540382047E+00 -0.218348416E+01
   H  0.210411012E+02  0.165837086E+01  0.201746576E+01
     4
 # iter = 48500  time[fs]=48.50000
   C -0.455072768E+01  0.396815638E-01  0.151916462E+00
   C  0.450937570E+01 -0.217201003E+00  0.267798935E-01
   H -0.219133007E+02  0.548619465E+00 -0.222041748E+01
   H  0.213935019E+02  0.168606629E+01  0.205184736E+01
     4
 # iter = 49000  time[fs]=49.00000
   C -0.463913270E+01  0.402487345E-01  0.154913583E+00
   C  0.459604918E+01 -0.221665985E+00  0.265281176E-01
   H -0.222762883E+02  0.556861106E+00 -0.225737205E+01
   H  0.217460887E+02  0.171377863E+01  0.208624854E+01
     4
 # iter = 49500  time[fs]=49.50000
   C -0.472771272E+01  0.408204832E-01  0.157914140E+00
   C  0.468289708E+01 -0.226137250E+00  0.262730415E-01
   H -0.226394493E+02  0.565106832E+00 -0.229434722E+01
   H  0.220988558E+02  0.174150736E+01  0.212066868E+01
     4
 # iter = 50000  time[fs]=50.00000
   C -0.481646122E+01  0.413966396E-01  0.160918029E+00
   C  0.476991292E+01 -0.230614578E+00  0.260147645E-01
   H -0.230027784E+02  0.573356513E+00 -0.233134236E+01
   H  0.224517976E+02  0.176925198E+01  0.215510721E+01
     4
 # iter = 50500  time[fs]=50.50000
   C -0.490537204E+01  0.419770421E-01  0.163925150E+00
   C  0.485709053E+01 -0.235097756E+00  0.257533817E-01
   H -0.233662703E+02  0.581610026E+00 -0.236835686E+01
   H  0.228049087E+02  0.179701202E+01  0.218956360E+01
     4
 # iter = 51000  time[fs]=51.00000
   C -0.499443934E+01  0.425615379E-01  0.166935408E+00
   C  0.494442411E+01 -0.239586585E+00  0.254889841E-01
   H -0.237299202E+02  0.589867253E+00 -0.240539017E+01
   H  0.231581841E+02  0.182478703E+01  0.222403731E+01
     4
 # iter = 51500  time[fs]=51.50000
   C -0.508365757E+01  0.431499817E-01  0.169948713E+00
   C  0.503190812E+01 -0.244080873E+00  0.252216592E-01
   H -0.240937234E+02  0.598128081E+00 -0.244244172E+01
   H  0.235116187E+02  0.185257659E+01  0.225852786E+01
     4
 # iter = 52000  time[fs]=52.00000
   C -0.517302149E+01  0.437422357E-01  0.172964975E+00
   C  0.511953732E+01 -0.248580441E+00  0.249514907E-01
   H -0.244576753E+02  0.606392402E+00 -0.247951101E+01
   H  0.238652080E+02  0.188038027E+01  0.229303476E+01
     4
 # iter = 52500  time[fs]=52.50000
   C -0.526252608E+01  0.443381690E-01  0.175984111E+00
   C  0.520730671E+01 -0.253085114E+00  0.246785591E-01
   H -0.248217717E+02  0.614660113E+00 -0.251659752E+01
   H  0.242189474E+02  0.190819769E+01  0.232755755E+01
     4
 # iter = 53000  time[fs]=53.00000
   C -0.535216660E+01  0.449376572E-01  0.179006041E+00
   C  0.529521157E+01 -0.257594730E+00  0.244029417E-01
   H -0.251860084E+02  0.622931115E+00 -0.255370077E+01
   H  0.245728328E+02  0.193602846E+01  0.236209580E+01
     4
 # iter = 53500  time[fs]=53.50000
   C -0.544193851E+01  0.455405815E-01  0.182030687E+00
   C  0.538324736E+01 -0.262109130E+00  0.241247124E-01
   H -0.255503814E+02  0.631205315E+00 -0.259082032E+01
   H  0.249268599E+02  0.196387223E+01  0.239664909E+01
     4
 # iter = 54000  time[fs]=54.00000
   C -0.553183751E+01  0.461468294E-01  0.185057974E+00
   C  0.547140981E+01 -0.266628167E+00  0.238439428E-01
   H -0.259148870E+02  0.639482622E+00 -0.262795570E+01
   H  0.252810249E+02  0.199172863E+01  0.243121700E+01
     4
 # iter = 54500  time[fs]=54.50000
   C -0.562185949E+01  0.467562931E-01  0.188087831E+00
   C  0.555969481E+01 -0.271151697E+00  0.235607011E-01
   H -0.262795216E+02  0.647762950E+00 -0.266510651E+01
   H  0.256353240E+02  0.201959735E+01  0.246579916E+01
     4
 # iter = 55000  time[fs]=55.00000
   C -0.571200054E+01  0.473688701E-01  0.191120190E+00
   C  0.564809846E+01 -0.275679584E+00  0.232750533E-01
   H -0.266442815E+02  0.656046214E+00 -0.270227232E+01
   H  0.259897535E+02  0.204747805E+01  0.250039519E+01
     4
 # iter = 55500  time[fs]=55.50000
   C -0.580225691E+01  0.479844626E-01  0.194154983E+00
   C  0.573661702E+01 -0.280211697E+00  0.229870628E-01
   H -0.270091636E+02  0.664332337E+00 -0.273945276E+01
   H  0.263443100E+02  0.207537042E+01  0.253500473E+01
     4
 # iter = 56000  time[fs]=56.00000
   C -0.589262505E+01  0.486029772E-01  0.197192149E+00
   C  0.582524695E+01 -0.284747913E+00  0.226967905E-01
   H -0.273741646E+02  0.672621241E+00 -0.277664745E+01
   H  0.266989901E+02  0.210327418E+01  0.256962744E+01
     4
 # iter = 56500  time[fs]=56.50000
   C -0.598310153E+01  0.492243244E-01  0.200231624E+00
   C  0.591398484E+01 -0.289288111E+00  0.224042951E-01
   H -0.277392813E+02  0.680912853E+00 -0.281385602E+01
   H  0.270537907E+02  0.213118902E+01  0.260426298E+01
     4
 # iter = 57000  time[fs]=57.00000
   C -0.607368309E+01  0.498484190E-01  0.203273352E+00
   C  0.600282744E+01 -0.293832178E+00  0.221096332E-01
   H -0.281045109E+02  0.689207103E+00 -0.285107812E+01
   H  0.274087086E+02  0.215911469E+01  0.263891104E+01
     4
 # iter = 57500  time[fs]=57.50000
   C -0.616436662E+01  0.504751793E-01  0.206317273E+00
   C  0.609177164E+01 -0.298380004E+00  0.218128593E-01
   H -0.284698505E+02  0.697503921E+00 -0.288831343E+01
   H  0.277637409E+02  0.218705091E+01  0.267357132E+01
     4
 # iter = 58000  time[fs]=58.00000
   C -0.625514914E+01  0.511045271E-01  0.209363335E+00
   C  0.618081445E+01 -0.302931484E+00  0.215140259E-01
   H -0.288352972E+02  0.705803244E+00 -0.292556161E+01
   H  0.281188847E+02  0.221499742E+01  0.270824350E+01
     4
 # iter = 58500  time[fs]=58.50000
   C -0.634602777E+01  0.517363875E-01  0.212411483E+00
   C  0.626995304E+01 -0.307486518E+00  0.212131837E-01
   H -0.292008485E+02  0.714105009E+00 -0.296282236E+01
   H  0.284741373E+02  0.224295398E+01  0.274292732E+01
     4
 # iter = 59000  time[fs]=59.00000
   C -0.643699978E+01  0.523706887E-01  0.215461667E+00
   C  0.635918467E+01 -0.312045009E+00  0.209103814E-01
   H -0.295665018E+02  0.722409154E+00 -0.300009537E+01
   H  0.288294959E+02  0.227092036E+01  0.277762249E+01
     4
 # iter = 59500  time[fs]=59.50000
   C -0.652806254E+01  0.530073621E-01  0.218513839E+00
   C  0.644850671E+01 -0.316606863E+00  0.206056662E-01
   H -0.299322547E+02  0.730715621E+00 -0.303738036E+01
   H  0.291849582E+02  0.229889631E+01  0.281232874E+01
     4
 # iter = 60000  time[fs]=60.00000
   C -0.661921353E+01  0.536463415E-01  0.221567950E+00
   C  0.653791665E+01 -0.321171993E+00  0.202990837E-01
   H -0.302981047E+02  0.739024355E+00 -0.307467705E+01
   H  0.295405215E+02  0.232688163E+01  0.284704583E+01
     4
 # iter = 60500  time[fs]=60.50000
   C -0.671045032E+01  0.542875636E-01  0.224623955E+00
   C  0.662741208E+01 -0.325740312E+00  0.199906777E-01
   H -0.306640495E+02  0.747335301E+00 -0.311198517E+01
   H  0.298961835E+02  0.235487610E+01  0.288177349E+01
     4
 # iter = 61000  time[fs]=61.00000
   C -0.680177060E+01  0.549309676E-01  0.227681810E+00
   C  0.671699068E+01 -0.330311739E+00  0.196804908E-01
   H -0.310300871E+02  0.755648407E+00 -0.314930445E+01
   H  0.302519419E+02  0.238287950E+01  0.291651151E+01
     4
 # iter = 61500  time[fs]=61.50000
   C -0.689317213E+01  0.555764950E-01  0.230741471E+00
   C  0.680665022E+01 -0.334886192E+00  0.193685639E-01
   H -0.313962151E+02  0.763963622E+00 -0.318663465E+01
   H  0.306077944E+02  0.241089165E+01  0.295125963E+01
     4
 # iter = 62000  time[fs]=62.00000
   C -0.698465276E+01  0.562240896E-01  0.233802898E+00
   C  0.689638857E+01 -0.339463597E+00  0.190549367E-01
   H -0.317624317E+02  0.772280898E+00 -0.322397552E+01
   H  0.309637391E+02  0.243891234E+01  0.298601764E+01
     4
 # iter = 62500  time[fs]=62.50000
   C -0.707621042E+01  0.568736974E-01  0.236866051E+00
   C  0.698620366E+01 -0.344043880E+00  0.187396475E-01
   H -0.321287347E+02  0.780600187E+00 -0.326132683E+01
   H  0.313197737E+02  0.246694140E+01  0.302078533E+01
     4
 # iter = 63000  time[fs]=63.00000
   C -0.716784314E+01  0.575252664E-01  0.239930891E+00
   C  0.707609352E+01 -0.348626969E+00  0.184227334E-01
   H -0.324951222E+02  0.788921445E+00 -0.329868835E+01
   H  0.316758962E+02  0.249497863E+01  0.305556248E+01
     4
 # iter = 63500  time[fs]=63.50000
   C -0.725954899E+01  0.581787465E-01  0.242997381E+00
   C  0.716605624E+01 -0.353212797E+00  0.181042304E-01
   H -0.328615924E+02  0.797244627E+00 -0.333605986E+01
   H  0.320321048E+02  0.252302387E+01  0.309034889E+01
     4
 # iter = 64000  time[fs]=64.00000
   C -0.735132614E+01  0.588340896E-01  0.246065484E+00
   C  0.725608997E+01 -0.357801298E+00  0.177841731E-01
   H -0.332281435E+02  0.805569691E+00 -0.337344115E+01
   H  0.323883975E+02  0.255107695E+01  0.312514436E+01
     4
 # iter = 64500  time[fs]=64.50000
   C -0.744317280E+01  0.594912491E-01  0.249135166E+00
   C  0.734619296E+01 -0.362392408E+00  0.174625952E-01
   H -0.335947738E+02  0.813896595E+00 -0.341083201E+01
   H  0.327447726E+02  0.257913770E+01  0.315994871E+01
     4
 # iter = 65000  time[fs]=65.00000
   C -0.753508727E+01  0.601501804E-01  0.252206393E+00
   C  0.743636349E+01 -0.366986066E+00  0.171395292E-01
   H -0.339614814E+02  0.822225300E+00 -0.344823224E+01
   H  0.331012283E+02  0.260720596E+01  0.319476175E+01
     4
 # iter = 65500  time[fs]=65.50000
   C -0.762706790E+01  0.608108402E-01  0.255279131E+00
   C  0.752659993E+01 -0.371582213E+00  0.168150068E-01
   H -0.343282649E+02  0.830555768E+00 -0.348564164E+01
   H  0.334577628E+02  0.263528158E+01  0.322958331E+01
     4
 # iter = 66000  time[fs]=66.00000
   C -0.771911310E+01  0.614731869E-01  0.258353350E+00
   C  0.761690068E+01 -0.376180791E+00  0.164890585E-01
   H -0.346951226E+02  0.838887960E+00 -0.352306003E+01
   H  0.338143746E+02  0.266336441E+01  0.326441320E+01
     4
 # iter = 66500  time[fs]=66.50000
   C -0.781122133E+01  0.621371804E-01  0.261429017E+00
   C  0.770726422E+01 -0.380781746E+00  0.161617140E-01
   H -0.350620530E+02  0.847221842E+00 -0.356048724E+01
   H  0.341710621E+02  0.269145431E+01  0.329925126E+01
     4
 # iter = 67000  time[fs]=67.00000
   C -0.790339111E+01  0.628027819E-01  0.264506104E+00
   C  0.779768906E+01 -0.385385023E+00  0.158330020E-01
   H -0.354290547E+02  0.855557377E+00 -0.359792307E+01
   H  0.345278236E+02  0.271955113E+01  0.333409734E+01
     4
 # iter = 67500  time[fs]=67.50000
   C -0.799562100E+01  0.634699539E-01  0.267584582E+00
   C  0.788817379E+01 -0.389990571E+00  0.155029504E-01
   H -0.357961260E+02  0.863894533E+00 -0.363536736E+01
   H  0.348846577E+02  0.274765474E+01  0.336895126E+01
     4
 # iter = 68000  time[fs]=68.00000
   C -0.808790962E+01  0.641386601E-01  0.270664421E+00
   C  0.797871701E+01 -0.394598341E+00  0.151715862E-01
   H -0.361632657E+02  0.872233275E+00 -0.367281995E+01
   H  0.352415630E+02  0.277576500E+01  0.340381288E+01
     4
 # iter = 68500  time[fs]=68.50000
   C -0.818025564E+01  0.648088657E-01  0.273745595E+00
   C  0.806931740E+01 -0.399208283E+00  0.148389358E-01
   H -0.365304725E+02  0.880573573E+00 -0.371028066E+01
   H  0.355985379E+02  0.280388179E+01  0.343868205E+01
     4
 # iter = 69000  time[fs]=69.00000
   C -0.827265776E+01  0.654805367E-01  0.276828078E+00
   C  0.815997367E+01 -0.403820352E+00  0.145050247E-01
   H -0.368977449E+02  0.888915395E+00 -0.374774935E+01
   H  0.359555813E+02  0.283200499E+01  0.347355863E+01
     4
 # iter = 69500  time[fs]=69.50000
   C -0.836511473E+01  0.661536406E-01  0.279911843E+00
   C  0.825068457E+01 -0.408434501E+00  0.141698775E-01
   H -0.372650817E+02  0.897258711E+00 -0.378522587E+01
   H  0.363126917E+02  0.286013446E+01  0.350844247E+01
     4
 # iter = 70000  time[fs]=70.00000
   C -0.845762534E+01  0.668281455E-01  0.282996866E+00
   C  0.834144889E+01 -0.413050687E+00  0.138335184E-01
   H -0.376324816E+02  0.905603492E+00 -0.382271006E+01
   H  0.366698677E+02  0.288827010E+01  0.354333343E+01
     4
 # iter = 70500  time[fs]=70.50000
   C -0.855018842E+01  0.675040210E-01  0.286083122E+00
   C  0.843226548E+01 -0.417668867E+00  0.134959707E-01
   H -0.379999435E+02  0.913949710E+00 -0.386020178E+01
   H  0.370271083E+02  0.291641179E+01  0.357823139E+01
     4
 # iter = 71000  time[fs]=71.00000
   C -0.864280283E+01  0.681812373E-01  0.289170588E+00
   C  0.852313319E+01 -0.422289001E+00  0.131572570E-01
   H -0.383674662E+02  0.922297337E+00 -0.389770089E+01
   H  0.373844121E+02  0.294455941E+01  0.361313622E+01
     4
 # iter = 71500  time[fs]=71.50000
   C -0.873546748E+01  0.688597657E-01  0.292259240E+00
   C  0.861405094E+01 -0.426911047E+00  0.128173996E-01
   H -0.387350486E+02  0.930646347E+00 -0.393520726E+01
   H  0.377417780E+02  0.297271286E+01  0.364804779E+01
     4
 # iter = 72000  time[fs]=72.00000
   C -0.882818130E+01  0.695395785E-01  0.295349057E+00
   C  0.870501766E+01 -0.431534968E+00  0.124764198E-01
   H -0.391026894E+02  0.938996713E+00 -0.397272075E+01
   H  0.380992048E+02  0.300087204E+01  0.368296597E+01
     4
 # iter = 72500  time[fs]=72.50000
   C -0.892094327E+01  0.702206485E-01  0.298440017E+00
   C  0.879603232E+01 -0.436160725E+00  0.121343385E-01
   H -0.394703877E+02  0.947348410E+00 -0.401024124E+01
   H  0.384566915E+02  0.302903683E+01  0.371789066E+01
     4
 # iter = 73000  time[fs]=73.00000
   C -0.901375237E+01  0.709029497E-01  0.301532099E+00
   C  0.888709394E+01 -0.440788282E+00  0.117911760E-01
   H -0.398381424E+02  0.955701414E+00 -0.404776860E+01
   H  0.388142368E+02  0.305720715E+01  0.375282173E+01
     4
 # iter = 73500  time[fs]=73.50000
   C -0.910660765E+01  0.715864568E-01  0.304625281E+00
   C  0.897820154E+01 -0.445417604E+00  0.114469520E-01
   H -0.402059525E+02  0.964055700E+00 -0.408530270E+01
   H  0.391718397E+02  0.308538289E+01  0.378775907E+01
     4
 # iter = 74000  time[fs]=74.00000
   C -0.919950816E+01  0.722711452E-01  0.307719545E+00
   C  0.906935419E+01 -0.450048657E+00  0.111016859E-01
   H -0.405738170E+02  0.972411246E+00 -0.412284343E+01
   H  0.395294993E+02  0.311356396E+01  0.382270257E+01
     4
 # iter = 74500  time[fs]=74.50000
   C -0.929245298E+01  0.729569909E-01  0.310814871E+00
   C  0.916055097E+01 -0.454681406E+00  0.107553962E-01
   H -0.409417349E+02  0.980768029E+00 -0.416039068E+01
   H  0.398872144E+02  0.314175027E+01  0.385765212E+01
     4
 # iter = 75000  time[fs]=75.00000
   C -0.938544125E+01  0.736439710E-01  0.313911239E+00
   C  0.925179101E+01 -0.459315820E+00  0.104081013E-01
   H -0.413097053E+02  0.989126027E+00 -0.419794433E+01
   H  0.402449842E+02  0.316994172E+01  0.389260763E+01
     4
 # iter = 75500  time[fs]=75.50000
   C -0.947847208E+01  0.743320628E-01  0.317008632E+00
   C  0.934307344E+01 -0.463951866E+00  0.100598187E-01
   H -0.416777272E+02  0.997485218E+00 -0.423550427E+01
   H  0.406028077E+02  0.319813823E+01  0.392756899E+01
     4
 # iter = 76000  time[fs]=76.00000
   C -0.957154466E+01  0.750212445E-01  0.320107031E+00
   C  0.943439745E+01 -0.468589515E+00  0.971056599E-02
   H -0.420457999E+02  0.100584558E+01 -0.427307039E+01
   H  0.409606839E+02  0.322633972E+01  0.396253610E+01
     4
 # iter = 76500  time[fs]=76.50000
   C -0.966465816E+01  0.757114950E-01  0.323206419E+00
   C  0.952576221E+01 -0.473228736E+00  0.936035981E-02
   H -0.424139223E+02  0.101420710E+01 -0.431064260E+01
   H  0.413186119E+02  0.325454609E+01  0.399750886E+01
     4
 # iter = 77000  time[fs]=77.00000
   C -0.975781181E+01  0.764027937E-01  0.326306779E+00
   C  0.961716695E+01 -0.477869500E+00  0.900921662E-02
   H -0.427820936E+02  0.102256975E+01 -0.434822078E+01
   H  0.416765909E+02  0.328275728E+01  0.403248718E+01
     4
 # iter = 77500  time[fs]=77.50000
   C -0.985100483E+01  0.770951206E-01  0.329408095E+00
   C  0.970861090E+01 -0.482511780E+00  0.865715242E-02
   H -0.431503131E+02  0.103093351E+01 -0.438580485E+01
   H  0.420346200E+02  0.331097320E+01  0.406747097E+01
     4
 # iter = 78000  time[fs]=78.00000
   C -0.994423648E+01  0.777884561E-01  0.332510349E+00
   C  0.980009331E+01 -0.487155547E+00  0.830418279E-02
   H -0.435185799E+02  0.103929836E+01 -0.442339469E+01
   H  0.423926983E+02  0.333919377E+01  0.410246014E+01
     4
 # iter = 78500  time[fs]=78.50000
   C -0.100375060E+02  0.784827814E-01  0.335613527E+00
   C  0.989161348E+01 -0.491800775E+00  0.795032295E-02
   H -0.438868933E+02  0.104766429E+01 -0.446099023E+01
   H  0.427508251E+02  0.336741891E+01  0.413745460E+01
     4
 # iter = 79000  time[fs]=79.00000
   C -0.101308128E+02  0.791780781E-01  0.338717612E+00
   C  0.998317069E+01 -0.496447438E+00  0.759558773E-02
   H -0.442552524E+02  0.105603128E+01 -0.449859137E+01
   H  0.431089995E+02  0.339564856E+01  0.417245427E+01
     4
 # iter = 79500  time[fs]=79.50000
   C -0.102241561E+02  0.798743282E-01  0.341822591E+00
   C  0.100747643E+02 -0.501095510E+00  0.723999159E-02
   H -0.446236566E+02  0.106439931E+01 -0.453619801E+01
   H  0.434672208E+02  0.342388265E+01  0.420745907E+01
     4
 # iter = 80000  time[fs]=80.00000
   C -0.103175352E+02  0.805715145E-01  0.344928447E+00
   C  0.101663935E+02 -0.505744968E+00  0.688354865E-02
   H -0.449921050E+02  0.107276837E+01 -0.457381007E+01
   H  0.438254882E+02  0.345212110E+01  0.424246890E+01
