     4
 # iter = 25000  time[fs]=25.00000
   C -0.102258304E+01 -0.137205224E-01  0.168339210E-01
   C  0.937591169E+00  0.433238991E-02 -0.319128853E-01
   H -0.528895795E+01 -0.452735320E+00 -0.330915833E+00
   H  0.525440256E+01  0.977204984E-01  0.405224018E+00
     4
 # iter = 25500  time[fs]=25.50000
   C -0.107079408E+01 -0.123314626E-01  0.184791989E-01
   C  0.977460560E+00  0.451021703E-02 -0.332190403E-01
   H -0.562132832E+01 -0.479546061E+00 -0.353292121E+00
   H  0.556686098E+01  0.105004880E+00  0.432420762E+00
     4
 # iter = 26000  time[fs]=26.00000
   C -0.112198915E+01 -0.109445601E-01  0.202159877E-01
   C  0.102027192E+01  0.471830248E-02 -0.346298257E-01
   H -0.595891598E+01 -0.506821562E+00 -0.376026816E+00
   H  0.588504145E+01  0.112416808E+00  0.460133347E+00
     4
 # iter = 26500  time[fs]=26.50000
   C -0.117591762E+01 -0.955777467E-02  0.220370011E-01
   C  0.106577780E+01  0.495130916E-02 -0.361366403E-01
   H -0.630113986E+01 -0.534509203E+00 -0.399081051E+00
   H  0.620832462E+01  0.119943228E+00  0.488307127E+00
     4
 # iter = 27000  time[fs]=27.00000
   C -0.123234618E+01 -0.816941558E-02  0.239355324E-01
   C  0.111374786E+01  0.520477669E-02 -0.377316433E-01
   H -0.664750569E+01 -0.562564481E+00 -0.422421722E+00
   H  0.653618070E+01  0.127572871E+00  0.516895390E+00
     4
 # iter = 27500  time[fs]=27.50000
   C -0.129105985E+01 -0.677812138E-02  0.259054285E-01
   C  0.116396983E+01  0.547499783E-02 -0.394076982E-01
   H -0.699759029E+01 -0.590949474E+00 -0.446020441E+00
   H  0.686815393E+01  0.135295963E+00  0.545857945E+00
     4
 # iter = 28000  time[fs]=28.00000
   C -0.135186205E+01 -0.538282474E-02  0.279410611E-01
   C  0.121624962E+01  0.575890321E-02 -0.411583191E-01
   H -0.735102916E+01 -0.619631639E+00 -0.469852702E+00
   H  0.720385000E+01  0.143103988E+00  0.575159995E+00
     4
 # iter = 28500  time[fs]=28.50000
   C -0.141457400E+01 -0.398271142E-02  0.300372939E-01
   C  0.127041070E+01  0.605395783E-02 -0.429776177E-01
   H -0.770750654E+01 -0.648582874E+00 -0.493897222E+00
   H  0.754292601E+01  0.150989491E+00  0.604771237E+00
     4
 # iter = 29000  time[fs]=29.00000
   C -0.147903375E+01 -0.257717936E-02  0.321894480E-01
   C  0.132629319E+01  0.635807120E-02 -0.448602532E-01
   H -0.806674738E+01 -0.677778760E+00 -0.518135419E+00
   H  0.788508222E+01  0.158945916E+00  0.634665141E+00
     4
 # iter = 29500  time[fs]=29.50000
   C -0.154509492E+01 -0.116580104E-02  0.343932663E-01
   C  0.138375258E+01  0.666952045E-02 -0.468013823E-01
   H -0.842851088E+01 -0.707197966E+00 -0.542550978E+00
   H  0.823005540E+01  0.166967474E+00  0.664818361E+00
     4
 # iter = 30000  time[fs]=30.00000
   C -0.161262546E+01  0.251709806E-03  0.366448783E-01
   C  0.144265850E+01  0.698688588E-02 -0.487966138E-01
   H -0.879258526E+01 -0.736821757E+00 -0.567129510E+00
   H  0.857761334E+01  0.175049033E+00  0.695210258E+00
     4
 # iter = 30500  time[fs]=30.50000
   C -0.168150628E+01  0.167552658E-02  0.389407655E-01
   C  0.150289344E+01  0.730899713E-02 -0.508419644E-01
   H -0.915878333E+01 -0.766633599E+00 -0.591858264E+00
   H  0.892755030E+01  0.183186023E+00  0.725822502E+00
     4
 # iter = 31000  time[fs]=31.00000
   C -0.175163002E+01  0.310573354E-02  0.412777294E-01
   C  0.156435142E+01  0.763488886E-02 -0.529338191E-01
   H -0.952693902E+01 -0.796618839E+00 -0.616725892E+00
   H  0.927968329E+01  0.191374362E+00  0.756638750E+00
     4
 # iter = 31500  time[fs]=31.50000
   C -0.182289984E+01  0.454234542E-02  0.436528606E-01
   C  0.162693691E+01  0.796376417E-02 -0.550688940E-01
   H -0.989690437E+01 -0.826764427E+00 -0.641722257E+00
   H  0.963384890E+01  0.199610388E+00  0.787644372E+00
     4
 # iter = 32000  time[fs]=32.00000
   C -0.189522835E+01  0.598532333E-02  0.460635108E-01
   C  0.169056367E+01  0.829496468E-02 -0.572442033E-01
   H -0.102685470E+02 -0.857058704E+00 -0.666838268E+00
   H  0.998990070E+01  0.207890807E+00  0.818826223E+00
     4
 # iter = 32500  time[fs]=32.50000
   C -0.196853655E+01  0.743458761E-02  0.485072672E-01
   C  0.175515381E+01  0.862794603E-02 -0.594570285E-01
   H -0.106417483E+02 -0.887491208E+00 -0.692065744E+00
   H  0.103477070E+02  0.216212648E+00  0.850172455E+00
     4
 # iter = 33000  time[fs]=33.00000
   C -0.204275300E+01  0.889002819E-02  0.509819294E-01
   C  0.182063685E+01  0.896225781E-02 -0.617048915E-01
   H -0.110164012E+02 -0.918052522E+00 -0.717397298E+00
   H  0.107071492E+02  0.224573217E+00  0.881672350E+00
     4
 # iter = 33500  time[fs]=33.50000
   C -0.211781297E+01  0.103515127E-01  0.534854875E-01
   C  0.188694896E+01  0.929752719E-02 -0.639855300E-01
   H -0.113924091E+02 -0.948734140E+00 -0.742826240E+00
   H  0.110681196E+02  0.232970072E+00  0.913316186E+00
     4
 # iter = 34000  time[fs]=34.00000
   C -0.219365771E+01  0.118188931E-01  0.560161040E-01
   C  0.195403223E+01  0.963344542E-02 -0.662968756E-01
   H -0.117696845E+02 -0.979528356E+00 -0.768346492E+00
   H  0.114305209E+02  0.241400987E+00  0.945095120E+00
     4
 # iter = 34500  time[fs]=34.50000
   C -0.227023382E+01  0.132920107E-01  0.585720959E-01
   C  0.202183404E+01  0.996975692E-02 -0.686370346E-01
   H -0.121481479E+02 -0.101042817E+01 -0.793952519E+00
   H  0.117942642E+02  0.249863932E+00  0.977001082E+00
     4
 # iter = 35000  time[fs]=35.00000
   C -0.234749272E+01  0.147707001E-01  0.611519201E-01
   C  0.209030649E+01  0.103062502E-01 -0.710042702E-01
   H -0.125277268E+02 -0.104142719E+01 -0.819639264E+00
   H  0.121592687E+02  0.258357049E+00  0.100902669E+01
     4
 # iter = 35500  time[fs]=35.50000
   C -0.242539006E+01  0.162547924E-01  0.637541592E-01
   C  0.215940590E+01  0.106427502E-01 -0.733969870E-01
   H -0.129083551E+02 -0.107251960E+01 -0.845402098E+00
   H  0.125254603E+02  0.266878633E+00  0.104116519E+01
     4
 # iter = 36000  time[fs]=36.00000
   C -0.250388535E+01  0.177441176E-01  0.663775096E-01
   C  0.222909239E+01  0.109791128E-01 -0.758137175E-01
   H -0.132899721E+02 -0.110370005E+01 -0.871236772E+00
   H  0.128927712E+02  0.275427117E+00  0.107341036E+01
     4
 # iter = 36500  time[fs]=36.50000
   C -0.258294155E+01  0.192385066E-01  0.690207706E-01
   C  0.229932946E+01  0.113152190E-01 -0.782531095E-01
   H -0.136725222E+02 -0.113496365E+01 -0.897139379E+00
   H  0.132611390E+02  0.284001058E+00  0.110575647E+01
     4
 # iter = 37000  time[fs]=37.00000
   C -0.266252467E+01  0.207377921E-01  0.716828343E-01
   C  0.237008367E+01  0.116509712E-01 -0.807139149E-01
   H -0.140559542E+02 -0.116630589E+01 -0.923106315E+00
   H  0.136305063E+02  0.292599124E+00  0.113819823E+01
     4
 # iter = 37500  time[fs]=37.50000
   C -0.274260354E+01  0.222418101E-01  0.743626771E-01
   C  0.244132430E+01  0.119862896E-01 -0.831949806E-01
   H -0.144402211E+02 -0.119772260E+01 -0.949134252E+00
   H  0.140008203E+02  0.301220082E+00  0.117073078E+01
     4
 # iter = 38000  time[fs]=38.00000
   C -0.282314945E+01  0.237504007E-01  0.770593521E-01
   C  0.251302312E+01  0.123211093E-01 -0.856952388E-01
   H -0.148252793E+02 -0.122920995E+01 -0.975220112E+00
   H  0.143720319E+02  0.309862791E+00  0.120334957E+01
     4
 # iter = 38500  time[fs]=38.50000
   C -0.290413599E+01  0.252634081E-01  0.797719815E-01
   C  0.258515411E+01  0.126553779E-01 -0.882136999E-01
   H -0.152110884E+02 -0.126076437E+01 -0.100136104E+01
   H  0.147440957E+02  0.318526189E+00  0.123605040E+01
     4
 # iter = 39000  time[fs]=39.00000
   C -0.298553877E+01  0.267806815E-01  0.824997511E-01
   C  0.265769329E+01  0.129890535E-01 -0.907494452E-01
   H -0.155976111E+02 -0.129238258E+01 -0.102755438E+01
   H  0.151169699E+02  0.327209293E+00  0.126882938E+01
     4
 # iter = 39500  time[fs]=39.50000
   C -0.306733524E+01  0.283020751E-01  0.852419043E-01
   C  0.273061848E+01  0.133221032E-01 -0.933016203E-01
   H -0.159848128E+02 -0.132406151E+01 -0.105379766E+01
   H  0.154906152E+02  0.335911183E+00  0.130168286E+01
     4
 # iter = 40000  time[fs]=40.00000
   C -0.314950454E+01  0.298274482E-01  0.879977367E-01
   C  0.280390916E+01  0.136545014E-01 -0.958694302E-01
   H -0.163726611E+02 -0.135579830E+01 -0.108008860E+01
   H  0.158649952E+02  0.344631004E+00  0.133460746E+01
     4
 # iter = 40500  time[fs]=40.50000
   C -0.323202733E+01  0.313566655E-01  0.907665925E-01
   C  0.287754630E+01  0.139862286E-01 -0.984521335E-01
   H -0.167611261E+02 -0.138759030E+01 -0.110642503E+01
   H  0.162400762E+02  0.353367955E+00  0.136759999E+01
     4
 # iter = 41000  time[fs]=41.00000
   C -0.331488565E+01  0.328895966E-01  0.935478594E-01
   C  0.295151225E+01  0.143172708E-01 -0.101049038E+00
   H -0.171501796E+02 -0.141943503E+01 -0.113280496E+01
   H  0.166158264E+02  0.362121289E+00  0.140065751E+01
     4
 # iter = 41500  time[fs]=41.50000
   C -0.339806281E+01  0.344261164E-01  0.963409656E-01
   C  0.302579061E+01  0.146476184E-01 -0.103659498E+00
   H -0.175397955E+02 -0.145133017E+01 -0.115922650E+01
   H  0.169922162E+02  0.370890303E+00  0.143377722E+01
     4
 # iter = 42000  time[fs]=42.00000
   C -0.348154327E+01  0.359661046E-01  0.991453765E-01
   C  0.310036609E+01  0.149772652E-01 -0.106282907E+00
   H -0.179299492E+02 -0.148327355E+01 -0.118568790E+01
   H  0.173692179E+02  0.379674342E+00  0.146695653E+01
     4
 # iter = 42500  time[fs]=42.50000
   C -0.356531254E+01  0.375094459E-01  0.101960591E+00
   C  0.317522446E+01  0.153062085E-01 -0.108918699E+00
   H -0.183206178E+02 -0.151526312E+01 -0.121218750E+01
   H  0.177468055E+02  0.388472786E+00  0.150019298E+01
     4
 # iter = 43000  time[fs]=43.00000
   C -0.364935709E+01  0.390560298E-01  0.104786140E+00
   C  0.325035243E+01  0.156344479E-01 -0.111566341E+00
   H -0.187117797E+02 -0.154729699E+01 -0.123872375E+01
   H  0.181249546E+02  0.397285055E+00  0.153348429E+01
     4
 # iter = 43500  time[fs]=43.50000
   C -0.373366428E+01  0.406057502E-01  0.107621582E+00
   C  0.332573758E+01  0.159619855E-01 -0.114225335E+00
   H -0.191034145E+02 -0.157937335E+01 -0.126529519E+01
   H  0.185036422E+02  0.406110602E+00  0.156682827E+01
     4
 # iter = 44000  time[fs]=44.00000
   C -0.381822229E+01  0.421585054E-01  0.110466504E+00
   C  0.340136829E+01  0.162888248E-01 -0.116895210E+00
   H -0.194955034E+02 -0.161149051E+01 -0.129190044E+01
   H  0.188828469E+02  0.414948912E+00  0.160022290E+01
     4
 # iter = 44500  time[fs]=44.50000
   C -0.390302003E+01  0.437141982E-01  0.113320515E+00
   C  0.347723368E+01  0.166149712E-01 -0.119575525E+00
   H -0.198880282E+02 -0.164364688E+01 -0.131853820E+01
   H  0.192625482E+02  0.423799498E+00  0.163366623E+01
     4
 # iter = 45000  time[fs]=45.00000
   C -0.398804711E+01  0.452727350E-01  0.116183249E+00
   C  0.355332354E+01  0.169404311E-01 -0.122265862E+00
   H -0.202809722E+02 -0.167584096E+01 -0.134520725E+01
   H  0.196427270E+02  0.432661900E+00  0.166715645E+01
     4
 # iter = 45500  time[fs]=45.50000
   C -0.407329376E+01  0.468340265E-01  0.119054360E+00
   C  0.362962829E+01  0.172652119E-01 -0.124965830E+00
   H -0.206743193E+02 -0.170807133E+01 -0.137190643E+01
   H  0.200233652E+02  0.441535685E+00  0.170069185E+01
     4
 # iter = 46000  time[fs]=46.00000
   C -0.415875080E+01  0.483979869E-01  0.121933523E+00
   C  0.370613892E+01  0.175893221E-01 -0.127675058E+00
   H -0.210680545E+02 -0.174033665E+01 -0.139863465E+01
   H  0.204044457E+02  0.450420440E+00  0.173427078E+01
     4
 # iter = 46500  time[fs]=46.50000
   C -0.424440961E+01  0.499645340E-01  0.124820427E+00
   C  0.378284694E+01  0.179127704E-01 -0.130393195E+00
   H -0.214621635E+02 -0.177263564E+01 -0.142539086E+01
   H  0.207859523E+02  0.459315777E+00  0.176789172E+01
     4
 # iter = 47000  time[fs]=47.00000
   C -0.433026204E+01  0.515335889E-01  0.127714784E+00
   C  0.385974439E+01  0.182355666E-01 -0.133119910E+00
   H -0.218566328E+02 -0.180496712E+01 -0.145217409E+01
   H  0.211678696E+02  0.468221326E+00  0.180155318E+01
     4
 # iter = 47500  time[fs]=47.50000
   C -0.441630042E+01  0.531050761E-01  0.130616315E+00
   C  0.393682373E+01  0.185577204E-01 -0.135854889E+00
   H -0.222514496E+02 -0.183732994E+01 -0.147898340E+01
   H  0.215501832E+02  0.477136735E+00  0.183525379E+01
     4
 # iter = 48000  time[fs]=48.00000
   C -0.450251752E+01  0.546789230E-01  0.133524762E+00
   C  0.401407785E+01  0.188792420E-01 -0.138597836E+00
   H -0.226466018E+02 -0.186972302E+01 -0.150581790E+01
   H  0.219328793E+02  0.486061673E+00  0.186899222E+01
     4
 # iter = 48500  time[fs]=48.50000
   C -0.458890647E+01  0.562550601E-01  0.136439875E+00
   C  0.409150004E+01  0.192001420E-01 -0.141348467E+00
   H -0.230420778E+02 -0.190214533E+01 -0.153267675E+01
   H  0.223159447E+02  0.494995821E+00  0.190276722E+01
     4
 # iter = 49000  time[fs]=49.00000
   C -0.467546083E+01  0.578334206E-01  0.139361421E+00
   C  0.416908396E+01  0.195204309E-01 -0.144106516E+00
   H -0.234378667E+02 -0.193459590E+01 -0.155955916E+01
   H  0.226993671E+02  0.503938880E+00  0.193657759E+01
     4
 # iter = 49500  time[fs]=49.50000
   C -0.476217445E+01  0.594139405E-01  0.142289176E+00
   C  0.424682359E+01  0.198401194E-01 -0.146871728E+00
   H -0.238339582E+02 -0.196707379E+01 -0.158646435E+01
   H  0.230831347E+02  0.512890562E+00  0.197042220E+01
     4
 # iter = 50000  time[fs]=50.00000
   C -0.484904155E+01  0.609965582E-01  0.145222929E+00
   C  0.432471326E+01  0.201592183E-01 -0.149643862E+00
   H -0.242303422E+02 -0.199957814E+01 -0.161339161E+01
   H  0.234672361E+02  0.521850593E+00  0.200429996E+01
     4
 # iter = 50500  time[fs]=50.50000
   C -0.493605660E+01  0.625812146E-01  0.148162478E+00
   C  0.440274757E+01  0.204777382E-01 -0.152422688E+00
   H -0.246270095E+02 -0.203210809E+01 -0.164034023E+01
   H  0.238516607E+02  0.530818713E+00  0.203820984E+01
     4
 # iter = 51000  time[fs]=51.00000
   C -0.502321441E+01  0.641678528E-01  0.151107631E+00
   C  0.448092139E+01  0.207956899E-01 -0.155207987E+00
   H -0.250239509E+02 -0.206466285E+01 -0.166730957E+01
   H  0.242363982E+02  0.539794673E+00  0.207215085E+01
     4
 # iter = 51500  time[fs]=51.50000
   C -0.511051000E+01  0.657564182E-01  0.154058206E+00
   C  0.455922987E+01  0.211130840E-01 -0.157999551E+00
   H -0.254211580E+02 -0.209724164E+01 -0.169429898E+01
   H  0.246214388E+02  0.548778236E+00  0.210612206E+01
     4
 # iter = 52000  time[fs]=52.00000
   C -0.519793867E+01  0.673468585E-01  0.157014030E+00
   C  0.463766839E+01  0.214299310E-01 -0.160797180E+00
   H -0.258186226E+02 -0.212984374E+01 -0.172130788E+01
   H  0.250067734E+02  0.557769173E+00  0.214012256E+01
     4
 # iter = 52500  time[fs]=52.50000
   C -0.528549594E+01  0.689391230E-01  0.159974935E+00
   C  0.471623256E+01  0.217462413E-01 -0.163600685E+00
   H -0.262163368E+02 -0.216246845E+01 -0.174833567E+01
   H  0.253923930E+02  0.566767268E+00  0.217415148E+01
     4
 # iter = 53000  time[fs]=53.00000
   C -0.537317753E+01  0.705331631E-01  0.162940764E+00
   C  0.479491820E+01  0.220620252E-01 -0.166409886E+00
   H -0.266142932E+02 -0.219511510E+01 -0.177538181E+01
   H  0.257782890E+02  0.575772313E+00  0.220820801E+01
     4
 # iter = 53500  time[fs]=53.50000
   C -0.546097939E+01  0.721289321E-01  0.165911366E+00
   C  0.487372133E+01  0.223772928E-01 -0.169224608E+00
   H -0.270124846E+02 -0.222778305E+01 -0.180244577E+01
   H  0.261644534E+02  0.584784109E+00  0.224229136E+01
     4
 # iter = 54000  time[fs]=54.00000
   C -0.554889763E+01  0.737263849E-01  0.168886595E+00
   C  0.495263815E+01  0.226920541E-01 -0.172044687E+00
   H -0.274109042E+02 -0.226047170E+01 -0.182952705E+01
   H  0.265508785E+02  0.593802466E+00  0.227640076E+01
     4
 # iter = 54500  time[fs]=54.50000
   C -0.563692858E+01  0.753254783E-01  0.171866314E+00
   C  0.503166505E+01  0.230063189E-01 -0.174869965E+00
   H -0.278095456E+02 -0.229318044E+01 -0.185662517E+01
   H  0.269375566E+02  0.602827200E+00  0.231053550E+01
     4
 # iter = 55000  time[fs]=55.00000
   C -0.572506869E+01  0.769261702E-01  0.174850391E+00
   C  0.511079857E+01  0.233200969E-01 -0.177700289E+00
   H -0.282084023E+02 -0.232590873E+01 -0.188373965E+01
   H  0.273244808E+02  0.611858136E+00  0.234469489E+01
     4
 # iter = 55500  time[fs]=55.50000
   C -0.581331461E+01  0.785284206E-01  0.177838699E+00
   C  0.519003541E+01  0.236333974E-01 -0.180535515E+00
   H -0.286074685E+02 -0.235865603E+01 -0.191087005E+01
   H  0.277116441E+02  0.620895107E+00  0.237887824E+01
     4
 # iter = 56000  time[fs]=56.00000
   C -0.590166311E+01  0.801321904E-01  0.180831116E+00
   C  0.526937242E+01  0.239462297E-01 -0.183375504E+00
   H -0.290067382E+02 -0.239142182E+01 -0.193801595E+01
   H  0.280990400E+02  0.629937950E+00  0.241308493E+01
     4
 # iter = 56500  time[fs]=56.50000
   C -0.599011111E+01  0.817374423E-01  0.183827527E+00
   C  0.534880658E+01  0.242586029E-01 -0.186220123E+00
   H -0.294062061E+02 -0.242420559E+01 -0.196517694E+01
   H  0.284866622E+02  0.638986510E+00  0.244731433E+01
     4
 # iter = 57000  time[fs]=57.00000
   C -0.607865568E+01  0.833441401E-01  0.186827821E+00
   C  0.542833503E+01  0.245705259E-01 -0.189069243E+00
   H -0.298058669E+02 -0.245700689E+01 -0.199235261E+01
   H  0.288745046E+02  0.648040638E+00  0.248156586E+01
     4
 # iter = 57500  time[fs]=57.50000
   C -0.616729399E+01  0.849522489E-01  0.189831889E+00
   C  0.550795499E+01  0.248820074E-01 -0.191922743E+00
   H -0.302057153E+02 -0.248982524E+01 -0.201954259E+01
   H  0.292625615E+02  0.657100191E+00  0.251583895E+01
     4
 # iter = 58000  time[fs]=58.00000
   C -0.625602333E+01  0.865617350E-01  0.192839631E+00
   C  0.558766381E+01  0.251930558E-01 -0.194780504E+00
   H -0.306057465E+02 -0.252266021E+01 -0.204674652E+01
   H  0.296508271E+02  0.666165031E+00  0.255013304E+01
     4
 # iter = 58500  time[fs]=58.50000
   C -0.634484113E+01  0.881725658E-01  0.195850946E+00
   C  0.566745898E+01  0.255036795E-01 -0.197642413E+00
   H -0.310059558E+02 -0.255551138E+01 -0.207396404E+01
   H  0.300392963E+02  0.675235024E+00  0.258444762E+01
     4
 # iter = 59000  time[fs]=59.00000
   C -0.643374490E+01  0.897847099E-01  0.198865741E+00
   C  0.574733805E+01  0.258138866E-01 -0.200508361E+00
   H -0.314063387E+02 -0.258837833E+01 -0.210119481E+01
   H  0.304279637E+02  0.684310043E+00  0.261878216E+01
     4
 # iter = 59500  time[fs]=59.50000
   C -0.652273225E+01  0.913981370E-01  0.201883924E+00
   C  0.582729870E+01  0.261236851E-01 -0.203378244E+00
   H -0.318068907E+02 -0.262126067E+01 -0.212843851E+01
   H  0.308168245E+02  0.693389965E+00  0.265313620E+01
     4
 # iter = 60000  time[fs]=60.00000
   C -0.661180090E+01  0.930128177E-01  0.204905407E+00
   C  0.590733869E+01  0.264330828E-01 -0.206251961E+00
   H -0.322076077E+02 -0.265415803E+01 -0.215569483E+01
   H  0.312058737E+02  0.702474670E+00  0.268750924E+01
     4
 # iter = 60500  time[fs]=60.50000
   C -0.670094866E+01  0.946287234E-01  0.207930107E+00
   C  0.598745587E+01  0.267420871E-01 -0.209129415E+00
   H -0.326084857E+02 -0.268707004E+01 -0.218296346E+01
   H  0.315951068E+02  0.711564043E+00  0.272190085E+01
     4
 # iter = 61000  time[fs]=61.00000
   C -0.679017340E+01  0.962458268E-01  0.210957943E+00
   C  0.606764817E+01  0.270507055E-01 -0.212010513E+00
   H -0.330095207E+02 -0.271999635E+01 -0.221024410E+01
   H  0.319845193E+02  0.720657976E+00  0.275631057E+01
     4
 # iter = 61500  time[fs]=61.50000
   C -0.687947311E+01  0.978641013E-01  0.213988835E+00
   C  0.614791361E+01  0.273589453E-01 -0.214895164E+00
   H -0.334107089E+02 -0.275293662E+01 -0.223753648E+01
   H  0.323741070E+02  0.729756360E+00  0.279073799E+01
     4
 # iter = 62000  time[fs]=62.00000
   C -0.696884583E+01  0.994835211E-01  0.217022709E+00
   C  0.622825029E+01  0.276668135E-01 -0.217783282E+00
   H -0.338120467E+02 -0.278589053E+01 -0.226484033E+01
   H  0.327638656E+02  0.738859092E+00  0.282518270E+01
     4
 # iter = 62500  time[fs]=62.50000
   C -0.705828969E+01  0.101104061E+00  0.220059492E+00
   C  0.630865636E+01  0.279743169E-01 -0.220674783E+00
   H -0.342135307E+02 -0.281885775E+01 -0.229215538E+01
   H  0.331537913E+02  0.747966074E+00  0.285964430E+01
     4
 # iter = 63000  time[fs]=63.00000
   C -0.714780286E+01  0.102725698E+00  0.223099114E+00
   C  0.638913005E+01  0.282814624E-01 -0.223569587E+00
   H -0.346151573E+02 -0.285183798E+01 -0.231948138E+01
   H  0.335438800E+02  0.757077208E+00  0.289412241E+01
     4
 # iter = 63500  time[fs]=63.50000
   C -0.723738362E+01  0.104348407E+00  0.226141508E+00
   C  0.646966966E+01  0.285882565E-01 -0.226467616E+00
   H -0.350169235E+02 -0.288483093E+01 -0.234681807E+01
   H  0.339341281E+02  0.766192403E+00  0.292861666E+01
     4
 # iter = 64000  time[fs]=64.00000
   C -0.732703029E+01  0.105972166E+00  0.229186607E+00
   C  0.655027356E+01  0.288947055E-01 -0.229368794E+00
   H -0.354188259E+02 -0.291783631E+01 -0.237416524E+01
   H  0.343245319E+02  0.775311567E+00  0.296312669E+01
     4
 # iter = 64500  time[fs]=64.50000
   C -0.741674124E+01  0.107596954E+00  0.232234350E+00
   C  0.663094016E+01  0.292008159E-01 -0.232273049E+00
   H -0.358208615E+02 -0.295085385E+01 -0.240152263E+01
   H  0.347150881E+02  0.784434614E+00  0.299765216E+01
     4
 # iter = 65000  time[fs]=65.00000
   C -0.750651492E+01  0.109222748E+00  0.235284676E+00
   C  0.671166793E+01  0.295065936E-01 -0.235180311E+00
   H -0.362230275E+02 -0.298388328E+01 -0.242889004E+01
   H  0.351057931E+02  0.793561460E+00  0.303219274E+01
     4
 # iter = 65500  time[fs]=65.50000
   C -0.759634981E+01  0.110849529E+00  0.238337525E+00
   C  0.679245540E+01  0.298120446E-01 -0.238090512E+00
   H -0.366253208E+02 -0.301692434E+01 -0.245626725E+01
   H  0.354966438E+02  0.802692023E+00  0.306674810E+01
     4
 # iter = 66000  time[fs]=66.00000
   C -0.768624448E+01  0.112477276E+00  0.241392841E+00
   C  0.687330116E+01  0.301171748E-01 -0.241003586E+00
   H -0.370277388E+02 -0.304997678E+01 -0.248365404E+01
   H  0.358876370E+02  0.811826225E+00  0.310131792E+01
     4
 # iter = 66500  time[fs]=66.50000
   C -0.777619751E+01  0.114105969E+00  0.244450568E+00
   C  0.695420382E+01  0.304219898E-01 -0.243919470E+00
   H -0.374302788E+02 -0.308304036E+01 -0.251105022E+01
   H  0.362787696E+02  0.820963988E+00  0.313590191E+01
     4
 # iter = 67000  time[fs]=67.00000
   C -0.786620755E+01  0.115735590E+00  0.247510654E+00
   C  0.703516208E+01  0.307264952E-01 -0.246838103E+00
   H -0.378329382E+02 -0.311611485E+01 -0.253845559E+01
   H  0.366700386E+02  0.830105239E+00  0.317049978E+01
     4
 # iter = 67500  time[fs]=67.50000
   C -0.795627329E+01  0.117366121E+00  0.250573048E+00
   C  0.711617464E+01  0.310306964E-01 -0.249759425E+00
   H -0.382357144E+02 -0.314920002E+01 -0.256586997E+01
   H  0.370614412E+02  0.839249907E+00  0.320511122E+01
     4
 # iter = 68000  time[fs]=68.00000
   C -0.804639346E+01  0.118997543E+00  0.253637699E+00
   C  0.719724027E+01  0.313345987E-01 -0.252683378E+00
   H -0.386386051E+02 -0.318229564E+01 -0.259329316E+01
   H  0.374529747E+02  0.848397921E+00  0.323973598E+01
     4
 # iter = 68500  time[fs]=68.50000
   C -0.813656685E+01  0.120629840E+00  0.256704558E+00
   C  0.727835778E+01  0.316382072E-01 -0.255609908E+00
   H -0.390416079E+02 -0.321540151E+01 -0.262072499E+01
   H  0.378446363E+02  0.857549213E+00  0.327437377E+01
     4
 # iter = 69000  time[fs]=69.00000
   C -0.822679226E+01  0.122262994E+00  0.259773581E+00
   C  0.735952600E+01  0.319415270E-01 -0.258538959E+00
   H -0.394447204E+02 -0.324851742E+01 -0.264816529E+01
   H  0.382364233E+02  0.866703719E+00  0.330902435E+01
     4
 # iter = 69500  time[fs]=69.50000
   C -0.831706856E+01  0.123896989E+00  0.262844720E+00
   C  0.744074383E+01  0.322445631E-01 -0.261470479E+00
   H -0.398479405E+02 -0.328164317E+01 -0.267561389E+01
   H  0.386283334E+02  0.875861375E+00  0.334368745E+01
     4
 # iter = 70000  time[fs]=70.00000
   C -0.840739463E+01  0.125531809E+00  0.265917933E+00
   C  0.752201017E+01  0.325473202E-01 -0.264404419E+00
   H -0.402512661E+02 -0.331477856E+01 -0.270307062E+01
   H  0.390203639E+02  0.885022119E+00  0.337836284E+01
     4
 # iter = 70500  time[fs]=70.50000
   C -0.849776940E+01  0.127167439E+00  0.268993176E+00
   C  0.760332398E+01  0.328498029E-01 -0.267340728E+00
   H -0.406546950E+02 -0.334792340E+01 -0.273053533E+01
   H  0.394125126E+02  0.894185891E+00  0.341305027E+01
     4
 # iter = 71000  time[fs]=71.00000
   C -0.858819184E+01  0.128803864E+00  0.272070409E+00
   C  0.768468424E+01  0.331520160E-01 -0.270279359E+00
   H -0.410582251E+02 -0.338107751E+01 -0.275800787E+01
   H  0.398047771E+02  0.903352632E+00  0.344774952E+01
     4
 # iter = 71500  time[fs]=71.50000
   C -0.867866092E+01  0.130441069E+00  0.275149591E+00
   C  0.776608997E+01  0.334539639E-01 -0.273220266E+00
   H -0.414618546E+02 -0.341424072E+01 -0.278548808E+01
   H  0.401971551E+02  0.912522287E+00  0.348246035E+01
     4
 # iter = 72000  time[fs]=72.00000
   C -0.876917569E+01  0.132079040E+00  0.278230684E+00
   C  0.784754022E+01  0.337556510E-01 -0.276163403E+00
   H -0.418655816E+02 -0.344741284E+01 -0.281297582E+01
   H  0.405896445E+02  0.921694801E+00  0.351718256E+01
     4
 # iter = 72500  time[fs]=72.50000
   C -0.885973518E+01  0.133717763E+00  0.281313649E+00
   C  0.792903405E+01  0.340570814E-01 -0.279108727E+00
   H -0.422694041E+02 -0.348059372E+01 -0.284047095E+01
   H  0.409822431E+02  0.930870119E+00  0.355191592E+01
     4
 # iter = 73000  time[fs]=73.00000
   C -0.895033849E+01  0.135357224E+00  0.284398451E+00
   C  0.801057058E+01  0.343582595E-01 -0.282056195E+00
   H -0.426733203E+02 -0.351378318E+01 -0.286797334E+01
   H  0.413749490E+02  0.940048190E+00  0.358666024E+01
     4
 # iter = 73500  time[fs]=73.50000
   C -0.904098472E+01  0.136997411E+00  0.287485053E+00
   C  0.809214894E+01  0.346591894E-01 -0.285005767E+00
   H -0.430773285E+02 -0.354698107E+01 -0.289548284E+01
   H  0.417677599E+02  0.949228963E+00  0.362141530E+01
     4
 # iter = 74000  time[fs]=74.00000
   C -0.913167301E+01  0.138638311E+00  0.290573422E+00
   C  0.817376827E+01  0.349598749E-01 -0.287957402E+00
   H -0.434814271E+02 -0.358018723E+01 -0.292299933E+01
   H  0.421606742E+02  0.958412389E+00  0.365618092E+01
     4
 # iter = 74500  time[fs]=74.50000
   C -0.922240252E+01  0.140279910E+00  0.293663523E+00
   C  0.825542777E+01  0.352603200E-01 -0.290911061E+00
   H -0.438856142E+02 -0.361340151E+01 -0.295052268E+01
   H  0.425536897E+02  0.967598421E+00  0.369095691E+01
     4
 # iter = 75000  time[fs]=75.00000
   C -0.931317243E+01  0.141922198E+00  0.296755323E+00
   C  0.833712663E+01  0.355605285E-01 -0.293866707E+00
   H -0.442898884E+02 -0.364662377E+01 -0.297805278E+01
   H  0.429468047E+02  0.976787011E+00  0.372574308E+01
     4
 # iter = 75500  time[fs]=75.50000
   C -0.940398196E+01  0.143565161E+00  0.299848792E+00
   C  0.841886409E+01  0.358605042E-01 -0.296824303E+00
   H -0.446942480E+02 -0.367985386E+01 -0.300558949E+01
   H  0.433400174E+02  0.985978115E+00  0.376053924E+01
     4
 # iter = 76000  time[fs]=76.00000
   C -0.949483033E+01  0.145208789E+00  0.302943898E+00
   C  0.850063939E+01  0.361602507E-01 -0.299783812E+00
   H -0.450986915E+02 -0.371309165E+01 -0.303313271E+01
   H  0.437333260E+02  0.995171687E+00  0.379534523E+01
     4
 # iter = 76500  time[fs]=76.50000
   C -0.958571681E+01  0.146853071E+00  0.306040611E+00
   C  0.858245182E+01  0.364597715E-01 -0.302745201E+00
   H -0.455032175E+02 -0.374633699E+01 -0.306068232E+01
   H  0.441267289E+02  0.100436769E+01  0.383016088E+01
     4
 # iter = 77000  time[fs]=77.00000
   C -0.967664066E+01  0.148497995E+00  0.309138903E+00
   C  0.866430065E+01  0.367590702E-01 -0.305708435E+00
   H -0.459078244E+02 -0.377958976E+01 -0.308823821E+01
   H  0.445202243E+02  0.101356607E+01  0.386498601E+01
     4
 # iter = 77500  time[fs]=77.50000
   C -0.976760118E+01  0.150143551E+00  0.312238743E+00
   C  0.874618520E+01  0.370581502E-01 -0.308673481E+00
   H -0.463125109E+02 -0.381284983E+01 -0.311580027E+01
   H  0.449138107E+02  0.102276680E+01  0.389982047E+01
     4
 # iter = 78000  time[fs]=78.00000
   C -0.985859769E+01  0.151789727E+00  0.315340106E+00
   C  0.882810480E+01  0.373570147E-01 -0.311640307E+00
   H -0.467172756E+02 -0.384611708E+01 -0.314336840E+01
   H  0.453074865E+02  0.103196983E+01  0.393466409E+01
     4
 # iter = 78500  time[fs]=78.50000
   C -0.994962951E+01  0.153436515E+00  0.318442963E+00
   C  0.891005880E+01  0.376556671E-01 -0.314608882E+00
   H -0.471221171E+02 -0.387939137E+01 -0.317094249E+01
   H  0.457012501E+02  0.104117512E+01  0.396951673E+01
     4
 # iter = 79000  time[fs]=79.00000
   C -0.100406960E+02  0.155083904E+00  0.321547289E+00
   C  0.899204657E+01  0.379541106E-01 -0.317579175E+00
   H -0.475270341E+02 -0.391267260E+01 -0.319852245E+01
   H  0.460951001E+02  0.105038264E+01  0.400437823E+01
     4
 # iter = 79500  time[fs]=79.50000
   C -0.101317965E+02  0.156731885E+00  0.324653058E+00
   C  0.907406748E+01  0.382523483E-01 -0.320551157E+00
   H -0.479320254E+02 -0.394596064E+01 -0.322610818E+01
   H  0.464890349E+02  0.105959235E+01  0.403924844E+01
     4
 # iter = 80000  time[fs]=80.00000
   C -0.102229305E+02  0.158380447E+00  0.327760246E+00
   C  0.915612095E+01  0.385503832E-01 -0.323524799E+00
   H -0.483370897E+02 -0.397925539E+01 -0.325369958E+01
   H  0.468830533E+02  0.106880422E+01  0.407412723E+01
