     4
 # iter = 25000  time[fs]=25.00000
   C -0.100701138E+01 -0.182862351E-01 -0.423682159E-02
   C  0.103179658E+01 -0.262694813E-01  0.423005293E-01
   H -0.532144923E+01 -0.545156487E+00  0.178892444E+00
   H  0.541010296E+01  0.638104098E+00 -0.599719094E+00
     4
 # iter = 25500  time[fs]=25.50000
   C -0.105624646E+01 -0.167150236E-01 -0.423746690E-02
   C  0.107906112E+01 -0.290150972E-01  0.463704473E-01
   H -0.565831491E+01 -0.579630655E+00  0.192180819E+00
   H  0.572927007E+01  0.678665794E+00 -0.636868237E+00
     4
 # iter = 26000  time[fs]=26.00000
   C -0.110834113E+01 -0.151083306E-01 -0.430894229E-02
   C  0.112915628E+01 -0.318137909E-01  0.505552590E-01
   H -0.600032135E+01 -0.614651255E+00  0.205655355E+00
   H  0.605392541E+01  0.719985078E+00 -0.674732305E+00
     4
 # iter = 26500  time[fs]=26.50000
   C -0.116304493E+01 -0.134652562E-01 -0.444704314E-02
   C  0.118183279E+01 -0.346648842E-01  0.548461583E-01
   H -0.634689390E+01 -0.650157531E+00  0.219295954E+00
   H  0.638348025E+01  0.761982255E+00 -0.713235980E+00
     4
 # iter = 27000  time[fs]=27.00000
   C -0.122012763E+01 -0.117855359E-01 -0.464763053E-02
   C  0.123686174E+01 -0.375672497E-01  0.592350630E-01
   H -0.669754418E+01 -0.686097927E+00  0.233085487E+00
   H  0.671743036E+01  0.804589069E+00 -0.752314816E+00
     4
 # iter = 27500  time[fs]=27.50000
   C -0.127937924E+01 -0.100694075E-01 -0.490669582E-02
   C  0.129403452E+01 -0.405194190E-01  0.637145638E-01
   H -0.705185440E+01 -0.722428384E+00  0.247009251E+00
   H  0.705534139E+01  0.847746693E+00 -0.791913302E+00
     4
 # iter = 28000  time[fs]=28.00000
   C -0.134060936E+01 -0.831749023E-02 -0.522040578E-02
   C  0.135316211E+01 -0.435196818E-01  0.682778770E-01
   H -0.740946490E+01 -0.759110996E+00  0.261054550E+00
   H  0.739683713E+01  0.891404126E+00 -0.831983337E+00
     4
 # iter = 28500  time[fs]=28.50000
   C -0.140364602E+01 -0.653068114E-02 -0.558513128E-02
   C  0.141407389E+01 -0.465661703E-01  0.729187995E-01
   H -0.777006428E+01 -0.796112948E+00  0.275210355E+00
   H  0.774159004E+01  0.935516906E+00 -0.872483001E+00
     4
 # iter = 29000  time[fs]=29.00000
   C -0.146833428E+01 -0.471007088E-02 -0.599746269E-02
   C  0.147661619E+01 -0.496569278E-01  0.776316639E-01
   H -0.813338145E+01 -0.833405669E+00  0.289467027E+00
   H  0.808931351E+01  0.980046069E+00 -0.913375565E+00
     4
 # iter = 29500  time[fs]=29.50000
   C -0.153453477E+01 -0.285687606E-02 -0.645421544E-02
   C  0.154065089E+01 -0.527899625E-01  0.824112960E-01
   H -0.849917918E+01 -0.870964148E+00  0.303816106E+00
   H  0.843975558E+01  0.102495730E+01 -0.954628690E+00
     4
 # iter = 30000  time[fs]=30.00000
   C -0.160212218E+01 -0.972387078E-03 -0.695242823E-02
   C  0.160605383E+01 -0.559632880E-01  0.872529726E-01
   H -0.886724886E+01 -0.908766381E+00  0.318250123E+00
   H  0.879269377E+01  0.107022025E+01 -0.996213769E+00
     4
 # iter = 30500  time[fs]=30.50000
   C -0.167098386E+01  0.942071691E-03 -0.748935632E-02
   C  0.167271344E+01 -0.591749531E-01  0.921523824E-01
   H -0.923740621E+01 -0.946792916E+00  0.332762461E+00
   H  0.914793079E+01  0.111580793E+01 -0.103810538E+01
     4
 # iter = 31000  time[fs]=31.00000
   C -0.174101847E+01  0.288517136E-02 -0.806246162E-02
   C  0.174052941E+01 -0.624230629E-01  0.971055887E-01
   H -0.960948776E+01 -0.985026485E+00  0.347347229E+00
   H  0.950529100E+01  0.116169630E+01 -0.108028086E+01
     4
 # iter = 31500  time[fs]=31.50000
   C -0.181213481E+01  0.485560002E-02 -0.866940078E-02
   C  0.180941145E+01 -0.657057927E-01  0.102108995E+00
   H -0.998334791E+01 -0.102345169E+01  0.361999161E+00
   H  0.986461745E+01  0.120786380E+01 -0.112271989E+01
     4
 # iter = 32000  time[fs]=32.00000
   C -0.188425062E+01  0.685207785E-02 -0.930801236E-02
   C  0.187927823E+01 -0.690213972E-01  0.107159312E+00
   H -0.103588565E+02 -0.106205476E+01  0.376713534E+00
   H  0.102257694E+02  0.125429106E+01 -0.116540422E+01
     4
 # iter = 32500  time[fs]=32.50000
   C -0.195729170E+01  0.887336746E-02 -0.997630371E-02
   C  0.195005632E+01 -0.723682152E-01  0.112253530E+00
   H -0.107358966E+02 -0.110082331E+01  0.391486098E+00
   H  0.105886202E+02  0.130096063E+01 -0.120831740E+01
     4
 # iter = 33000  time[fs]=33.00000
   C -0.203119094E+01  0.109182805E-01 -0.106724380E-01
   C  0.202167940E+01 -0.757446713E-01  0.117388891E+00
   H -0.111143632E+02 -0.113974620E+01  0.406313012E+00
   H  0.109530556E+02  0.134785671E+01 -0.125144454E+01
     4
 # iter = 33500  time[fs]=33.50000
   C -0.210588758E+01  0.129856817E-01 -0.113947218E-01
   C  0.209408742E+01 -0.791492764E-01  0.122562867E+00
   H -0.114941612E+02 -0.117881333E+01  0.421190798E+00
   H  0.113189720E+02  0.139496496E+01 -0.129477212E+01
     4
 # iter = 34000  time[fs]=34.00000
   C -0.218132651E+01  0.150744904E-01 -0.121415929E-01
   C  0.216722591E+01 -0.825806254E-01  0.127773133E+00
   H -0.118752046E+02 -0.121801556E+01  0.436116296E+00
   H  0.116862754E+02  0.144227235E+01 -0.133828785E+01
     4
 # iter = 34500  time[fs]=34.50000
   C -0.225745763E+01  0.171836815E-01 -0.129116098E-01
   C  0.224104540E+01 -0.860373948E-01  0.133017552E+00
   H -0.122574152E+02 -0.125734457E+01  0.451086626E+00
   H  0.120548804E+02  0.148976698E+01 -0.138198051E+01
     4
 # iter = 35000  time[fs]=35.00000
   C -0.233423535E+01  0.193122842E-01 -0.137034409E-01
   C  0.231550087E+01 -0.895183393E-01  0.138294159E+00
   H -0.126407218E+02 -0.129679278E+01  0.466099156E+00
   H  0.124247089E+02  0.153743796E+01 -0.142583984E+01
     4
 # iter = 35500  time[fs]=35.50000
   C -0.241161808E+01  0.214593811E-01 -0.145158552E-01
   C  0.239055125E+01 -0.930222881E-01  0.143601137E+00
   H -0.130250593E+02 -0.133635324E+01  0.481151478E+00
   H  0.127956894E+02  0.158527532E+01 -0.146985643E+01
     4
 # iter = 36000  time[fs]=36.00000
   C -0.248956781E+01  0.236241061E-01 -0.153477138E-01
   C  0.246615905E+01 -0.965481408E-01  0.148936812E+00
   H -0.134103681E+02 -0.137601960E+01  0.496241379E+00
   H  0.131677563E+02  0.163326988E+01 -0.151402162E+01
     4
 # iter = 36500  time[fs]=36.50000
   C -0.256804977E+01  0.258056420E-01 -0.161979615E-01
   C  0.254228994E+01 -0.100094864E+00  0.154299635E+00
   H -0.137965936E+02 -0.141578601E+01  0.511366824E+00
   H  0.135408495E+02  0.168141321E+01 -0.155832746E+01
     4
 # iter = 37000  time[fs]=37.00000
   C -0.264703205E+01  0.280032187E-01 -0.170656199E-01
   C  0.261891246E+01 -0.103661485E+00  0.159688170E+00
   H -0.141836856E+02 -0.145564710E+01  0.526525937E+00
   H  0.139149135E+02  0.172969751E+01 -0.160276659E+01
     4
 # iter = 37500  time[fs]=37.50000
   C -0.272648536E+01  0.302161101E-01 -0.179497810E-01
   C  0.269599771E+01 -0.107247092E+00  0.165101087E+00
   H -0.145715977E+02 -0.149559790E+01  0.541716985E+00
   H  0.142898970E+02  0.177811557E+01 -0.164733220E+01
     4
 # iter = 38000  time[fs]=38.00000
   C -0.280638272E+01  0.324436320E-01 -0.188496005E-01
   C  0.277351912E+01 -0.110850826E+00  0.170537150E+00
   H -0.149602871E+02 -0.153563382E+01  0.556938361E+00
   H  0.146657528E+02  0.182666072E+01 -0.169201800E+01
     4
 # iter = 38500  time[fs]=38.50000
   C -0.288669930E+01  0.346851396E-01 -0.197642932E-01
   C  0.285145218E+01 -0.114471880E+00  0.175995212E+00
   H -0.153497142E+02 -0.157575062E+01  0.572188578E+00
   H  0.150424370E+02  0.187532675E+01 -0.173681814E+01
     4
 # iter = 39000  time[fs]=39.00000
   C -0.296741214E+01  0.369400251E-01 -0.206931275E-01
   C  0.292977428E+01 -0.118109495E+00  0.181474202E+00
   H -0.157398424E+02 -0.161594435E+01  0.587466253E+00
   H  0.154199089E+02  0.192410791E+01 -0.178172718E+01
     4
 # iter = 39500  time[fs]=39.50000
   C -0.304850003E+01  0.392077151E-01 -0.216354213E-01
   C  0.300846452E+01 -0.121762957E+00  0.186973123E+00
   H -0.161306375E+02 -0.165621134E+01  0.602770100E+00
   H  0.157981306E+02  0.197299884E+01 -0.182674005E+01
     4
 # iter = 40000  time[fs]=40.00000
   C -0.312994331E+01  0.414876692E-01 -0.225905377E-01
   C  0.308750355E+01 -0.125431591E+00  0.192491045E+00
   H -0.165220679E+02 -0.169654818E+01  0.618098917E+00
   H  0.161770669E+02  0.202199452E+01 -0.187185203E+01
     4
 # iter = 40500  time[fs]=40.50000
   C -0.321172377E+01  0.437793770E-01 -0.235578815E-01
   C  0.316687342E+01 -0.129114764E+00  0.198027098E+00
   H -0.169141040E+02 -0.173695169E+01  0.633451586E+00
   H  0.165566850E+02  0.207109028E+01 -0.191705871E+01
     4
 # iter = 41000  time[fs]=41.00000
   C -0.329382447E+01  0.460823568E-01 -0.245368954E-01
   C  0.324655746E+01 -0.132811878E+00  0.203580468E+00
   H -0.173067183E+02 -0.177741888E+01  0.648827060E+00
   H  0.169369541E+02  0.212028175E+01 -0.196235595E+01
     4
 # iter = 41500  time[fs]=41.50000
   C -0.337622966E+01  0.483961535E-01 -0.255270580E-01
   C  0.332654015E+01 -0.136522366E+00  0.209150393E+00
   H -0.176998850E+02 -0.181794699E+01  0.664224358E+00
   H  0.173178456E+02  0.216956484E+01 -0.200773989E+01
     4
 # iter = 42000  time[fs]=42.00000
   C -0.345892468E+01  0.507203370E-01 -0.265278798E-01
   C  0.340680708E+01 -0.140245697E+00  0.214736157E+00
   H -0.180935800E+02 -0.185853341E+01  0.679642561E+00
   H  0.176993326E+02  0.221893570E+01 -0.205320690E+01
     4
 # iter = 42500  time[fs]=42.50000
   C -0.354189583E+01  0.530545005E-01 -0.275389015E-01
   C  0.348734476E+01 -0.143981366E+00  0.220337089E+00
   H -0.184877809E+02 -0.189917569E+01  0.695080806E+00
   H  0.180813899E+02  0.226839072E+01 -0.209875356E+01
     4
 # iter = 43000  time[fs]=43.00000
   C -0.362513033E+01  0.553982589E-01 -0.285596916E-01
   C  0.356814063E+01 -0.147728897E+00  0.225952558E+00
   H -0.188824663E+02 -0.193987153E+01  0.710538283E+00
   H  0.184639938E+02  0.231792651E+01 -0.214437668E+01
     4
 # iter = 43500  time[fs]=43.50000
   C -0.370861623E+01  0.577512477E-01 -0.295898441E-01
   C  0.364918292E+01 -0.151487839E+00  0.231581970E+00
   H -0.192776164E+02 -0.198061879E+01  0.726014227E+00
   H  0.188471221E+02  0.236753988E+01 -0.219007323E+01
     4
 # iter = 44000  time[fs]=44.00000
   C -0.379234234E+01  0.601131215E-01 -0.306289766E-01
   C  0.373046063E+01 -0.155257764E+00  0.237224765E+00
   H -0.196732124E+02 -0.202141542E+01  0.741507920E+00
   H  0.192307538E+02  0.241722780E+01 -0.223584037E+01
     4
 # iter = 44500  time[fs]=44.50000
   C -0.387629817E+01  0.624835526E-01 -0.316767289E-01
   C  0.381196345E+01 -0.159038268E+00  0.242880416E+00
   H -0.200692368E+02 -0.206225951E+01  0.757018683E+00
   H  0.196148692E+02  0.246698745E+01 -0.228167541E+01
     4
 # iter = 45000  time[fs]=45.00000
   C -0.396047387E+01  0.648622303E-01 -0.327327611E-01
   C  0.389368168E+01 -0.162828967E+00  0.248548425E+00
   H -0.204656730E+02 -0.210314927E+01  0.772545876E+00
   H  0.199994497E+02  0.251681613E+01 -0.232757582E+01
     4
 # iter = 45500  time[fs]=45.50000
   C -0.404486018E+01  0.672488595E-01 -0.337967522E-01
   C  0.397560625E+01 -0.166629497E+00  0.254228321E+00
   H -0.208625051E+02 -0.214408297E+01  0.788088893E+00
   H  0.203844777E+02  0.256671132E+01 -0.237353919E+01
     4
 # iter = 46000  time[fs]=46.00000
   C -0.412944841E+01  0.696431600E-01 -0.348683989E-01
   C  0.405772859E+01 -0.170439511E+00  0.259919659E+00
   H -0.212597185E+02 -0.218505901E+01  0.803647161E+00
   H  0.207699366E+02  0.261667059E+01 -0.241956326E+01
     4
 # iter = 46500  time[fs]=46.50000
   C -0.421423035E+01  0.720448653E-01 -0.359474141E-01
   C  0.414004066E+01 -0.174258680E+00  0.265622020E+00
   H -0.216572992E+02 -0.222607586E+01  0.819220138E+00
   H  0.211558107E+02  0.266669169E+01 -0.246564588E+01
     4
 # iter = 47000  time[fs]=47.00000
   C -0.429919829E+01  0.744537218E-01 -0.370335263E-01
   C  0.422253485E+01 -0.178086693E+00  0.271335003E+00
   H -0.220552338E+02 -0.226713208E+01  0.834807309E+00
   H  0.215420850E+02  0.271677245E+01 -0.251178499E+01
     4
 # iter = 47500  time[fs]=47.50000
   C -0.438434494E+01  0.768694885E-01 -0.381264779E-01
   C  0.430520403E+01 -0.181923251E+00  0.277058230E+00
   H -0.224535098E+02 -0.230822628E+01  0.850408186E+00
   H  0.219287455E+02  0.276691083E+01 -0.255797868E+01
     4
 # iter = 48000  time[fs]=48.00000
   C -0.446966341E+01  0.792919354E-01 -0.392260247E-01
   C  0.438804142E+01 -0.185768070E+00  0.282791344E+00
   H -0.228521152E+02 -0.234935718E+01  0.866022306E+00
   H  0.223157788E+02  0.281710487E+01 -0.260422509E+01
     4
 # iter = 48500  time[fs]=48.50000
   C -0.455514720E+01  0.817208436E-01 -0.403319351E-01
   C  0.447104064E+01 -0.189620881E+00  0.288534002E+00
   H -0.232510389E+02 -0.239052353E+01  0.881649227E+00
   H  0.227031722E+02  0.286735273E+01 -0.265052248E+01
     4
 # iter = 49000  time[fs]=49.00000
   C -0.464079015E+01  0.841560043E-01 -0.414439890E-01
   C  0.455419564E+01 -0.193481427E+00  0.294285881E+00
   H -0.236502700E+02 -0.243172415E+01  0.897288531E+00
   H  0.230909135E+02  0.291765265E+01 -0.269686919E+01
     4
 # iter = 49500  time[fs]=49.50000
   C -0.472658643E+01  0.865972181E-01 -0.425619770E-01
   C  0.463750070E+01 -0.197349461E+00  0.300046673E+00
   H -0.240497982E+02 -0.247295793E+01  0.912939818E+00
   H  0.234789913E+02  0.296800295E+01 -0.274326362E+01
     4
 # iter = 50000  time[fs]=50.00000
   C -0.481253052E+01  0.890442949E-01 -0.436857002E-01
   C  0.472095040E+01 -0.201224749E+00  0.305816085E+00
   H -0.244496140E+02 -0.251422381E+01  0.928602708E+00
   H  0.238673947E+02  0.301840203E+01 -0.278970427E+01
     4
 # iter = 50500  time[fs]=50.50000
   C -0.489861718E+01  0.914970529E-01 -0.448149691E-01
   C  0.480453959E+01 -0.205107067E+00  0.311593837E+00
   H -0.248497080E+02 -0.255552076E+01  0.944276839E+00
   H  0.242561131E+02  0.306884838E+01 -0.283618969E+01
     4
 # iter = 51000  time[fs]=51.00000
   C -0.498484143E+01  0.939553185E-01 -0.459496032E-01
   C  0.488826339E+01 -0.208996201E+00  0.317379664E+00
   H -0.252500714E+02 -0.259684782E+01  0.959961864E+00
   H  0.246451367E+02  0.311934053E+01 -0.288271852E+01
     4
 # iter = 51500  time[fs]=51.50000
   C -0.507119854E+01  0.964189253E-01 -0.470894303E-01
   C  0.497211716E+01 -0.212891946E+00  0.323173310E+00
   H -0.256506957E+02 -0.263820406E+01  0.975657453E+00
   H  0.250344560E+02  0.316987711E+01 -0.292928944E+01
     4
 # iter = 52000  time[fs]=52.00000
   C -0.515768401E+01  0.988877146E-01 -0.482342864E-01
   C  0.505609649E+01 -0.216794105E+00  0.328974534E+00
   H -0.260515730E+02 -0.267958861E+01  0.991363291E+00
   H  0.254240619E+02  0.322045677E+01 -0.297590119E+01
     4
 # iter = 52500  time[fs]=52.50000
   C -0.524429357E+01  0.101361534E+00 -0.493840147E-01
   C  0.514019718E+01 -0.220702492E+00  0.334783104E+00
   H -0.264526956E+02 -0.272100061E+01  0.100707907E+01
   H  0.258139458E+02  0.327107826E+01 -0.302255257E+01
     4
 # iter = 53000  time[fs]=53.00000
   C -0.533102315E+01  0.103840238E+00 -0.505384656E-01
   C  0.522441524E+01 -0.224616927E+00  0.340598799E+00
   H -0.268540562E+02 -0.276243927E+01  0.102280452E+01
   H  0.262040994E+02  0.332174036E+01 -0.306924243E+01
     4
 # iter = 53500  time[fs]=53.50000
   C -0.541786885E+01  0.106323686E+00 -0.516974961E-01
   C  0.530874686E+01 -0.228537236E+00  0.346421407E+00
   H -0.272556477E+02 -0.280390381E+01  0.103853934E+01
   H  0.265945148E+02  0.337244191E+01 -0.311596968E+01
     4
 # iter = 54000  time[fs]=54.00000
   C -0.550482699E+01  0.108811745E+00 -0.528609692E-01
   C  0.539318841E+01 -0.232463256E+00  0.352250725E+00
   H -0.276574634E+02 -0.284539348E+01  0.105428328E+01
   H  0.269851844E+02  0.342318179E+01 -0.316273326E+01
     4
 # iter = 54500  time[fs]=54.50000
   C -0.559189403E+01  0.111304286E+00 -0.540287542E-01
   C  0.547773643E+01 -0.236394827E+00  0.358086560E+00
   H -0.280594970E+02 -0.288690759E+01  0.107003608E+01
   H  0.273761010E+02  0.347395893E+01 -0.320953215E+01
     4
 # iter = 55000  time[fs]=55.00000
   C -0.567906659E+01  0.113801185E+00 -0.552007256E-01
   C  0.556238761E+01 -0.240331797E+00  0.363928726E+00
   H -0.284617422E+02 -0.292844546E+01  0.108579750E+01
   H  0.277672577E+02  0.352477232E+01 -0.325636540E+01
     4
 # iter = 55500  time[fs]=55.50000
   C -0.576634145E+01  0.116302325E+00 -0.563767634E-01
   C  0.564713879E+01 -0.244274020E+00  0.369777044E+00
   H -0.288641931E+02 -0.297000642E+01  0.110156731E+01
   H  0.281586477E+02  0.357562096E+01 -0.330323206E+01
     4
 # iter = 56000  time[fs]=56.00000
   C -0.585371554E+01  0.118807591E+00 -0.575567525E-01
   C  0.573198696E+01 -0.248221356E+00  0.375631344E+00
   H -0.292668442E+02 -0.301158987E+01  0.111734528E+01
   H  0.285502646E+02  0.362650393E+01 -0.335013126E+01
     4
 # iter = 56500  time[fs]=56.50000
   C -0.594118590E+01  0.121316873E+00 -0.587405825E-01
   C  0.581692921E+01 -0.252173669E+00  0.381491461E+00
   H -0.296696899E+02 -0.305319519E+01  0.113313119E+01
   H  0.289421024E+02  0.367742030E+01 -0.339706212E+01
     4
 # iter = 57000  time[fs]=57.00000
   C -0.602874971E+01  0.123830067E+00 -0.599281474E-01
   C  0.590196280E+01 -0.256130830E+00  0.387357239E+00
   H -0.300727251E+02 -0.309482181E+01  0.114892484E+01
   H  0.293341552E+02  0.372836920E+01 -0.344402382E+01
     4
 # iter = 57500  time[fs]=57.50000
   C -0.611640427E+01  0.126347070E+00 -0.611193455E-01
   C  0.598708506E+01 -0.260092714E+00  0.393228527E+00
   H -0.304759447E+02 -0.313646918E+01  0.116472603E+01
   H  0.297264172E+02  0.377934981E+01 -0.349101558E+01
     4
 # iter = 58000  time[fs]=58.00000
   C -0.620414700E+01  0.128867787E+00 -0.623140792E-01
   C  0.607229347E+01 -0.264059201E+00  0.399105178E+00
   H -0.308793439E+02 -0.317813676E+01  0.118053457E+01
   H  0.301188830E+02  0.383036131E+01 -0.353803662E+01
     4
 # iter = 58500  time[fs]=58.50000
   C -0.629197540E+01  0.131392122E+00 -0.635122546E-01
   C  0.615758559E+01 -0.268030173E+00  0.404987053E+00
   H -0.312829181E+02 -0.321982405E+01  0.119635027E+01
   H  0.305115475E+02  0.388140292E+01 -0.358508621E+01
     4
 # iter = 59000  time[fs]=59.00000
   C -0.637988709E+01  0.133919985E+00 -0.647137815E-01
   C  0.624295909E+01 -0.272005521E+00  0.410874017E+00
   H -0.316866629E+02 -0.326153054E+01  0.121217296E+01
   H  0.309044055E+02  0.393247391E+01 -0.363216365E+01
     4
 # iter = 59500  time[fs]=59.50000
   C -0.646787980E+01  0.136451289E+00 -0.659185729E-01
   C  0.632841173E+01 -0.275985136E+00  0.416765942E+00
   H -0.320905739E+02 -0.330325576E+01  0.122800246E+01
   H  0.312974522E+02  0.398357354E+01 -0.367926825E+01
     4
 # iter = 60000  time[fs]=60.00000
   C -0.655595132E+01  0.138985950E+00 -0.671265453E-01
   C  0.641394136E+01 -0.279968915E+00  0.422662703E+00
   H -0.324946470E+02 -0.334499926E+01  0.124383861E+01
   H  0.316906829E+02  0.403470113E+01 -0.372639935E+01
     4
 # iter = 60500  time[fs]=60.50000
   C -0.664409954E+01  0.141523887E+00 -0.683376183E-01
   C  0.649954591E+01 -0.283956758E+00  0.428564179E+00
   H -0.328988783E+02 -0.338676059E+01  0.125968125E+01
   H  0.320840932E+02  0.408585600E+01 -0.377355633E+01
     4
 # iter = 61000  time[fs]=61.00000
   C -0.673232245E+01  0.144065021E+00 -0.695517144E-01
   C  0.658522339E+01 -0.287948567E+00  0.434470255E+00
   H -0.333032639E+02 -0.342853932E+01  0.127553023E+01
   H  0.324776786E+02  0.413703751E+01 -0.382073856E+01
     4
 # iter = 61500  time[fs]=61.50000
   C -0.682061808E+01  0.146609277E+00 -0.707687589E-01
   C  0.667097191E+01 -0.291944250E+00  0.440380820E+00
   H -0.337078000E+02 -0.347033505E+01  0.129138539E+01
   H  0.328714350E+02  0.418824503E+01 -0.386794546E+01
     4
 # iter = 62000  time[fs]=62.00000
   C -0.690898456E+01  0.149156583E+00 -0.719886797E-01
   C  0.675678961E+01 -0.295943717E+00  0.446295765E+00
   H -0.341124832E+02 -0.351214738E+01  0.130724660E+01
   H  0.332653583E+02  0.423947797E+01 -0.391517646E+01
     4
 # iter = 62500  time[fs]=62.50000
   C -0.699742008E+01  0.151706867E+00 -0.732114076E-01
   C  0.684267474E+01 -0.299946880E+00  0.452214987E+00
   H -0.345173100E+02 -0.355397592E+01  0.132311372E+01
   H  0.336594447E+02  0.429073573E+01 -0.396243100E+01
     4
 # iter = 63000  time[fs]=63.00000
   C -0.708592291E+01  0.154260062E+00 -0.744368754E-01
   C  0.692862559E+01 -0.303953656E+00  0.458138386E+00
   H -0.349222770E+02 -0.359582031E+01  0.133898661E+01
   H  0.340536904E+02  0.434201777E+01 -0.400970856E+01
     4
 # iter = 63500  time[fs]=63.50000
   C -0.717449137E+01  0.156816101E+00 -0.756650185E-01
   C  0.701464052E+01 -0.307963963E+00  0.464065865E+00
   H -0.353273811E+02 -0.363768019E+01  0.135486514E+01
   H  0.344480917E+02  0.439332354E+01 -0.405700862E+01
     4
 # iter = 64000  time[fs]=64.00000
   C -0.726312384E+01  0.159374921E+00 -0.768957745E-01
   C  0.710071794E+01 -0.311977723E+00  0.469997330E+00
   H -0.357326191E+02 -0.367955520E+01  0.137074920E+01
   H  0.348426451E+02  0.444465250E+01 -0.410433068E+01
     4
 # iter = 64500  time[fs]=64.50000
   C -0.735181877E+01  0.161936461E+00 -0.781290830E-01
   C  0.718685634E+01 -0.315994859E+00  0.475932691E+00
   H -0.361379880E+02 -0.372144503E+01  0.138663865E+01
   H  0.352373472E+02  0.449600416E+01 -0.415167427E+01
     4
 # iter = 65000  time[fs]=65.00000
   C -0.744057465E+01  0.164500661E+00 -0.793648857E-01
   C  0.727305425E+01 -0.320015298E+00  0.481871861E+00
   H -0.365434850E+02 -0.376334934E+01  0.140253339E+01
   H  0.356321948E+02  0.454737801E+01 -0.419903890E+01
     4
 # iter = 65500  time[fs]=65.50000
   C -0.752939004E+01  0.167067463E+00 -0.806031264E-01
   C  0.735931024E+01 -0.324038969E+00  0.487814756E+00
   H -0.369491072E+02 -0.380526782E+01  0.141843329E+01
   H  0.360271846E+02  0.459877360E+01 -0.424642415E+01
     4
 # iter = 66000  time[fs]=66.00000
   C -0.761826353E+01  0.169636811E+00 -0.818437505E-01
   C  0.744562295E+01 -0.328065802E+00  0.493761292E+00
   H -0.373548519E+02 -0.384720016E+01  0.143433826E+01
   H  0.364223135E+02  0.465019044E+01 -0.429382956E+01
     4
 # iter = 66500  time[fs]=66.50000
   C -0.770719377E+01  0.172208651E+00 -0.830867053E-01
   C  0.753199105E+01 -0.332095731E+00  0.499711392E+00
   H -0.377607165E+02 -0.388914609E+01  0.145024818E+01
   H  0.368175787E+02  0.470162811E+01 -0.434125471E+01
     4
 # iter = 67000  time[fs]=67.00000
   C -0.779617945E+01  0.174782931E+00 -0.843319398E-01
   C  0.761841326E+01 -0.336128691E+00  0.505664979E+00
   H -0.381666984E+02 -0.393110530E+01  0.146616294E+01
   H  0.372129771E+02  0.475308615E+01 -0.438869920E+01
     4
 # iter = 67500  time[fs]=67.50000
   C -0.788521932E+01  0.177359600E+00 -0.855794046E-01
   C  0.770488836E+01 -0.340164619E+00  0.511621978E+00
   H -0.385727952E+02 -0.397307753E+01  0.148208246E+01
   H  0.376085060E+02  0.480456416E+01 -0.443616263E+01
     4
 # iter = 68000  time[fs]=68.00000
   C -0.797431215E+01  0.179938608E+00 -0.868290520E-01
   C  0.779141514E+01 -0.344203454E+00  0.517582317E+00
   H -0.389790044E+02 -0.401506250E+01  0.149800664E+01
   H  0.380041627E+02  0.485606173E+01 -0.448364461E+01
     4
 # iter = 68500  time[fs]=68.50000
   C -0.806345677E+01  0.182519908E+00 -0.880808356E-01
   C  0.787799245E+01 -0.348245137E+00  0.523545928E+00
   H -0.393853238E+02 -0.405705996E+01  0.151393537E+01
   H  0.383999446E+02  0.490757846E+01 -0.453114476E+01
     4
 # iter = 69000  time[fs]=69.00000
   C -0.815265202E+01  0.185103454E+00 -0.893347105E-01
   C  0.796461918E+01 -0.352289610E+00  0.529512742E+00
   H -0.397917511E+02 -0.409906967E+01  0.152986858E+01
   H  0.387958490E+02  0.495911398E+01 -0.457866273E+01
     4
 # iter = 69500  time[fs]=69.50000
   C -0.824189680E+01  0.187689200E+00 -0.905906333E-01
   C  0.805129423E+01 -0.356336819E+00  0.535482694E+00
   H -0.401982841E+02 -0.414109136E+01  0.154580616E+01
   H  0.391918736E+02  0.501066790E+01 -0.462619816E+01
     4
 # iter = 70000  time[fs]=70.00000
   C -0.833119005E+01  0.190277102E+00 -0.918485617E-01
   C  0.813801658E+01 -0.360386709E+00  0.541455721E+00
   H -0.406049208E+02 -0.418312481E+01  0.156174804E+01
   H  0.395880159E+02  0.506223987E+01 -0.467375072E+01
     4
 # iter = 70500  time[fs]=70.50000
   C -0.842053073E+01  0.192867119E+00 -0.931084549E-01
   C  0.822478520E+01 -0.364439227E+00  0.547431760E+00
   H -0.410116589E+02 -0.422516979E+01  0.157769414E+01
   H  0.399842737E+02  0.511382953E+01 -0.472132006E+01
     4
 # iter = 71000  time[fs]=71.00000
   C -0.850991782E+01  0.195459210E+00 -0.943702732E-01
   C  0.831159911E+01 -0.368494322E+00  0.553410752E+00
   H -0.414184967E+02 -0.426722607E+01  0.159364436E+01
   H  0.403806445E+02  0.516543656E+01 -0.476890587E+01
     4
 # iter = 71500  time[fs]=71.50000
   C -0.859935037E+01  0.198053333E+00 -0.956339781E-01
   C  0.839845736E+01 -0.372551946E+00  0.559392640E+00
   H -0.418254321E+02 -0.430929344E+01  0.160959864E+01
   H  0.407771263E+02  0.521706061E+01 -0.481650783E+01
     4
 # iter = 72000  time[fs]=72.00000
   C -0.868882742E+01  0.200649450E+00 -0.968995322E-01
   C  0.848535902E+01 -0.376612049E+00  0.565377365E+00
   H -0.422324632E+02 -0.435137169E+01  0.162555690E+01
   H  0.411737170E+02  0.526870137E+01 -0.486412565E+01
     4
 # iter = 72500  time[fs]=72.50000
   C -0.877834806E+01  0.203247524E+00 -0.981668992E-01
   C  0.857230321E+01 -0.380674586E+00  0.571364875E+00
   H -0.426395882E+02 -0.439346061E+01  0.164151906E+01
   H  0.415704143E+02  0.532035852E+01 -0.491175901E+01
     4
 # iter = 73000  time[fs]=73.00000
   C -0.886791141E+01  0.205847518E+00 -0.994360439E-01
   C  0.865928905E+01 -0.384739511E+00  0.577355115E+00
   H -0.430468054E+02 -0.443556001E+01  0.165748504E+01
   H  0.419672164E+02  0.537203176E+01 -0.495940764E+01
     4
 # iter = 73500  time[fs]=73.50000
   C -0.895751659E+01  0.208449395E+00 -0.100706932E+00
   C  0.874631570E+01 -0.388806778E+00  0.583348034E+00
   H -0.434541131E+02 -0.447766968E+01  0.167345479E+01
   H  0.423641213E+02  0.542372079E+01 -0.500707125E+01
     4
 # iter = 74000  time[fs]=74.00000
   C -0.904716279E+01  0.211053122E+00 -0.101979530E+00
   C  0.883338235E+01 -0.392876347E+00  0.589343582E+00
   H -0.438615094E+02 -0.451978945E+01  0.168942823E+01
   H  0.427611270E+02  0.547542533E+01 -0.505474958E+01
     4
 # iter = 74500  time[fs]=74.50000
   C -0.913684917E+01  0.213658664E+00 -0.103253806E+00
   C  0.892048821E+01 -0.396948174E+00  0.595341709E+00
   H -0.442689929E+02 -0.456191912E+01  0.170540530E+01
   H  0.431582318E+02  0.552714510E+01 -0.510244235E+01
     4
 # iter = 75000  time[fs]=75.00000
   C -0.922657497E+01  0.216265988E+00 -0.104529729E+00
   C  0.900763250E+01 -0.401022218E+00  0.601342368E+00
   H -0.446765619E+02 -0.460405853E+01  0.172138593E+01
   H  0.435554337E+02  0.557887982E+01 -0.515014932E+01
     4
 # iter = 75500  time[fs]=75.50000
   C -0.931633941E+01  0.218875063E+00 -0.105807267E+00
   C  0.909481447E+01 -0.405098441E+00  0.607345513E+00
   H -0.450842149E+02 -0.464620749E+01  0.173737005E+01
   H  0.439527311E+02  0.563062924E+01 -0.519787022E+01
     4
 # iter = 76000  time[fs]=76.00000
   C -0.940614174E+01  0.221485857E+00 -0.107086391E+00
   C  0.918203340E+01 -0.409176804E+00  0.613351099E+00
   H -0.454919504E+02 -0.468836584E+01  0.175335761E+01
   H  0.443501223E+02  0.568239308E+01 -0.524560482E+01
     4
 # iter = 76500  time[fs]=76.50000
   C -0.949598125E+01  0.224098340E+00 -0.108367073E+00
   C  0.926928859E+01 -0.413257268E+00  0.619359082E+00
   H -0.458997669E+02 -0.473053342E+01  0.176934855E+01
   H  0.447476055E+02  0.573417111E+01 -0.529335287E+01
     4
 # iter = 77000  time[fs]=77.00000
   C -0.958585723E+01  0.226712483E+00 -0.109649283E+00
   C  0.935657934E+01 -0.417339797E+00  0.625369419E+00
   H -0.463076629E+02 -0.477271006E+01  0.178534281E+01
   H  0.451451793E+02  0.578596307E+01 -0.534111414E+01
     4
 # iter = 77500  time[fs]=77.50000
   C -0.967576901E+01  0.229328256E+00 -0.110932995E+00
   C  0.944390499E+01 -0.421424357E+00  0.631382069E+00
   H -0.467156372E+02 -0.481489560E+01  0.180134033E+01
   H  0.455428419E+02  0.583776872E+01 -0.538888842E+01
     4
 # iter = 78000  time[fs]=78.00000
   C -0.976571591E+01  0.231945631E+00 -0.112218181E+00
   C  0.953126489E+01 -0.425510910E+00  0.637396991E+00
   H -0.471236883E+02 -0.485708990E+01  0.181734105E+01
   H  0.459405918E+02  0.588958785E+01 -0.543667546E+01
     4
 # iter = 78500  time[fs]=78.50000
   C -0.985569729E+01  0.234564581E+00 -0.113504817E+00
   C  0.961865841E+01 -0.429599425E+00  0.643414146E+00
   H -0.475318150E+02 -0.489929281E+01  0.183334493E+01
   H  0.463384277E+02  0.594142021E+01 -0.548447507E+01
     4
 # iter = 79000  time[fs]=79.00000
   C -0.994571252E+01  0.237185079E+00 -0.114792876E+00
   C  0.970608493E+01 -0.433689868E+00  0.649433496E+00
   H -0.479400159E+02 -0.494150419E+01  0.184935191E+01
   H  0.467363479E+02  0.599326558E+01 -0.553228704E+01
     4
 # iter = 79500  time[fs]=79.50000
   C -0.100357610E+02  0.239807100E+00 -0.116082333E+00
   C  0.979354386E+01 -0.437782206E+00  0.655455002E+00
   H -0.483482898E+02 -0.498372388E+01  0.186536193E+01
   H  0.471343511E+02  0.604512376E+01 -0.558011114E+01
     4
 # iter = 80000  time[fs]=80.00000
   C -0.101258421E+02  0.242430618E+00 -0.117373166E+00
   C  0.988103462E+01 -0.441876408E+00  0.661478630E+00
   H -0.487566354E+02 -0.502595176E+01  0.188137496E+01
   H  0.475324359E+02  0.609699453E+01 -0.562794720E+01
