     4
 # iter = 25000  time[fs]=25.00000
   C -0.989832309E+00 -0.375729592E-01  0.158648623E-02
   C  0.100866645E+01  0.352653333E-01 -0.278554583E-01
   H -0.526285032E+01  0.806620300E+00  0.557994869E+00
   H  0.525895189E+01 -0.753016500E+00 -0.537726696E+00
     4
 # iter = 25500  time[fs]=25.50000
   C -0.103608452E+01 -0.420730674E-01 -0.775917768E-04
   C  0.105210099E+01  0.383475076E-01 -0.263456210E-01
   H -0.559072351E+01  0.856439426E+00  0.591745559E+00
   H  0.557455517E+01 -0.803237903E+00 -0.571005213E+00
     4
 # iter = 26000  time[fs]=26.00000
   C -0.108524210E+01 -0.467217837E-01 -0.172363330E-02
   C  0.109838301E+01  0.415883738E-01 -0.248485961E-01
   H -0.592357049E+01  0.907083900E+00  0.626064576E+00
   H  0.589582685E+01 -0.854405660E+00 -0.604914746E+00
     4
 # iter = 26500  time[fs]=26.50000
   C -0.113706090E+01 -0.515105880E-01 -0.335797058E-02
   C  0.114727454E+01  0.449786184E-01 -0.233583626E-01
   H -0.626084344E+01  0.958461978E+00  0.660887880E+00
   H  0.622214505E+01 -0.906418505E+00 -0.639387520E+00
     4
 # iter = 27000  time[fs]=27.00000
   C -0.119131425E+01 -0.564311558E-01 -0.498576715E-02
   C  0.119855424E+01  0.485091947E-01 -0.218700635E-01
   H -0.660207546E+01  0.101049586E+01  0.696161244E+00
   H  0.655297900E+01 -0.959189974E+00 -0.674365630E+00
     4
 # iter = 27500  time[fs]=27.50000
   C -0.124779370E+01 -0.614754325E-01 -0.661116861E-02
   C  0.125201825E+01  0.521713945E-01 -0.203798472E-01
   H -0.694686615E+01  0.106311908E+01  0.731838415E+00
   H  0.688787300E+01 -0.101264575E+01 -0.709799294E+00
     4
 # iter = 28000  time[fs]=28.00000
   C -0.130630884E+01 -0.666356973E-01 -0.823745633E-02
   C  0.130748017E+01  0.559569057E-01 -0.188847096E-01
   H -0.729487007E+01  0.111627446E+01  0.767879668E+00
   H  0.722643355E+01 -0.106672157E+01 -0.745645461E+00
     4
 # iter = 28500  time[fs]=28.50000
   C -0.136668661E+01 -0.719046084E-01 -0.986719145E-02
   C  0.136477043E+01  0.598578524E-01 -0.173823489E-01
   H -0.764578749E+01  0.116991251E+01  0.804250675E+00
   H  0.756831903E+01 -0.112136154E+01 -0.781866690E+00
     4
 # iter = 29000  time[fs]=29.00000
   C -0.142877025E+01 -0.772752322E-01 -0.115023433E-01
   C  0.142373535E+01  0.638668178E-01 -0.158710364E-01
   H -0.799935702E+01  0.122399015E+01  0.840921588E+00
   H  0.791323131E+01 -0.117651676E+01 -0.818430246E+00
     4
 # iter = 29500  time[fs]=29.50000
   C -0.149241810E+01 -0.827410569E-01 -0.131444005E-01
   C  0.148423594E+01  0.679768530E-01 -0.143495064E-01
   H -0.835534951E+01  0.127846965E+01  0.877866320E+00
   H  0.826090896E+01 -0.123214427E+01 -0.855307367E+00
     4
 # iter = 30000  time[fs]=30.00000
   C -0.155750229E+01 -0.882959937E-01 -0.147944642E-01
   C  0.154614671E+01  0.721814725E-01 -0.128168634E-01
   H -0.871356317E+01  0.133331782E+01  0.915061948E+00
   H  0.861112167E+01 -0.128820611E+01 -0.892472662E+00
     4
 # iter = 30500  time[fs]=30.50000
   C -0.162390746E+01 -0.939343692E-01 -0.164533259E-01
   C  0.160935441E+01  0.764746429E-01 -0.112725057E-01
   H -0.907381947E+01  0.138850531E+01  0.952488236E+00
   H  0.896366563E+01 -0.134466863E+01 -0.929903619E+00
     4
 # iter = 31000  time[fs]=31.00000
   C -0.169152957E+01 -0.996509105E-01 -0.181215311E-01
   C  0.167375688E+01  0.808507633E-01 -0.971606258E-02
   H -0.943595987E+01  0.144400607E+01  0.990127240E+00
   H  0.931835981E+01 -0.140150182E+01 -0.967580192E+00
     4
 # iter = 31500  time[fs]=31.50000
   C -0.176027469E+01 -0.105440726E+00 -0.197994312E-01
   C  0.173926184E+01  0.853046435E-01 -0.814734406E-02
   H -0.979984295E+01  0.149979687E+01  0.102796298E+01
   H  0.967504271E+01 -0.145867888E+01 -0.100548447E+01
     4
 # iter = 32000  time[fs]=32.00000
   C -0.183005798E+01 -0.111299285E+00 -0.214872251E-01
   C  0.180578598E+01  0.898314787E-01 -0.656630000E-02
   H -0.101653422E+02  0.155585690E+01  0.106598117E+01
   H  0.100335698E+02 -0.151617571E+01 -0.104360037E+01
     4
 # iter = 32500  time[fs]=32.50000
   C -0.190080272E+01 -0.117222391E+00 -0.231849929E-01
   C  0.187325391E+01  0.944268244E-01 -0.497298759E-02
   H -0.105323438E+02  0.161216748E+01  0.110416898E+01
   H  0.103938112E+02 -0.157397064E+01 -0.108191344E+01
     4
 # iter = 33000  time[fs]=33.00000
   C -0.197243946E+01 -0.123206165E+00 -0.248927231E-01
   C  0.194159740E+01  0.990865699E-01 -0.336754543E-02
   H -0.109007455E+02  0.166871178E+01  0.114251489E+01
   H  0.107556499E+02 -0.163204408E+01 -0.112041061E+01
     4
 # iter = 33500  time[fs]=33.50000
   C -0.204490520E+01 -0.129247016E+00 -0.266103337E-01
   C  0.201075457E+01  0.103806913E+00 -0.175017299E-02
   H -0.112704547E+02  0.172547455E+01  0.118100845E+01
   H  0.111189800E+02 -0.169037825E+01 -0.115908003E+01
     4
 # iter = 34000  time[fs]=34.00000
   C -0.211814277E+01 -0.135341620E+00 -0.283376893E-01
   C  0.208066920E+01  0.108584338E+00 -0.121114317E-03
   H -0.116413872E+02  0.178244198E+01  0.121964023E+01
   H  0.114837058E+02 -0.174895702E+01 -0.119791096E+01
     4
 # iter = 34500  time[fs]=34.50000
   C -0.219210012E+01 -0.141486903E+00 -0.300746151E-01
   C  0.215129018E+01  0.113415590E+00  0.151935476E-02
   H -0.120134669E+02  0.183960150E+01  0.125840163E+01
   H  0.118497399E+02 -0.180776565E+01 -0.123689359E+01
     4
 # iter = 35000  time[fs]=35.00000
   C -0.226672985E+01 -0.147680016E+00 -0.318209072E-01
   C  0.222257094E+01  0.118297654E+00  0.317093670E-02
   H -0.123866242E+02  0.189694165E+01  0.129728483E+01
   H  0.122170029E+02 -0.186679070E+01 -0.127601898E+01
     4
 # iter = 35500  time[fs]=35.50000
   C -0.234198871E+01 -0.153918319E+00 -0.335763413E-01
   C  0.229446896E+01  0.123227738E+00  0.483332007E-02
   H -0.127607953E+02  0.195445193E+01  0.133628267E+01
   H  0.125854221E+02 -0.192601984E+01 -0.131527893E+01
     4
 # iter = 36000  time[fs]=36.00000
   C -0.241783714E+01 -0.160199364E+00 -0.353406792E-01
   C  0.236694539E+01  0.128203251E+00  0.650618571E-02
   H -0.131359222E+02  0.201212274E+01  0.137538861E+01
   H  0.129549310E+02 -0.198544174E+01 -0.135466592E+01
     4
 # iter = 36500  time[fs]=36.50000
   C -0.249423892E+01 -0.166520877E+00 -0.371136743E-01
   C  0.243996465E+01  0.133221787E+00  0.818921144E-02
   H -0.135119512E+02  0.206994525E+01  0.141459664E+01
   H  0.133254684E+02 -0.204504600E+01 -0.139417303E+01
     4
 # iter = 37000  time[fs]=37.00000
   C -0.257116083E+01 -0.172880748E+00 -0.388950756E-01
   C  0.251349409E+01  0.138281112E+00  0.988207569E-02
   H -0.138888333E+02  0.212791130E+01  0.145390121E+01
   H  0.136969781E+02 -0.210482300E+01 -0.143379388E+01
     4
 # iter = 37500  time[fs]=37.50000
   C -0.264857233E+01 -0.179277012E+00 -0.406846308E-01
   C  0.258750371E+01  0.143379149E+00  0.115844603E-01
   H -0.142665229E+02  0.218601341E+01  0.149329724E+01
   H  0.140694082E+02 -0.216476385E+01 -0.147352257E+01
     4
 # iter = 38000  time[fs]=38.00000
   C -0.272644533E+01 -0.185707840E+00 -0.424820886E-01
   C  0.266196593E+01  0.148513960E+00  0.132960524E-01
   H -0.146449781E+02  0.224424462E+01  0.153278000E+01
   H  0.144427109E+02 -0.222486034E+01 -0.151335366E+01
     4
 # iter = 38500  time[fs]=38.50000
   C -0.280475392E+01 -0.192171529E+00 -0.442872010E-01
   C  0.273685528E+01  0.153683742E+00  0.150165462E-01
   H -0.150241601E+02  0.230259851E+01  0.157234514E+01
   H  0.148168417E+02 -0.228510484E+01 -0.155328209E+01
     4
 # iter = 39000  time[fs]=39.00000
   C -0.288347418E+01 -0.198666489E+00 -0.460997243E-01
   C  0.281214829E+01  0.158886813E+00  0.167456439E-01
   H -0.154040330E+02  0.236106910E+01  0.161198859E+01
   H  0.151917597E+02 -0.234549025E+01 -0.159330315E+01
     4
 # iter = 39500  time[fs]=39.50000
   C -0.296258400E+01 -0.205191235E+00 -0.479194202E-01
   C  0.288782323E+01  0.164121600E+00  0.184830565E-01
   H -0.157845633E+02  0.241965085E+01  0.165170661E+01
   H  0.155674265E+02 -0.240600997E+01 -0.163341249E+01
     4
 # iter = 40000  time[fs]=40.00000
   C -0.304206288E+01 -0.211744380E+00 -0.497460568E-01
   C  0.296385998E+01  0.169386633E+00  0.202285043E-01
   H -0.161657198E+02  0.247833859E+01  0.169149570E+01
   H  0.159438067E+02 -0.246665786E+01 -0.167360602E+01
     4
 # iter = 40500  time[fs]=40.50000
   C -0.312189183E+01 -0.218324623E+00 -0.515794088E-01
   C  0.304023988E+01  0.174680536E+00  0.219817171E-01
   H -0.165474736E+02  0.253712750E+01  0.173135258E+01
   H  0.163208672E+02 -0.252742816E+01 -0.171387995E+01
     4
 # iter = 41000  time[fs]=41.00000
   C -0.320205320E+01 -0.224930750E+00 -0.534192580E-01
   C  0.311694559E+01  0.180002020E+00  0.237424345E-01
   H -0.169297975E+02  0.259601308E+01  0.177127422E+01
   H  0.166985769E+02 -0.258831552E+01 -0.175423072E+01
     4
 # iter = 41500  time[fs]=41.50000
   C -0.328253055E+01 -0.231561618E+00 -0.552653935E-01
   C  0.319396101E+01  0.185349876E+00  0.255104055E-01
   H -0.173126664E+02  0.265499111E+01  0.181125776E+01
   H  0.170769071E+02 -0.264931488E+01 -0.179465501E+01
     4
 # iter = 42000  time[fs]=42.00000
   C -0.336330861E+01 -0.238216156E+00 -0.571176115E-01
   C  0.327127111E+01  0.190722967E+00  0.272853889E-01
   H -0.176960565E+02  0.271405765E+01  0.185130055E+01
   H  0.174558307E+02 -0.271042154E+01 -0.183514969E+01
     4
 # iter = 42500  time[fs]=42.50000
   C -0.344437311E+01 -0.244893358E+00 -0.589757158E-01
   C  0.334886190E+01  0.196120228E+00  0.290671529E-01
   H -0.180799456E+02  0.277320900E+01  0.189140008E+01
   H  0.178353224E+02 -0.277163108E+01 -0.187571185E+01
     4
 # iter = 43000  time[fs]=43.00000
   C -0.352571072E+01 -0.251592278E+00 -0.608395174E-01
   C  0.342672029E+01  0.201540653E+00  0.308554748E-01
   H -0.184643129E+02  0.283244168E+01  0.193155400E+01
   H  0.182153584E+02 -0.283293931E+01 -0.191633873E+01
     4
 # iter = 43500  time[fs]=43.50000
   C -0.360730900E+01 -0.258312023E+00 -0.627088341E-01
   C  0.350483406E+01  0.206983297E+00  0.326501409E-01
   H -0.188491388E+02  0.289175242E+01  0.197176011E+01
   H  0.185959164E+02 -0.289434233E+01 -0.195702776E+01
     4
 # iter = 44000  time[fs]=44.00000
   C -0.368915627E+01 -0.265051753E+00 -0.645834912E-01
   C  0.358319177E+01  0.212447270E+00  0.344509461E-01
   H -0.192344049E+02  0.295113815E+01  0.201201634E+01
   H  0.189769752E+02 -0.295583644E+01 -0.199777648E+01
     4
 # iter = 44500  time[fs]=44.50000
   C -0.377124160E+01 -0.271810677E+00 -0.664633204E-01
   C  0.366178269E+01  0.217931729E+00  0.362576937E-01
   H -0.196200939E+02  0.301059595E+01  0.205232072E+01
   H  0.193585152E+02 -0.301741816E+01 -0.203858260E+01
     4
 # iter = 45000  time[fs]=45.00000
   C -0.385355475E+01 -0.278588046E+00 -0.683481599E-01
   C  0.374059675E+01  0.223435882E+00  0.380701949E-01
   H -0.200061894E+02  0.307012310E+01  0.209267142E+01
   H  0.197405177E+02 -0.307908419E+01 -0.207944395E+01
     4
 # iter = 45500  time[fs]=45.50000
   C -0.393608606E+01 -0.285383153E+00 -0.702378547E-01
   C  0.381962450E+01  0.228958977E+00  0.398882688E-01
   H -0.203926759E+02  0.312971701E+01  0.213306669E+01
   H  0.201229651E+02 -0.314083144E+01 -0.212035849E+01
     4
 # iter = 46000  time[fs]=46.00000
   C -0.401882649E+01 -0.292195330E+00 -0.721322555E-01
   C  0.389885705E+01  0.234500304E+00  0.417117418E-01
   H -0.207795389E+02  0.318937522E+01  0.217350489E+01
   H  0.205058406E+02 -0.320265694E+01 -0.216132427E+01
     4
 # iter = 46500  time[fs]=46.50000
   C -0.410176750E+01 -0.299023944E+00 -0.740312190E-01
   C  0.397828603E+01  0.240059192E+00  0.435404474E-01
   H -0.211667646E+02  0.324909543E+01  0.221398446E+01
   H  0.208891287E+02 -0.326455793E+01 -0.220233945E+01
     4
 # iter = 47000  time[fs]=47.00000
   C -0.418490104E+01 -0.305868394E+00 -0.759346077E-01
   C  0.405790355E+01  0.245635002E+00  0.453742258E-01
   H -0.215543399E+02  0.330887545E+01  0.225450391E+01
   H  0.212728143E+02 -0.332653175E+01 -0.224340230E+01
     4
 # iter = 47500  time[fs]=47.50000
   C -0.426821954E+01 -0.312728113E+00 -0.778422894E-01
   C  0.413770218E+01  0.251227131E+00  0.472129240E-01
   H -0.219422524E+02  0.336871318E+01  0.229506187E+01
   H  0.216568833E+02 -0.338857589E+01 -0.228451117E+01
     4
 # iter = 48000  time[fs]=48.00000
   C -0.435171584E+01 -0.319602560E+00 -0.797541372E-01
   C  0.421767488E+01  0.256835006E+00  0.490563948E-01
   H -0.223304905E+02  0.342860666E+01  0.233565699E+01
   H  0.220413225E+02 -0.345068798E+01 -0.232566448E+01
     4
 # iter = 48500  time[fs]=48.50000
   C -0.443538315E+01 -0.326491224E+00 -0.816700291E-01
   C  0.429781502E+01  0.262458081E+00  0.509044972E-01
   H -0.227190428E+02  0.348855402E+01  0.237628801E+01
   H  0.224261190E+02 -0.351286575E+01 -0.236686075E+01
     4
 # iter = 49000  time[fs]=49.00000
   C -0.451921509E+01 -0.333393618E+00 -0.835898479E-01
   C  0.437811632E+01  0.268095839E+00  0.527570957E-01
   H -0.231078989E+02  0.354855345E+01  0.241695375E+01
   H  0.228112607E+02 -0.357510704E+01 -0.240809855E+01
     4
 # iter = 49500  time[fs]=49.50000
   C -0.460320558E+01 -0.340309278E+00 -0.855134811E-01
   C  0.445857284E+01  0.273747787E+00  0.546140603E-01
   H -0.234970487E+02  0.360860328E+01  0.245765306E+01
   H  0.231967363E+02 -0.363740981E+01 -0.244937655E+01
     4
 # iter = 50000  time[fs]=50.00000
   C -0.468734889E+01 -0.347237763E+00 -0.874408203E-01
   C  0.453917894E+01  0.279413456E+00  0.564752660E-01
   H -0.238864826E+02  0.366870188E+01  0.249838485E+01
   H  0.235825347E+02 -0.369977210E+01 -0.249069346E+01
     4
 # iter = 50500  time[fs]=50.50000
   C -0.477163956E+01 -0.354178654E+00 -0.893717616E-01
   C  0.461992927E+01  0.285092400E+00  0.583405929E-01
   H -0.242761914E+02  0.372884772E+01  0.253914809E+01
   H  0.239686455E+02 -0.376219205E+01 -0.253204804E+01
     4
 # iter = 51000  time[fs]=51.00000
   C -0.485607242E+01 -0.361131551E+00 -0.913062048E-01
   C  0.470081878E+01  0.290784192E+00  0.602099256E-01
   H -0.246661665E+02  0.378903932E+01  0.257994180E+01
   H  0.243550589E+02 -0.382466788E+01 -0.257343914E+01
     4
 # iter = 51500  time[fs]=51.50000
   C -0.494064256E+01 -0.368096072E+00 -0.932440537E-01
   C  0.478184264E+01  0.296488428E+00  0.620831532E-01
   H -0.250563996E+02  0.384927528E+01  0.262076504E+01
   H  0.247417653E+02 -0.388719789E+01 -0.261486564E+01
     4
 # iter = 52000  time[fs]=52.00000
   C -0.502534531E+01 -0.375071853E+00 -0.951852157E-01
   C  0.486299628E+01  0.302204717E+00  0.639601691E-01
   H -0.254468826E+02  0.390955426E+01  0.266161690E+01
   H  0.251287558E+02 -0.394978046E+01 -0.265632647E+01
     4
 # iter = 52500  time[fs]=52.50000
   C -0.511017622E+01 -0.382058546E+00 -0.971296015E-01
   C  0.494427533E+01  0.307932691E+00  0.658408708E-01
   H -0.258376082E+02  0.396987498E+01  0.270249654E+01
   H  0.255160217E+02 -0.401241404E+01 -0.269782061E+01
     4
 # iter = 53000  time[fs]=53.00000
   C -0.519513107E+01 -0.389055818E+00 -0.990771254E-01
   C  0.502567565E+01  0.313671996E+00  0.677251595E-01
   H -0.262285690E+02  0.403023622E+01  0.274340312E+01
   H  0.259035548E+02 -0.407509715E+01 -0.273934709E+01
     4
 # iter = 53500  time[fs]=53.50000
   C -0.528020582E+01 -0.396063353E+00 -0.101027705E+00
   C  0.510719330E+01  0.319422292E+00  0.696129403E-01
   H -0.266197581E+02  0.409063680E+01  0.278433588E+01
   H  0.262913472E+02 -0.413782836E+01 -0.278090498E+01
     4
 # iter = 54000  time[fs]=54.00000
   C -0.536539663E+01 -0.403080845E+00 -0.102981260E+00
   C  0.518882450E+01  0.325183256E+00  0.715041217E-01
   H -0.270111689E+02  0.415107561E+01  0.282529405E+01
   H  0.266793913E+02 -0.420060632E+01 -0.282249338E+01
     4
 # iter = 54500  time[fs]=54.50000
   C -0.545069983E+01 -0.410108004E+00 -0.104937714E+00
   C  0.527056566E+01  0.330954578E+00  0.733986157E-01
   H -0.274027950E+02  0.421155157E+01  0.286627691E+01
   H  0.270676799E+02 -0.426342971E+01 -0.286411143E+01
     4
 # iter = 55000  time[fs]=55.00000
   C -0.553611192E+01 -0.417144551E+00 -0.106896994E+00
   C  0.535241335E+01  0.336735961E+00  0.752963372E-01
   H -0.277946304E+02  0.427206365E+01  0.290728378E+01
   H  0.274562062E+02 -0.432629730E+01 -0.290575832E+01
     4
 # iter = 55500  time[fs]=55.50000
   C -0.562162957E+01 -0.424190219E+00 -0.108859027E+00
   C  0.543436430E+01  0.342527119E+00  0.771972045E-01
   H -0.281866693E+02  0.433261085E+01  0.294831400E+01
   H  0.278449634E+02 -0.438920787E+01 -0.294743327E+01
     4
 # iter = 56000  time[fs]=56.00000
   C -0.570724956E+01 -0.431244752E+00 -0.110823745E+00
   C  0.551641538E+01  0.348327779E+00  0.791011387E-01
   H -0.285789061E+02  0.439319224E+01  0.298936693E+01
   H  0.282339453E+02 -0.445216027E+01 -0.298913550E+01
     4
 # iter = 56500  time[fs]=56.50000
   C -0.579296885E+01 -0.438307904E+00 -0.112791082E+00
   C  0.559856358E+01  0.354137681E+00  0.810080638E-01
   H -0.289713353E+02  0.445380689E+01  0.303044196E+01
   H  0.286231457E+02 -0.451515340E+01 -0.303086430E+01
     4
 # iter = 57000  time[fs]=57.00000
   C -0.587878452E+01 -0.445379439E+00 -0.114760974E+00
   C  0.568080604E+01  0.359956571E+00  0.829179062E-01
   H -0.293639519E+02  0.451445394E+01  0.307153850E+01
   H  0.290125587E+02 -0.457818620E+01 -0.307261897E+01
     4
 # iter = 57500  time[fs]=57.50000
   C -0.596469374E+01 -0.452459130E+00 -0.116733358E+00
   C  0.576314002E+01  0.365784208E+00  0.848305951E-01
   H -0.297567510E+02  0.457513255E+01  0.311265600E+01
   H  0.294021787E+02 -0.464125764E+01 -0.311439884E+01
     4
 # iter = 58000  time[fs]=58.00000
   C -0.605069385E+01 -0.459546760E+00 -0.118708176E+00
   C  0.584556289E+01  0.371620360E+00  0.867460622E-01
   H -0.301497276E+02  0.463584189E+01  0.315379391E+01
   H  0.297920003E+02 -0.470436673E+01 -0.315620326E+01
     4
 # iter = 58500  time[fs]=58.50000
   C -0.613678228E+01 -0.466642120E+00 -0.120685369E+00
   C  0.592807213E+01  0.377464803E+00  0.886642414E-01
   H -0.305428774E+02  0.469658120E+01  0.319495172E+01
   H  0.301820183E+02 -0.476751252E+01 -0.319803161E+01
     4
 # iter = 59000  time[fs]=59.00000
   C -0.622295654E+01 -0.473745008E+00 -0.122664882E+00
   C  0.601066532E+01  0.383317324E+00  0.905850688E-01
   H -0.309361959E+02  0.475734972E+01  0.323612891E+01
   H  0.305722277E+02 -0.483069412E+01 -0.323988330E+01
     4
 # iter = 59500  time[fs]=59.50000
   C -0.630921428E+01 -0.480855231E+00 -0.124646660E+00
   C  0.609334013E+01  0.389177714E+00  0.925084828E-01
   H -0.313296787E+02  0.481814674E+01  0.327732502E+01
   H  0.309626236E+02 -0.489391062E+01 -0.328175775E+01
     4
 # iter = 60000  time[fs]=60.00000
   C -0.639555321E+01 -0.487972602E+00 -0.126630653E+00
   C  0.617609435E+01  0.395045775E+00  0.944344238E-01
   H -0.317233220E+02  0.487897155E+01  0.331853957E+01
   H  0.313532015E+02 -0.495716120E+01 -0.332365439E+01
     4
 # iter = 60500  time[fs]=60.50000
   C -0.648197116E+01 -0.495096942E+00 -0.128616808E+00
   C  0.625892583E+01  0.400921315E+00  0.963628340E-01
   H -0.321171217E+02  0.493982349E+01  0.335977212E+01
   H  0.317439568E+02 -0.502044503E+01 -0.336557271E+01
     4
 # iter = 61000  time[fs]=61.00000
   C -0.656846602E+01 -0.502228077E+00 -0.130605079E+00
   C  0.634183252E+01  0.406804150E+00  0.982936577E-01
   H -0.325110740E+02  0.500070190E+01  0.340102223E+01
   H  0.321348852E+02 -0.508376131E+01 -0.340751218E+01
     4
 # iter = 61500  time[fs]=61.50000
   C -0.665503577E+01 -0.509365842E+00 -0.132595417E+00
   C  0.642481244E+01  0.412694101E+00  0.100226841E+00
   H -0.329051753E+02  0.506160617E+01  0.344228949E+01
   H  0.325259826E+02 -0.514710930E+01 -0.344947230E+01
     4
 # iter = 62000  time[fs]=62.00000
   C -0.674167848E+01 -0.516510075E+00 -0.134587777E+00
   C  0.650786368E+01  0.418590996E+00  0.102162332E+00
   H -0.332994220E+02  0.512253568E+01  0.348357350E+01
   H  0.329172449E+02 -0.521048826E+01 -0.349145259E+01
     4
 # iter = 62500  time[fs]=62.50000
   C -0.682839227E+01 -0.523660620E+00 -0.136582114E+00
   C  0.659098442E+01  0.424494671E+00  0.104100079E+00
   H -0.336938108E+02  0.518348987E+01  0.352487386E+01
   H  0.333086684E+02 -0.527389747E+01 -0.353345259E+01
     4
 # iter = 63000  time[fs]=63.00000
   C -0.691517534E+01 -0.530817330E+00 -0.138578386E+00
   C  0.667417290E+01  0.430404964E+00  0.106040034E+00
   H -0.340883384E+02  0.524446816E+01  0.356619021E+01
   H  0.337002491E+02 -0.533733625E+01 -0.357547186E+01
     4
 # iter = 63500  time[fs]=63.50000
   C -0.700202597E+01 -0.537980058E+00 -0.140576551E+00
   C  0.675742741E+01  0.436321721E+00  0.107982150E+00
   H -0.344830015E+02  0.530547001E+01  0.360752218E+01
   H  0.340919836E+02 -0.540080394E+01 -0.361750994E+01
     4
 # iter = 64000  time[fs]=64.00000
   C -0.708894246E+01 -0.545148666E+00 -0.142576570E+00
   C  0.684074632E+01  0.442244794E+00  0.109926380E+00
   H -0.348777972E+02  0.536649491E+01  0.364886943E+01
   H  0.344838683E+02 -0.546429989E+01 -0.365956644E+01
     4
 # iter = 64500  time[fs]=64.50000
   C -0.717592323E+01 -0.552323018E+00 -0.144578403E+00
   C  0.692412806E+01  0.448174037E+00  0.111872679E+00
   H -0.352727224E+02  0.542754233E+01  0.369023160E+01
   H  0.348758999E+02 -0.552782350E+01 -0.370164093E+01
     4
 # iter = 65000  time[fs]=65.00000
   C -0.726296670E+01 -0.559502984E+00 -0.146582011E+00
   C  0.700757109E+01  0.454109313E+00  0.113821006E+00
   H -0.356677743E+02  0.548861179E+01  0.373160838E+01
   H  0.352680751E+02 -0.559137415E+01 -0.374373304E+01
     4
 # iter = 65500  time[fs]=65.50000
   C -0.735007139E+01 -0.566688438E+00 -0.148587360E+00
   C  0.709107396E+01  0.460050485E+00  0.115771317E+00
   H -0.360629501E+02  0.554970281E+01  0.377299945E+01
   H  0.356603907E+02 -0.565495127E+01 -0.378584237E+01
     4
 # iter = 66000  time[fs]=66.00000
   C -0.743723584E+01 -0.573879259E+00 -0.150594412E+00
   C  0.717463525E+01  0.465997423E+00  0.117723572E+00
   H -0.364582471E+02  0.561081494E+01  0.381440450E+01
   H  0.360528437E+02 -0.571855429E+01 -0.382796857E+01
     4
 # iter = 66500  time[fs]=66.50000
   C -0.752445865E+01 -0.581075327E+00 -0.152603134E+00
   C  0.725825359E+01  0.471950001E+00  0.119677732E+00
   H -0.368536628E+02  0.567194772E+01  0.385582323E+01
   H  0.364454311E+02 -0.578218267E+01 -0.387011127E+01
     4
 # iter = 67000  time[fs]=67.00000
   C -0.761173849E+01 -0.588276530E+00 -0.154613492E+00
   C  0.734192765E+01  0.477908098E+00  0.121633758E+00
   H -0.372491945E+02  0.573310072E+01  0.389725537E+01
   H  0.368381502E+02 -0.584583588E+01 -0.391227013E+01
     4
 # iter = 67500  time[fs]=67.50000
   C -0.769907403E+01 -0.595482757E+00 -0.156625454E+00
   C  0.742565616E+01  0.483871595E+00  0.123591613E+00
   H -0.376448399E+02  0.579427353E+01  0.393870061E+01
   H  0.372309980E+02 -0.590951342E+01 -0.395444482E+01
     4
 # iter = 68000  time[fs]=68.00000
   C -0.778646403E+01 -0.602693900E+00 -0.158638987E+00
   C  0.750943789E+01  0.489840376E+00  0.125551261E+00
   H -0.380405966E+02  0.585546574E+01  0.398015871E+01
   H  0.376239719E+02 -0.597321477E+01 -0.399663501E+01
     4
 # iter = 68500  time[fs]=68.50000
   C -0.787390725E+01 -0.609909856E+00 -0.160654062E+00
   C  0.759327164E+01  0.495814332E+00  0.127512667E+00
   H -0.384364623E+02  0.591667695E+01  0.402162939E+01
   H  0.380170693E+02 -0.603693947E+01 -0.403884039E+01
     4
 # iter = 69000  time[fs]=69.00000
   C -0.796140253E+01 -0.617130524E+00 -0.162670648E+00
   C  0.767715626E+01  0.501793355E+00  0.129475797E+00
   H -0.388324348E+02  0.597790679E+01  0.406311241E+01
   H  0.384102877E+02 -0.610068705E+01 -0.408106065E+01
     4
 # iter = 69500  time[fs]=69.50000
   C -0.804894871E+01 -0.624355807E+00 -0.164688716E+00
   C  0.776109063E+01  0.507777340E+00  0.131440618E+00
   H -0.392285120E+02  0.603915488E+01  0.410460750E+01
   H  0.388036247E+02 -0.616445704E+01 -0.412329550E+01
     4
 # iter = 70000  time[fs]=70.00000
   C -0.813654469E+01 -0.631585611E+00 -0.166708238E+00
   C  0.784507366E+01  0.513766186E+00  0.133407098E+00
   H -0.396246916E+02  0.610042086E+01  0.414611445E+01
   H  0.391970778E+02 -0.622824902E+01 -0.416554465E+01
     4
 # iter = 70500  time[fs]=70.50000
   C -0.822418941E+01 -0.638819843E+00 -0.168729187E+00
   C  0.792910432E+01  0.519759796E+00  0.135375205E+00
   H -0.400209718E+02  0.616170438E+01  0.418763300E+01
   H  0.395906447E+02 -0.629206256E+01 -0.420780782E+01
     4
 # iter = 71000  time[fs]=71.00000
   C -0.831188182E+01 -0.646058415E+00 -0.170751536E+00
   C  0.801318158E+01  0.525758073E+00  0.137344909E+00
   H -0.404173505E+02  0.622300512E+01  0.422916295E+01
   H  0.399843233E+02 -0.635589723E+01 -0.425008473E+01
     4
 # iter = 71500  time[fs]=71.50000
   C -0.839962093E+01 -0.653301240E+00 -0.172775259E+00
   C  0.809730447E+01  0.531760926E+00  0.139316180E+00
   H -0.408138258E+02  0.628432272E+01  0.427070406E+01
   H  0.403781112E+02 -0.641975265E+01 -0.429237514E+01
     4
 # iter = 72000  time[fs]=72.00000
   C -0.848740574E+01 -0.660548236E+00 -0.174800332E+00
   C  0.818147202E+01  0.537768264E+00  0.141288990E+00
   H -0.412103959E+02  0.634565688E+01  0.431225613E+01
   H  0.407720065E+02 -0.648362841E+01 -0.433467877E+01
     4
 # iter = 72500  time[fs]=72.50000
   C -0.857523533E+01 -0.667799319E+00 -0.176826728E+00
   C  0.826568332E+01  0.543780000E+00  0.143263310E+00
   H -0.416070590E+02  0.640700729E+01  0.435381895E+01
   H  0.411660071E+02 -0.654752414E+01 -0.437699539E+01
     4
 # iter = 73000  time[fs]=73.00000
   C -0.866310878E+01 -0.675054412E+00 -0.178854425E+00
   C  0.834993747E+01  0.549796050E+00  0.145239113E+00
   H -0.420038133E+02  0.646837364E+01  0.439539231E+01
   H  0.415601110E+02 -0.661143946E+01 -0.441932475E+01
     4
 # iter = 73500  time[fs]=73.50000
   C -0.875102519E+01 -0.682313437E+00 -0.180883399E+00
   C  0.843423360E+01  0.555816332E+00  0.147216373E+00
   H -0.424006570E+02  0.652975563E+01  0.443697603E+01
   H  0.419543162E+02 -0.667537401E+01 -0.446166661E+01
     4
 # iter = 74000  time[fs]=74.00000
   C -0.883898371E+01 -0.689576320E+00 -0.182913628E+00
   C  0.851857086E+01  0.561840765E+00  0.149195064E+00
   H -0.427975886E+02  0.659115299E+01  0.447856991E+01
   H  0.423486208E+02 -0.673932746E+01 -0.450402075E+01
     4
 # iter = 74500  time[fs]=74.50000
   C -0.892698349E+01 -0.696842988E+00 -0.184945089E+00
   C  0.860294845E+01  0.567869272E+00  0.151175160E+00
   H -0.431946065E+02  0.665256543E+01  0.452017377E+01
   H  0.427430231E+02 -0.680329944E+01 -0.454638695E+01
     4
 # iter = 75000  time[fs]=75.00000
   C -0.901502374E+01 -0.704113371E+00 -0.186977760E+00
   C  0.868736555E+01  0.573901777E+00  0.153156637E+00
   H -0.435917089E+02  0.671399268E+01  0.456178742E+01
   H  0.431375212E+02 -0.686728964E+01 -0.458876498E+01
     4
 # iter = 75500  time[fs]=75.50000
   C -0.910310364E+01 -0.711387400E+00 -0.189011622E+00
   C  0.877182141E+01  0.579938206E+00  0.155139472E+00
   H -0.439888945E+02  0.677543448E+01  0.460341070E+01
   H  0.435321134E+02 -0.693129773E+01 -0.463115464E+01
     4
 # iter = 76000  time[fs]=76.00000
   C -0.919122245E+01 -0.718665008E+00 -0.191046653E+00
   C  0.885631527E+01  0.585978488E+00  0.157123640E+00
   H -0.443861618E+02  0.683689057E+01  0.464504342E+01
   H  0.439267980E+02 -0.699532339E+01 -0.467355572E+01
     4
 # iter = 76500  time[fs]=76.50000
   C -0.927937941E+01 -0.725946131E+00 -0.193082834E+00
   C  0.894084640E+01  0.592022553E+00  0.159109118E+00
   H -0.447835092E+02  0.689836070E+01  0.468668543E+01
   H  0.443215734E+02 -0.705936632E+01 -0.471596803E+01
     4
 # iter = 77000  time[fs]=77.00000
   C -0.936757379E+01 -0.733230704E+00 -0.195120145E+00
   C  0.902541410E+01  0.598070334E+00  0.161095886E+00
   H -0.451809354E+02  0.695984463E+01  0.472833657E+01
   H  0.447164380E+02 -0.712342622E+01 -0.475839136E+01
     4
 # iter = 77500  time[fs]=77.50000
   C -0.945580491E+01 -0.740518667E+00 -0.197158567E+00
   C  0.911001767E+01  0.604121764E+00  0.163083921E+00
   H -0.455784391E+02  0.702134213E+01  0.476999667E+01
   H  0.451113902E+02 -0.718750280E+01 -0.480082553E+01
     4
 # iter = 78000  time[fs]=78.00000
   C -0.954407206E+01 -0.747809960E+00 -0.199198081E+00
   C  0.919465644E+01  0.610176779E+00  0.165073202E+00
   H -0.459760188E+02  0.708285295E+01  0.481166558E+01
   H  0.455064285E+02 -0.725159577E+01 -0.484327036E+01
     4
 # iter = 78500  time[fs]=78.50000
   C -0.963237459E+01 -0.755104523E+00 -0.201238671E+00
   C  0.927932977E+01  0.616235316E+00  0.167063708E+00
   H -0.463736733E+02  0.714437687E+01  0.485334316E+01
   H  0.459015514E+02 -0.731570486E+01 -0.488572565E+01
     4
 # iter = 79000  time[fs]=79.00000
   C -0.972071185E+01 -0.762402301E+00 -0.203280317E+00
   C  0.936403702E+01  0.622297315E+00  0.169055420E+00
   H -0.467714012E+02  0.720591368E+01  0.489502925E+01
   H  0.462967574E+02 -0.737982981E+01 -0.492819125E+01
     4
 # iter = 79500  time[fs]=79.50000
   C -0.980908320E+01 -0.769703237E+00 -0.205323003E+00
   C  0.944877757E+01  0.628362716E+00  0.171048318E+00
   H -0.471692014E+02  0.726746315E+01  0.493672372E+01
   H  0.466920453E+02 -0.744397034E+01 -0.497066697E+01
     4
 # iter = 80000  time[fs]=80.00000
   C -0.989748803E+01 -0.777007279E+00 -0.207366712E+00
   C  0.953355083E+01  0.634431460E+00  0.173042382E+00
   H -0.475670727E+02  0.732902509E+01  0.497842642E+01
   H  0.470874135E+02 -0.750812620E+01 -0.501315265E+01
