     4
 # iter = 25000  time[fs]=25.00000
   C -0.952918896E+00  0.301140516E-01 -0.112377654E-01
   C  0.102381272E+01 -0.364090935E-01 -0.107245654E-01
   H -0.519180013E+01  0.370875491E-03 -0.481495248E+00
   H  0.532834928E+01  0.483651095E+00  0.646869332E+00
     4
 # iter = 25500  time[fs]=25.50000
   C -0.997144903E+00  0.307992593E-01 -0.878404741E-02
   C  0.106983446E+01 -0.386150193E-01 -0.123835073E-01
   H -0.552358546E+01 -0.133593734E-02 -0.510078789E+00
   H  0.564158324E+01  0.514727792E+00  0.687626347E+00
     4
 # iter = 26000  time[fs]=26.00000
   C -0.104464023E+01  0.315930721E-01 -0.631603625E-02
   C  0.111913471E+01 -0.409494909E-01 -0.140632279E-01
   H -0.585809854E+01 -0.306271379E-02 -0.538935596E+00
   H  0.595743463E+01  0.546063740E+00  0.728734456E+00
     4
 # iter = 26500  time[fs]=26.50000
   C -0.109512228E+01  0.324858426E-01 -0.382972105E-02
   C  0.117142836E+01 -0.434007953E-01 -0.157672870E-01
   H -0.619503261E+01 -0.480757817E-02 -0.568034458E+00
   H  0.627562681E+01  0.577632278E+00  0.770157032E+00
     4
 # iter = 27000  time[fs]=27.00000
   C -0.114832852E+01  0.334686870E-01 -0.132225499E-02
   C  0.122645100E+01 -0.459582901E-01 -0.174981126E-01
   H -0.653412915E+01 -0.656892546E-02 -0.597349236E+00
   H  0.659592399E+01  0.609410696E+00  0.811862912E+00
     4
 # iter = 27500  time[fs]=27.50000
   C -0.120401769E+01  0.345334965E-01  0.120825753E-02
   C  0.128395990E+01 -0.486123567E-01 -0.192572144E-01
   H -0.687516834E+01 -0.834536784E-02 -0.626857821E+00
   H  0.691812368E+01  0.641379491E+00  0.853825355E+00
     4
 # iter = 28000  time[fs]=28.00000
   C -0.126196981E+01  0.356729166E-01  0.376295639E-02
   C  0.134373401E+01 -0.513543348E-01 -0.210453785E-01
   H -0.721796182E+01 -0.101356946E-01 -0.656541342E+00
   H  0.724205078E+01  0.673521779E+00  0.896021249E+00
     4
 # iter = 28500  time[fs]=28.50000
   C -0.132198548E+01  0.368803079E-01  0.634239537E-02
   C  0.140557304E+01 -0.541764474E-01 -0.228628352E-01
   H -0.756234697E+01 -0.119388417E-01 -0.686383570E+00
   H  0.756755294E+01  0.705822848E+00  0.938430476E+00
     4
 # iter = 29000  time[fs]=29.00000
   C -0.138388461E+01  0.381496949E-01  0.894668370E-02
   C  0.146929626E+01 -0.570717222E-01 -0.247093978E-01
   H -0.790818253E+01 -0.137538674E-01 -0.716370438E+00
   H  0.789449679E+01  0.738269795E+00  0.981035423E+00
     4
 # iter = 29500  time[fs]=29.50000
   C -0.144750502E+01  0.394757096E-01  0.115756009E-01
   C  0.153474098E+01 -0.600339129E-01 -0.265845754E-01
   H -0.825534499E+01 -0.155799338E-01 -0.746489678E+00
   H  0.822276495E+01  0.770851239E+00  0.102382058E+01
     4
 # iter = 30000  time[fs]=30.00000
   C -0.151270084E+01  0.408535350E-01  0.142286882E-01
   C  0.160176092E+01 -0.630574241E-01 -0.284876619E-01
   H -0.860372580E+01 -0.174162912E-01 -0.776730526E+00
   H  0.855225365E+01  0.803557092E+00  0.106677220E+01
     4
 # iter = 30500  time[fs]=30.50000
   C -0.157934096E+01  0.422788492E-01  0.169053197E-01
   C  0.167022468E+01 -0.661372411E-01 -0.304178049E-01
   H -0.895322907E+01 -0.192622657E-01 -0.807083483E+00
   H  0.888287067E+01  0.836378367E+00  0.110987808E+01
     4
 # iter = 31000  time[fs]=31.00000
   C -0.164730756E+01  0.437477735E-01  0.196047573E-01
   C  0.174001419E+01 -0.692688659E-01 -0.323740588E-01
   H -0.930376965E+01 -0.211172494E-01 -0.837540127E+00
   H  0.921453372E+01  0.869307023E+00  0.115312731E+01
     4
 # iter = 31500  time[fs]=31.50000
   C -0.171649469E+01  0.452568241E-01  0.223261927E-01
   C  0.181102331E+01 -0.724482584E-01 -0.343554247E-01
   H -0.965527165E+01 -0.229806912E-01 -0.868092952E+00
   H  0.954716910E+01  0.902335834E+00  0.119651009E+01
     4
 # iter = 32000  time[fs]=32.00000
   C -0.178680698E+01  0.468028687E-01  0.250687783E-01
   C  0.188315655E+01 -0.756717853E-01 -0.363608796E-01
   H -0.100076671E+02 -0.248520903E-01 -0.898735243E+00
   H  0.988071054E+01  0.935458287E+00  0.124001760E+01
     4
 # iter = 32500  time[fs]=32.50000
   C -0.185815852E+01  0.483830870E-01  0.278316508E-01
   C  0.195632789E+01 -0.789361730E-01 -0.383893989E-01
   H -0.103608950E+02 -0.267309896E-01 -0.929460967E+00
   H  0.102150982E+02  0.968668485E+00  0.128364187E+01
     4
 # iter = 33000  time[fs]=33.00000
   C -0.193047178E+01  0.499949357E-01  0.306139481E-01
   C  0.203045972E+01 -0.822384669E-01 -0.404399715E-01
   H -0.107149002E+02 -0.286169712E-01 -0.960264683E+00
   H  0.105502780E+02  0.100196108E+01  0.132737568E+01
     4
 # iter = 33500  time[fs]=33.50000
   C -0.200367671E+01  0.516361176E-01  0.334148211E-01
   C  0.210548193E+01 -0.855759954E-01 -0.425116107E-01
   H -0.110696329E+02 -0.305096516E-01 -0.991141469E+00
   H  0.108862007E+02  0.103533118E+01  0.137121245E+01
     4
 # iter = 34000  time[fs]=34.00000
   C -0.207770988E+01  0.533045539E-01  0.362334427E-01
   C  0.218133106E+01 -0.889463380E-01 -0.446033620E-01
   H -0.114250479E+02 -0.324086780E-01 -0.102208685E+01
   H  0.112228216E+02  0.106877435E+01  0.141514618E+01
     4
 # iter = 34500  time[fs]=34.50000
   C -0.215251379E+01  0.549983601E-01  0.390690130E-01
   C  0.225794958E+01 -0.923472975E-01 -0.467143073E-01
   H -0.117811040E+02 -0.343137252E-01 -0.105309677E+01
   H  0.115600998E+02  0.110228650E+01  0.145917138E+01
     4
 # iter = 35000  time[fs]=35.00000
   C -0.222803620E+01  0.567158246E-01  0.419207634E-01
   C  0.233528524E+01 -0.957768751E-01 -0.488435685E-01
   H -0.121377637E+02 -0.362244926E-01 -0.108416749E+01
   H  0.118979978E+02  0.113586390E+01  0.150328302E+01
     4
 # iter = 35500  time[fs]=35.50000
   C -0.230422956E+01  0.584553899E-01  0.447879583E-01
   C  0.241329049E+01 -0.992332494E-01 -0.509903078E-01
   H -0.124949924E+02 -0.381407019E-01 -0.111529562E+01
   H  0.122364813E+02  0.116950308E+01  0.154747647E+01
     4
 # iter = 36000  time[fs]=36.00000
   C -0.238105054E+01  0.602156361E-01  0.476698963E-01
   C  0.249192198E+01 -0.102714757E+00 -0.531537291E-01
   H -0.128527587E+02 -0.400620947E-01 -0.114647803E+01
   H  0.125755188E+02  0.120320087E+01  0.159174747E+01
     4
 # iter = 36500  time[fs]=36.50000
   C -0.245845953E+01  0.619952661E-01  0.505659106E-01
   C  0.257114014E+01 -0.106219875E+00 -0.553330765E-01
   H -0.132110335E+02 -0.419884309E-01 -0.117771185E+01
   H  0.129150809E+02  0.123695434E+01  0.163609208E+01
     4
 # iter = 37000  time[fs]=37.00000
   C -0.253642030E+01  0.637930931E-01  0.534753678E-01
   C  0.265090874E+01 -0.109747210E+00 -0.575276343E-01
   H -0.135697900E+02 -0.439194867E-01 -0.120899442E+01
   H  0.132551409E+02  0.127076075E+01  0.168050664E+01
     4
 # iter = 37500  time[fs]=37.50000
   C -0.261489966E+01  0.656080289E-01  0.563976680E-01
   C  0.273119460E+01 -0.113295479E+00 -0.597367249E-01
   H -0.139290036E+02 -0.458550534E-01 -0.124032330E+01
   H  0.135956739E+02  0.130461759E+01  0.172498779E+01
     4
 # iter = 38000  time[fs]=38.00000
   C -0.269386709E+01  0.674390742E-01  0.593322429E-01
   C  0.281196722E+01 -0.116863504E+00 -0.619597075E-01
   H -0.142886513E+02 -0.477949359E-01 -0.127169620E+01
   H  0.139366566E+02  0.133852249E+01  0.176953237E+01
     4
 # iter = 38500  time[fs]=38.50000
   C -0.277329454E+01  0.692853096E-01  0.622785551E-01
   C  0.289319859E+01 -0.120450198E+00 -0.641959766E-01
   H -0.146487120E+02 -0.497389516E-01 -0.130311103E+01
   H  0.142780677E+02  0.137247327E+01  0.181413746E+01
     4
 # iter = 39000  time[fs]=39.00000
   C -0.285315616E+01  0.711458876E-01  0.652360960E-01
   C  0.297486286E+01 -0.124054557E+00 -0.664449599E-01
   H -0.150091659E+02 -0.516869293E-01 -0.133456581E+01
   H  0.146198871E+02  0.140646789E+01  0.185880035E+01
     4
 # iter = 39500  time[fs]=39.50000
   C -0.293342809E+01  0.730200262E-01  0.682043852E-01
   C  0.305693621E+01 -0.127675654E+00 -0.687061168E-01
   H -0.153699947E+02 -0.536387085E-01 -0.136605874E+01
   H  0.149620963E+02  0.144050444E+01  0.190351847E+01
     4
 # iter = 40000  time[fs]=40.00000
   C -0.301408827E+01  0.749070019E-01  0.711829683E-01
   C  0.313939660E+01 -0.131312629E+00 -0.709789363E-01
   H -0.157311813E+02 -0.555941379E-01 -0.139758810E+01
   H  0.153046778E+02  0.147458113E+01  0.194828946E+01
     4
 # iter = 40500  time[fs]=40.50000
   C -0.309511628E+01  0.768061450E-01  0.741714156E-01
   C  0.322222363E+01 -0.134964685E+00 -0.732629356E-01
   H -0.160927098E+02 -0.575530755E-01 -0.142915231E+01
   H  0.156476154E+02  0.150869628E+01  0.199311108E+01
     4
 # iter = 41000  time[fs]=41.00000
   C -0.317649318E+01  0.787168341E-01  0.771693211E-01
   C  0.330539839E+01 -0.138631080E+00 -0.755576582E-01
   H -0.164545651E+02 -0.595153873E-01 -0.146074988E+01
   H  0.159908938E+02  0.154284833E+01  0.203798124E+01
     4
 # iter = 41500  time[fs]=41.50000
   C -0.325820139E+01  0.806384922E-01  0.801763005E-01
   C  0.338890332E+01 -0.142311124E+00 -0.778626727E-01
   H -0.168167335E+02 -0.614809468E-01 -0.149237940E+01
   H  0.163344988E+02  0.157703579E+01  0.208289797E+01
     4
 # iter = 42000  time[fs]=42.00000
   C -0.334022454E+01  0.825705822E-01  0.831919906E-01
   C  0.347272209E+01 -0.146004175E+00 -0.801775706E-01
   H -0.171792016E+02 -0.634496348E-01 -0.152403958E+01
   H  0.166784170E+02  0.161125728E+01  0.212785944E+01
     4
 # iter = 42500  time[fs]=42.50000
   C -0.342254741E+01  0.845126042E-01  0.862160472E-01
   C  0.355683950E+01 -0.149709634E+00 -0.825019655E-01
   H -0.175419574E+02 -0.654213383E-01 -0.155572919E+01
   H  0.170226357E+02  0.164551148E+01  0.217286389E+01
     4
 # iter = 43000  time[fs]=43.00000
   C -0.350515579E+01  0.864640914E-01  0.892481446E-01
   C  0.364124135E+01 -0.153426938E+00 -0.848354915E-01
   H -0.179049891E+02 -0.673959504E-01 -0.158744705E+01
   H  0.173671431E+02  0.167979717E+01  0.221790969E+01
     4
 # iter = 43500  time[fs]=43.50000
   C -0.358803641E+01  0.884246082E-01  0.922879744E-01
   C  0.372591441E+01 -0.157155564E+00 -0.871778019E-01
   H -0.182682859E+02 -0.693733700E-01 -0.161919210E+01
   H  0.177119281E+02  0.171411317E+01  0.226299529E+01
     4
 # iter = 44000  time[fs]=44.00000
   C -0.367117688E+01  0.903937470E-01  0.953352440E-01
   C  0.381084631E+01 -0.160895021E+00 -0.895285681E-01
   H -0.186318376E+02 -0.713535008E-01 -0.165096329E+01
   H  0.180569800E+02  0.174845838E+01  0.230811922E+01
     4
 # iter = 44500  time[fs]=44.50000
   C -0.375456558E+01  0.923711260E-01  0.983896760E-01
   C  0.389602545E+01 -0.164644847E+00 -0.918874782E-01
   H -0.189956345E+02 -0.733362519E-01 -0.168275966E+01
   H  0.184022889E+02  0.178283176E+01  0.235328012E+01
     4
 # iter = 45000  time[fs]=45.00000
   C -0.383819163E+01  0.943563875E-01  0.101451007E+00
   C  0.398144098E+01 -0.168404608E+00 -0.942542366E-01
   H -0.193596674E+02 -0.753215366E-01 -0.171458028E+01
   H  0.187478454E+02  0.181723231E+01  0.239847665E+01
     4
 # iter = 45500  time[fs]=45.50000
   C -0.392204482E+01  0.963491956E-01  0.104518988E+00
   C  0.406708272E+01 -0.172173899E+00 -0.966285621E-01
   H -0.197239277E+02 -0.773092724E-01 -0.174642430E+01
   H  0.190936406E+02  0.185165911E+01  0.244370760E+01
     4
 # iter = 46000  time[fs]=46.00000
   C -0.400611556E+01  0.983492346E-01  0.107593381E+00
   C  0.415294108E+01 -0.175952336E+00 -0.990101881E-01
   H -0.200884072E+02 -0.792993809E-01 -0.177829088E+01
   H  0.194396660E+02  0.188611125E+01  0.248897176E+01
     4
 # iter = 46500  time[fs]=46.50000
   C -0.409039483E+01  0.100356208E+00  0.110673960E+00
   C  0.423900708E+01 -0.179739557E+00 -0.101398861E+00
   H -0.204530982E+02 -0.812917875E-01 -0.181017926E+01
   H  0.197859136E+02  0.192058790E+01  0.253426804E+01
     4
 # iter = 47000  time[fs]=47.00000
   C -0.417487414E+01  0.102369835E+00  0.113760512E+00
   C  0.432527224E+01 -0.183535222E+00 -0.103794338E+00
   H -0.208179934E+02 -0.832864209E-01 -0.184208867E+01
   H  0.201323759E+02  0.195508825E+01  0.257959536E+01
     4
 # iter = 47500  time[fs]=47.50000
   C -0.425954547E+01  0.104389853E+00  0.116852831E+00
   C  0.441172858E+01 -0.187339009E+00 -0.106196391E+00
   H -0.211830857E+02 -0.852832133E-01 -0.187401844E+01
   H  0.204790456E+02  0.198961154E+01  0.262495272E+01
     4
 # iter = 48000  time[fs]=48.00000
   C -0.434440130E+01  0.106416014E+00  0.119950723E+00
   C  0.449836857E+01 -0.191150615E+00 -0.108604800E+00
   H -0.215483685E+02 -0.872820996E-01 -0.190596788E+01
   H  0.208259158E+02  0.202415703E+01  0.267033915E+01
     4
 # iter = 48500  time[fs]=48.50000
   C -0.442943447E+01  0.108448081E+00  0.123054003E+00
   C  0.458518510E+01 -0.194969751E+00 -0.111019357E+00
   H -0.219138356E+02 -0.892830180E-01 -0.193793636E+01
   H  0.211729800E+02  0.205872404E+01  0.271575374E+01
     4
 # iter = 49000  time[fs]=49.00000
   C -0.451463827E+01  0.110485834E+00  0.126162496E+00
   C  0.467217145E+01 -0.198796145E+00 -0.113439863E+00
   H -0.222794810E+02 -0.912859091E-01 -0.196992328E+01
   H  0.215202321E+02  0.209331190E+01  0.276119561E+01
     4
 # iter = 49500  time[fs]=49.50000
   C -0.460000631E+01  0.112529061E+00  0.129276031E+00
   C  0.475932127E+01 -0.202629539E+00 -0.115866128E+00
   H -0.226452989E+02 -0.932907163E-01 -0.200192805E+01
   H  0.218676660E+02  0.212791998E+01  0.280666393E+01
     4
 # iter = 50000  time[fs]=50.00000
   C -0.468553255E+01  0.114577564E+00  0.132394449E+00
   C  0.484662854E+01 -0.206469689E+00 -0.118297971E+00
   H -0.230112840E+02 -0.952973853E-01 -0.203395013E+01
   H  0.222152761E+02  0.216254767E+01  0.285215790E+01
     4
 # iter = 50500  time[fs]=50.50000
   C -0.477121129E+01  0.116631153E+00  0.135517595E+00
   C  0.493408757E+01 -0.210316361E+00 -0.120735218E+00
   H -0.233774310E+02 -0.973058640E-01 -0.206598900E+01
   H  0.225630571E+02  0.219719441E+01  0.289767676E+01
     4
 # iter = 51000  time[fs]=51.00000
   C -0.485703709E+01  0.118689651E+00  0.138645324E+00
   C  0.502169293E+01 -0.214169334E+00 -0.123177705E+00
   H -0.237437350E+02 -0.993161027E-01 -0.209804415E+01
   H  0.229110038E+02  0.223185963E+01  0.294321979E+01
     4
 # iter = 51500  time[fs]=51.50000
   C -0.494300481E+01  0.120752886E+00  0.141777495E+00
   C  0.510943950E+01 -0.218028400E+00 -0.125625273E+00
   H -0.241101912E+02 -0.101328054E+00 -0.213011509E+01
   H  0.232591112E+02  0.226654280E+01  0.298878629E+01
     4
 # iter = 52000  time[fs]=52.00000
   C -0.502910955E+01  0.122820698E+00  0.144913974E+00
   C  0.519732240E+01 -0.221893356E+00 -0.128077770E+00
   H -0.244767952E+02 -0.103341671E+00 -0.216220139E+01
   H  0.236073746E+02  0.230124343E+01  0.303437559E+01
     4
 # iter = 52500  time[fs]=52.50000
   C -0.511534667E+01  0.124892931E+00  0.148054633E+00
   C  0.528533700E+01 -0.225764014E+00 -0.130535052E+00
   H -0.248435426E+02 -0.105356910E+00 -0.219430258E+01
   H  0.239557896E+02  0.233596103E+01  0.307998705E+01
     4
 # iter = 53000  time[fs]=53.00000
   C -0.520171173E+01  0.126969441E+00  0.151199348E+00
   C  0.537347889E+01 -0.229640192E+00 -0.132996980E+00
   H -0.252104294E+02 -0.107373729E+00 -0.222641826E+01
   H  0.243043518E+02  0.237069512E+01  0.312562006E+01
     4
 # iter = 53500  time[fs]=53.50000
   C -0.528820053E+01  0.129050088E+00  0.154348002E+00
   C  0.546174386E+01 -0.233521716E+00 -0.135463420E+00
   H -0.255774515E+02 -0.109392087E+00 -0.225854802E+01
   H  0.246530572E+02  0.240544528E+01  0.317127404E+01
     4
 # iter = 54000  time[fs]=54.00000
   C -0.537480905E+01  0.131134739E+00  0.157500483E+00
   C  0.555012793E+01 -0.237408422E+00 -0.137934245E+00
   H -0.259446051E+02 -0.111411945E+00 -0.229069147E+01
   H  0.250019016E+02  0.244021106E+01  0.321694842E+01
     4
 # iter = 54500  time[fs]=54.50000
   C -0.546153347E+01  0.133223268E+00  0.160656682E+00
   C  0.563862727E+01 -0.241300151E+00 -0.140409333E+00
   H -0.263118866E+02 -0.113433266E+00 -0.232284825E+01
   H  0.253508814E+02  0.247499206E+01  0.326264265E+01
     4
 # iter = 55000  time[fs]=55.00000
   C -0.554837013E+01  0.135315552E+00  0.163816494E+00
   C  0.572723825E+01 -0.245196753E+00 -0.142888566E+00
   H -0.266792926E+02 -0.115456012E+00 -0.235501800E+01
   H  0.256999929E+02  0.250978787E+01  0.330835623E+01
     4
 # iter = 55500  time[fs]=55.50000
   C -0.563531554E+01  0.137411478E+00  0.166979822E+00
   C  0.581595739E+01 -0.249098083E+00 -0.145371832E+00
   H -0.270468196E+02 -0.117480150E+00 -0.238720037E+01
   H  0.260492326E+02  0.254459813E+01  0.335408865E+01
     4
 # iter = 56000  time[fs]=56.00000
   C -0.572236638E+01  0.139510935E+00  0.170146568E+00
   C  0.590478138E+01 -0.253004004E+00 -0.147859021E+00
   H -0.274144645E+02 -0.119505645E+00 -0.241939504E+01
   H  0.263985970E+02  0.257942246E+01  0.339983944E+01
     4
 # iter = 56500  time[fs]=56.50000
   C -0.580951946E+01  0.141613817E+00  0.173316640E+00
   C  0.599370705E+01 -0.256914384E+00 -0.150350031E+00
   H -0.277822242E+02 -0.121532466E+00 -0.245160170E+01
   H  0.267480831E+02  0.261426052E+01  0.344560811E+01
     4
 # iter = 57000  time[fs]=57.00000
   C -0.589677173E+01  0.143720023E+00  0.176489952E+00
   C  0.608273135E+01 -0.260829095E+00 -0.152844759E+00
   H -0.281500956E+02 -0.123560580E+00 -0.248382003E+01
   H  0.270976876E+02  0.264911196E+01  0.349139425E+01
     4
 # iter = 57500  time[fs]=57.50000
   C -0.598412029E+01  0.145829457E+00  0.179666416E+00
   C  0.617185139E+01 -0.264748017E+00 -0.155343111E+00
   H -0.285180761E+02 -0.125589957E+00 -0.251604975E+01
   H  0.274474076E+02  0.268397646E+01  0.353719740E+01
     4
 # iter = 58000  time[fs]=58.00000
   C -0.607156233E+01  0.147942027E+00  0.182845952E+00
   C  0.626106438E+01 -0.268671033E+00 -0.157844993E+00
   H -0.288861627E+02 -0.127620569E+00 -0.254829058E+01
   H  0.277972402E+02  0.271885370E+01  0.358301717E+01
     4
 # iter = 58500  time[fs]=58.50000
   C -0.615909519E+01  0.150057642E+00  0.186028481E+00
   C  0.635036766E+01 -0.272598031E+00 -0.160350317E+00
   H -0.292543528E+02 -0.129652388E+00 -0.258054224E+01
   H  0.281471826E+02  0.275374337E+01  0.362885315E+01
     4
 # iter = 59000  time[fs]=59.00000
   C -0.624671629E+01  0.152176219E+00  0.189213927E+00
   C  0.643975869E+01 -0.276528904E+00 -0.162858995E+00
   H -0.296226440E+02 -0.131685385E+00 -0.261280447E+01
   H  0.284972321E+02  0.278864520E+01  0.367470496E+01
     4
 # iter = 59500  time[fs]=59.50000
   C -0.633442319E+01  0.154297675E+00  0.192402217E+00
   C  0.652923500E+01 -0.280463550E+00 -0.165370945E+00
   H -0.299910337E+02 -0.133719536E+00 -0.264507703E+01
   H  0.288473862E+02  0.282355889E+01  0.372057222E+01
     4
 # iter = 60000  time[fs]=60.00000
   C -0.642221351E+01  0.156421933E+00  0.195593280E+00
   C  0.661879425E+01 -0.284401869E+00 -0.167886087E+00
   H -0.303595196E+02 -0.135754813E+00 -0.267735966E+01
   H  0.291976424E+02  0.285848416E+01  0.376645459E+01
     4
 # iter = 60500  time[fs]=60.50000
   C -0.651008499E+01  0.158548916E+00  0.198787049E+00
   C  0.670843418E+01 -0.288343765E+00 -0.170404344E+00
   H -0.307280994E+02 -0.137791194E+00 -0.270965214E+01
   H  0.295479982E+02  0.289342077E+01  0.381235171E+01
     4
 # iter = 61000  time[fs]=61.00000
   C -0.659803546E+01  0.160678553E+00  0.201983458E+00
   C  0.679815262E+01 -0.292289148E+00 -0.172925641E+00
   H -0.310967709E+02 -0.139828653E+00 -0.274195423E+01
   H  0.298984513E+02  0.292836845E+01  0.385826326E+01
     4
 # iter = 61500  time[fs]=61.50000
   C -0.668606281E+01  0.162810774E+00  0.205182444E+00
   C  0.688794749E+01 -0.296237930E+00 -0.175449907E+00
   H -0.314655319E+02 -0.141867169E+00 -0.277426573E+01
   H  0.302489996E+02  0.296332695E+01  0.390418890E+01
     4
 # iter = 62000  time[fs]=62.00000
   C -0.677416505E+01  0.164945512E+00  0.208383946E+00
   C  0.697781678E+01 -0.300190024E+00 -0.177977072E+00
   H -0.318343805E+02 -0.143906718E+00 -0.280658641E+01
   H  0.305996408E+02  0.299829604E+01  0.395012832E+01
     4
 # iter = 62500  time[fs]=62.50000
   C -0.686234022E+01  0.167082703E+00  0.211587905E+00
   C  0.706775856E+01 -0.304145350E+00 -0.180507070E+00
   H -0.322033145E+02 -0.145947279E+00 -0.283891607E+01
   H  0.309503729E+02  0.303327549E+01  0.399608124E+01
     4
 # iter = 63000  time[fs]=63.00000
   C -0.695058647E+01  0.169222285E+00  0.214794264E+00
   C  0.715777099E+01 -0.308103829E+00 -0.183039835E+00
   H -0.325723322E+02 -0.147988832E+00 -0.287125452E+01
   H  0.313011938E+02  0.306826508E+01  0.404204734E+01
     4
 # iter = 63500  time[fs]=63.50000
   C -0.703890199E+01  0.171364197E+00  0.218002968E+00
   C  0.724785227E+01 -0.312065384E+00 -0.185575304E+00
   H -0.329414316E+02 -0.150031355E+00 -0.290360156E+01
   H  0.316521016E+02  0.310326458E+01  0.408802635E+01
     4
 # iter = 64000  time[fs]=64.00000
   C -0.712728507E+01  0.173508383E+00  0.221213965E+00
   C  0.733800068E+01 -0.316029942E+00 -0.188113418E+00
   H -0.333106109E+02 -0.152074829E+00 -0.293595701E+01
   H  0.320030944E+02  0.313827379E+01  0.413401801E+01
     4
 # iter = 64500  time[fs]=64.50000
   C -0.721573404E+01  0.175654787E+00  0.224427202E+00
   C  0.742821456E+01 -0.319997434E+00 -0.190654118E+00
   H -0.336798685E+02 -0.154119236E+00 -0.296832069E+01
   H  0.323541703E+02  0.317329251E+01  0.418002203E+01
     4
 # iter = 65000  time[fs]=65.00000
   C -0.730424728E+01  0.177803355E+00  0.227642630E+00
   C  0.751849231E+01 -0.323967789E+00 -0.193197347E+00
   H -0.340492026E+02 -0.156164557E+00 -0.300069243E+01
   H  0.327053277E+02  0.320832055E+01  0.422603817E+01
     4
 # iter = 65500  time[fs]=65.50000
   C -0.739282325E+01  0.179954036E+00  0.230860200E+00
   C  0.760883240E+01 -0.327940942E+00 -0.195743051E+00
   H -0.344186117E+02 -0.158210773E+00 -0.303307205E+01
   H  0.330565647E+02  0.324335770E+01  0.427206617E+01
     4
 # iter = 66000  time[fs]=66.00000
   C -0.748146044E+01  0.182106779E+00  0.234079867E+00
   C  0.769923332E+01 -0.331916830E+00 -0.198291175E+00
   H -0.347880940E+02 -0.160257867E+00 -0.306545940E+01
   H  0.334078797E+02  0.327840379E+01  0.431810580E+01
     4
 # iter = 66500  time[fs]=66.50000
   C -0.757015743E+01  0.184261538E+00  0.237301586E+00
   C  0.778969365E+01 -0.335895391E+00 -0.200841670E+00
   H -0.351576482E+02 -0.162305823E+00 -0.309785432E+01
   H  0.337592711E+02  0.331345864E+01  0.436415682E+01
     4
 # iter = 67000  time[fs]=67.00000
   C -0.765891281E+01  0.186418265E+00  0.240525311E+00
   C  0.788021200E+01 -0.339876565E+00 -0.203394484E+00
   H -0.355272727E+02 -0.164354624E+00 -0.313025666E+01
   H  0.341107374E+02  0.334852207E+01  0.441021900E+01
     4
 # iter = 67500  time[fs]=67.50000
   C -0.774772523E+01  0.188576915E+00  0.243751002E+00
   C  0.797078702E+01 -0.343860295E+00 -0.205949569E+00
   H -0.358969661E+02 -0.166404253E+00 -0.316266626E+01
   H  0.344622770E+02  0.338359392E+01  0.445629213E+01
     4
 # iter = 68000  time[fs]=68.00000
   C -0.783659340E+01  0.190737445E+00  0.246978617E+00
   C  0.806141742E+01 -0.347846524E+00 -0.208506880E+00
   H -0.362667269E+02 -0.168454696E+00 -0.319508299E+01
   H  0.348138884E+02  0.341867402E+01  0.450237599E+01
     4
 # iter = 68500  time[fs]=68.50000
   C -0.792551605E+01  0.192899813E+00  0.250208116E+00
   C  0.815210195E+01 -0.351835200E+00 -0.211066369E+00
   H -0.366365540E+02 -0.170505938E+00 -0.322750669E+01
   H  0.351655703E+02  0.345376222E+01  0.454847037E+01
     4
 # iter = 69000  time[fs]=69.00000
   C -0.801449197E+01  0.195063979E+00  0.253439462E+00
   C  0.824283940E+01 -0.355826269E+00 -0.213627994E+00
   H -0.370064459E+02 -0.172557963E+00 -0.325993725E+01
   H  0.355173212E+02  0.348885835E+01  0.459457507E+01
     4
 # iter = 69500  time[fs]=69.50000
   C -0.810351998E+01  0.197229903E+00  0.256672615E+00
   C  0.833362859E+01 -0.359819681E+00 -0.216191712E+00
   H -0.373764013E+02 -0.174610757E+00 -0.329237452E+01
   H  0.358691398E+02  0.352396228E+01  0.464068989E+01
     4
 # iter = 70000  time[fs]=70.00000
   C -0.819259893E+01  0.199397546E+00  0.259907540E+00
   C  0.842446839E+01 -0.363815387E+00 -0.218757480E+00
   H -0.377464191E+02 -0.176664307E+00 -0.332481838E+01
   H  0.362210248E+02  0.355907385E+01  0.468681465E+01
     4
 # iter = 70500  time[fs]=70.50000
   C -0.828172774E+01  0.201566873E+00  0.263144203E+00
   C  0.851535771E+01 -0.367813340E+00 -0.221325259E+00
   H -0.381164980E+02 -0.178718599E+00 -0.335726870E+01
   H  0.365729750E+02  0.359419292E+01  0.473294916E+01
     4
 # iter = 71000  time[fs]=71.00000
   C -0.837090532E+01  0.203737847E+00  0.266382568E+00
   C  0.860629548E+01 -0.371813493E+00 -0.223895009E+00
   H -0.384866369E+02 -0.180773619E+00 -0.338972536E+01
   H  0.369249890E+02  0.362931935E+01  0.477909324E+01
     4
 # iter = 71500  time[fs]=71.50000
   C -0.846013064E+01  0.205910434E+00  0.269622602E+00
   C  0.869728066E+01 -0.375815801E+00 -0.226466693E+00
   H -0.388568346E+02 -0.182829356E+00 -0.342218825E+01
   H  0.372770657E+02  0.366445301E+01  0.482524671E+01
     4
 # iter = 72000  time[fs]=72.00000
   C -0.854940270E+01  0.208084600E+00  0.272864273E+00
   C  0.878831227E+01 -0.379820222E+00 -0.229040274E+00
   H -0.392270901E+02 -0.184885796E+00 -0.345465725E+01
   H  0.376292040E+02  0.369959378E+01  0.487140941E+01
     4
 # iter = 72500  time[fs]=72.50000
   C -0.863872053E+01  0.210260313E+00  0.276107550E+00
   C  0.887938934E+01 -0.383826713E+00 -0.231615715E+00
   H -0.395974023E+02 -0.186942927E+00 -0.348713225E+01
   H  0.379814027E+02  0.373474151E+01  0.491758116E+01
     4
 # iter = 73000  time[fs]=73.00000
   C -0.872808318E+01  0.212437541E+00  0.279352402E+00
   C  0.897051092E+01 -0.387835234E+00 -0.234192982E+00
   H -0.399677700E+02 -0.189000738E+00 -0.351961313E+01
   H  0.383336607E+02  0.376989610E+01  0.496376181E+01
     4
 # iter = 73500  time[fs]=73.50000
   C -0.881748974E+01  0.214616254E+00  0.282598800E+00
   C  0.906167611E+01 -0.391845744E+00 -0.236772040E+00
   H -0.403381924E+02 -0.191059217E+00 -0.355209981E+01
   H  0.386859769E+02  0.380505741E+01  0.500995120E+01
     4
 # iter = 74000  time[fs]=74.00000
   C -0.890693932E+01  0.216796422E+00  0.285846715E+00
   C  0.915288402E+01 -0.395858206E+00 -0.239352858E+00
   H -0.407086684E+02 -0.193118353E+00 -0.358459217E+01
   H  0.390383503E+02  0.384022534E+01  0.505614918E+01
     4
 # iter = 74500  time[fs]=74.50000
   C -0.899643106E+01  0.218978016E+00  0.289096118E+00
   C  0.924413380E+01 -0.399872582E+00 -0.241935401E+00
   H -0.410791971E+02 -0.195178135E+00 -0.361709011E+01
   H  0.393907798E+02  0.387539977E+01  0.510235560E+01
     4
 # iter = 75000  time[fs]=75.00000
   C -0.908596412E+01  0.221161008E+00  0.292346983E+00
   C  0.933542462E+01 -0.403888835E+00 -0.244519641E+00
   H -0.414497776E+02 -0.197238552E+00 -0.364959354E+01
   H  0.397432646E+02  0.391058058E+01  0.514857031E+01
     4
 # iter = 75500  time[fs]=75.50000
   C -0.917553770E+01  0.223345372E+00  0.295599283E+00
   C  0.942675567E+01 -0.407906930E+00 -0.247105545E+00
   H -0.418204088E+02 -0.199299593E+00 -0.368210236E+01
   H  0.400958035E+02  0.394576767E+01  0.519479317E+01
     4
 # iter = 76000  time[fs]=76.00000
   C -0.926515100E+01  0.225531080E+00  0.298852991E+00
   C  0.951812617E+01 -0.411926833E+00 -0.249693084E+00
   H -0.421910900E+02 -0.201361249E+00 -0.371461648E+01
   H  0.404483958E+02  0.398096093E+01  0.524102404E+01
     4
 # iter = 76500  time[fs]=76.50000
   C -0.935480326E+01  0.227718107E+00  0.302108084E+00
   C  0.960953535E+01 -0.415948510E+00 -0.252282230E+00
   H -0.425618203E+02 -0.203423509E+00 -0.374713580E+01
   H  0.408010404E+02  0.401616026E+01  0.528726280E+01
     4
 # iter = 77000  time[fs]=77.00000
   C -0.944449373E+01  0.229906428E+00  0.305364536E+00
   C  0.970098248E+01 -0.419971929E+00 -0.254872954E+00
   H -0.429325989E+02 -0.205486365E+00 -0.377966025E+01
   H  0.411537365E+02  0.405136556E+01  0.533350930E+01
     4
 # iter = 77500  time[fs]=77.50000
   C -0.953422169E+01  0.232096019E+00  0.308622324E+00
   C  0.979246683E+01 -0.423997059E+00 -0.257465229E+00
   H -0.433034249E+02 -0.207549806E+00 -0.381218974E+01
   H  0.415064832E+02  0.408657673E+01  0.537976342E+01
     4
 # iter = 78000  time[fs]=78.00000
   C -0.962398644E+01  0.234286856E+00  0.311881424E+00
   C  0.988398771E+01 -0.428023868E+00 -0.260059029E+00
   H -0.436742975E+02 -0.209613823E+00 -0.384472418E+01
   H  0.418592796E+02  0.412179368E+01  0.542602504E+01
     4
 # iter = 78500  time[fs]=78.50000
   C -0.971378730E+01  0.236478916E+00  0.315141814E+00
   C  0.997554443E+01 -0.432052326E+00 -0.262654326E+00
   H -0.440452159E+02 -0.211678407E+00 -0.387726350E+01
   H  0.422121250E+02  0.415701631E+01  0.547229404E+01
     4
 # iter = 79000  time[fs]=79.00000
   C -0.980362359E+01  0.238672177E+00  0.318403471E+00
   C  0.100671363E+02 -0.436082405E+00 -0.265251097E+00
   H -0.444161794E+02 -0.213743549E+00 -0.390980760E+01
   H  0.425650185E+02  0.419224453E+01  0.551857029E+01
     4
 # iter = 79500  time[fs]=79.50000
   C -0.989349466E+01  0.240866618E+00  0.321666375E+00
   C  0.101587628E+02 -0.440114076E+00 -0.267849315E+00
   H -0.447871873E+02 -0.215809242E+00 -0.394235642E+01
   H  0.429179594E+02  0.422747825E+01  0.556485368E+01
     4
 # iter = 80000  time[fs]=80.00000
   C -0.998339990E+01  0.243062217E+00  0.324930503E+00
   C  0.102504231E+02 -0.444147311E+00 -0.270448958E+00
   H -0.451582388E+02 -0.217875476E+00 -0.397490988E+01
   H  0.432709469E+02  0.426271739E+01  0.561114409E+01
