     8
 # iter =     0  time[fs]= 0.00000
   O -0.810799850E+00  0.744240360E+00  0.589560000E-04
   N -0.965612041E+00 -0.646945524E+00  0.380331400E-03
   C  0.256583943E+00 -0.112611733E+01  0.410132700E-03
   C  0.124513841E+01 -0.101091222E+00 -0.377259100E-03
   C  0.501823354E+00  0.103815320E+01  0.235505500E-03
   H  0.394929593E+00 -0.220054809E+01  0.274934280E-02
   H  0.231997709E+01 -0.201198193E+00 -0.455760200E-03
   H  0.748159500E+00  0.209074679E+01  0.327875070E-02