     4
 # iter = 25000  time[fs]=25.00000
   C -0.104412318E+01  0.139511574E-01 -0.284766034E-01
   C  0.979338265E+00  0.790105878E-02 -0.273907649E-01
   H -0.528025661E+01 -0.643597834E+00  0.615628327E+00
   H  0.541973237E+01  0.503529589E+00 -0.475416184E+00
     4
 # iter = 25500  time[fs]=25.50000
   C -0.109446001E+01  0.160229333E-01 -0.302305018E-01
   C  0.102290609E+01  0.604096919E-02 -0.257585502E-01
   H -0.561369012E+01 -0.685652085E+00  0.656737483E+00
   H  0.573620841E+01  0.533239970E+00 -0.503273387E+00
     4
 # iter = 26000  time[fs]=26.00000
   C -0.114771782E+01  0.181246310E-01 -0.320065103E-01
   C  0.106940369E+01  0.415941493E-02 -0.241138901E-01
   H -0.594973863E+01 -0.728060818E+00  0.698193538E+00
   H  0.605519382E+01  0.563203347E+00 -0.531361512E+00
     4
 # iter = 26500  time[fs]=26.50000
   C -0.120364253E+01  0.202574795E-01 -0.338061622E-01
   C  0.111857468E+01  0.225406969E-02 -0.224539967E-01
   H -0.628811106E+01 -0.770784590E+00  0.739957786E+00
   H  0.637642531E+01  0.593393445E+00 -0.559656908E+00
     4
 # iter = 27000  time[fs]=27.00000
   C -0.126200009E+01  0.224220444E-01 -0.356303669E-01
   C  0.117018324E+01  0.323466143E-03 -0.207769297E-01
   H -0.662856155E+01 -0.813790195E+00  0.781997656E+00
   H  0.669967822E+01  0.623787880E+00 -0.588139377E+00
     4
 # iter = 27500  time[fs]=27.50000
   C -0.132257668E+01  0.246183649E-01 -0.374795291E-01
   C  0.122401419E+01 -0.163318460E-02 -0.190814276E-01
   H -0.697088066E+01 -0.857049414E+00  0.824285481E+00
   H  0.702475942E+01  0.654367428E+00 -0.616791532E+00
     4
 # iter = 28000  time[fs]=28.00000
   C -0.138517812E+01  0.268460784E-01 -0.393536591E-01
   C  0.127987230E+01 -0.361614901E-02 -0.173667608E-01
   H -0.731488858E+01 -0.900538066E+00  0.866797559E+00
   H  0.735150173E+01  0.685115457E+00 -0.645598303E+00
     4
 # iter = 28500  time[fs]=28.50000
   C -0.144962881E+01  0.291045258E-01 -0.412524686E-01
   C  0.133758114E+01 -0.562530094E-02 -0.156326088E-01
   H -0.766042989E+01 -0.944235271E+00  0.909513436E+00
   H  0.767975955E+01  0.716017481E+00 -0.674546541E+00
     4
 # iter = 29000  time[fs]=29.00000
   C -0.151577037E+01  0.313928385E-01 -0.431754500E-01
   C  0.139698172E+01 -0.766022678E-02 -0.138789590E-01
   H -0.800736937E+01 -0.988122877E+00  0.952415330E+00
   H  0.800940535E+01  0.747060811E+00 -0.703624707E+00
     4
 # iter = 29500  time[fs]=29.50000
   C -0.158346022E+01  0.337100071E-01 -0.451219411E-01
   C  0.145793093E+01 -0.972030859E-02 -0.121060265E-01
   H -0.835558868E+01 -0.103218500E+01  0.995487694E+00
   H  0.834032679E+01  0.778234262E+00 -0.732822618E+00
     4
 # iter = 30000  time[fs]=30.00000
   C -0.165257009E+01  0.360549351E-01 -0.470911758E-01
   C  0.152030011E+01 -0.118047890E-01 -0.103141903E-01
   H -0.870498369E+01 -0.107640768E+01  0.103871685E+01
   H  0.867242447E+01  0.809527931E+00 -0.762131244E+00
     4
 # iter = 30500  time[fs]=30.50000
   C -0.172298459E+01  0.384264800E-01 -0.490823228E-01
   C  0.158397357E+01 -0.139128207E-01 -0.850394386E-02
   H -0.905546233E+01 -0.112077855E+01  0.108209070E+01
   H  0.900561001E+01  0.840933006E+00 -0.791542542E+00
     4
 # iter = 31000  time[fs]=31.00000
   C -0.179459988E+01  0.408234832E-01 -0.510945162E-01
   C  0.164884723E+01 -0.160435041E-01 -0.667585768E-02
   H -0.940694279E+01 -0.116528662E+01  0.112559851E+01
   H  0.933980451E+01  0.872441609E+00 -0.821049312E+00
     4
 # iter = 31500  time[fs]=31.50000
   C -0.186732246E+01  0.432447928E-01 -0.531268773E-01
   C  0.171482739E+01 -0.181959154E-01 -0.483054999E-02
   H -0.975935209E+01 -0.120992210E+01  0.116923068E+01
   H  0.967493723E+01  0.904046673E+00 -0.850645089E+00
     4
 # iter = 32000  time[fs]=32.00000
   C -0.194106803E+01  0.456892791E-01 -0.551785309E-01
   C  0.178182960E+01 -0.203691266E-01 -0.296866534E-02
   H -0.101126248E+02 -0.125467619E+01  0.121297861E+01
   H  0.100109446E+02  0.935741830E+00 -0.880324043E+00
     4
 # iter = 32500  time[fs]=32.50000
   C -0.201576046E+01  0.481558457E-01 -0.572486174E-01
   C  0.184977765E+01 -0.225622210E-01 -0.109085841E-02
   H -0.104667022E+02 -0.129954099E+01  0.125683457E+01
   H  0.103477690E+02  0.967521324E+00 -0.910080899E+00
     4
 # iter = 33000  time[fs]=33.00000
   C -0.209133096E+01  0.506434369E-01 -0.593363008E-01
   C  0.191860264E+01 -0.247743031E-01  0.802217719E-03
   H -0.108215312E+02 -0.134450934E+01  0.130079157E+01
   H  0.106853586E+02  0.999379936E+00 -0.939910869E+00
     4
 # iter = 33500  time[fs]=33.50000
   C -0.216771722E+01  0.531510418E-01 -0.614407739E-01
   C  0.198824219E+01 -0.270045057E-01  0.270992005E-02
   H -0.111770638E+02 -0.138957478E+01  0.134484330E+01
   H  0.110236661E+02  0.103131292E+01 -0.969809593E+00
     4
 # iter = 34000  time[fs]=34.00000
   C -0.224486271E+01  0.556776971E-01 -0.635612623E-01
   C  0.205863973E+01 -0.292519946E-01  0.463162166E-02
   H -0.115332563E+02 -0.143473143E+01  0.138898398E+01
   H  0.113626484E+02  0.106331593E+01 -0.999773092E+00
     4
 # iter = 34500  time[fs]=34.50000
   C -0.232271606E+01  0.582224876E-01 -0.656970260E-01
   C  0.212974387E+01 -0.315159715E-01  0.656671573E-02
   H -0.118900691E+02 -0.147997391E+01  0.143320840E+01
   H  0.117022661E+02  0.109538501E+01 -0.102979772E+01
     4
 # iter = 35000  time[fs]=35.00000
   C -0.240123052E+01  0.607845462E-01 -0.678473601E-01
   C  0.220150783E+01 -0.337956748E-01  0.851461817E-02
   H -0.122474659E+02 -0.152529732E+01  0.147751174E+01
   H  0.120424833E+02  0.112751653E+01 -0.105988013E+01
     4
 # iter = 35500  time[fs]=35.50000
   C -0.248036344E+01  0.633630530E-01 -0.700115954E-01
   C  0.227388896E+01 -0.360903808E-01  0.104747691E-01
   H -0.126054134E+02 -0.157069717E+01  0.152188962E+01
   H  0.123832668E+02  0.115970713E+01 -0.109001726E+01
     4
 # iter = 36000  time[fs]=36.00000
   C -0.256007587E+01  0.659572338E-01 -0.721890970E-01
   C  0.234684829E+01 -0.383994024E-01  0.124466337E-01
   H -0.129638811E+02 -0.161616932E+01  0.156633801E+01
   H  0.127245861E+02  0.119195374E+01 -0.112020625E+01
     4
 # iter = 36500  time[fs]=36.50000
   C -0.264033215E+01  0.685663579E-01 -0.743792642E-01
   C  0.242035017E+01 -0.407220890E-01  0.144297024E-01
   H -0.133228411E+02 -0.166170998E+01  0.161085318E+01
   H  0.130664134E+02  0.122425351E+01 -0.115044449E+01
     4
 # iter = 37000  time[fs]=37.00000
   C -0.272109959E+01  0.711897366E-01 -0.765815287E-01
   C  0.249436191E+01 -0.430578250E-01  0.164234902E-01
   H -0.136822675E+02 -0.170731562E+01  0.165543171E+01
   H  0.134087225E+02  0.125660380E+01 -0.118072955E+01
     4
 # iter = 37500  time[fs]=37.50000
   C -0.280234816E+01  0.738267208E-01 -0.787953534E-01
   C  0.256885351E+01 -0.454060283E-01  0.184275367E-01
   H -0.140421363E+02 -0.175298299E+01  0.170007042E+01
   H  0.137514894E+02  0.128900217E+01 -0.121105918E+01
     4
 # iter = 38000  time[fs]=38.00000
   C -0.288405023E+01  0.764766988E-01 -0.810202308E-01
   C  0.264379734E+01 -0.477661491E-01  0.204414050E-01
   H -0.144024255E+02 -0.179870910E+01  0.174476638E+01
   H  0.140946919E+02  0.132144636E+01 -0.124143128E+01
     4
 # iter = 38500  time[fs]=38.50000
   C -0.296618035E+01  0.791390941E-01 -0.832556818E-01
   C  0.271916796E+01 -0.501376678E-01  0.224646809E-01
   H -0.147631146E+02 -0.184449113E+01  0.178951685E+01
   H  0.144383093E+02  0.135393424E+01 -0.127184390E+01
     4
 # iter = 39000  time[fs]=39.00000
   C -0.304871500E+01  0.818133637E-01 -0.855012536E-01
   C  0.279494190E+01 -0.525200938E-01  0.244969718E-01
   H -0.151241844E+02 -0.189032649E+01  0.183431930E+01
   H  0.147823222E+02  0.138646384E+01 -0.130229523E+01
     4
 # iter = 39500  time[fs]=39.50000
   C -0.313163247E+01  0.844989954E-01 -0.877565188E-01
   C  0.287109743E+01 -0.549129638E-01  0.265379057E-01
   H -0.154856173E+02 -0.193621276E+01  0.187917136E+01
   H  0.151267128E+02  0.141903334E+01 -0.133278356E+01
     4
 # iter = 40000  time[fs]=40.00000
   C -0.321491264E+01  0.871955064E-01 -0.900210734E-01
   C  0.294761447E+01 -0.573158400E-01  0.285871302E-01
   H -0.158473968E+02 -0.198214768E+01  0.192407082E+01
   H  0.154714641E+02  0.145164100E+01 -0.136330731E+01
     4
 # iter = 40500  time[fs]=40.50000
   C -0.329853684E+01  0.899024409E-01 -0.922945359E-01
   C  0.302447438E+01 -0.597283087E-01  0.306443117E-01
   H -0.162095073E+02 -0.202812912E+01  0.196901562E+01
   H  0.158165606E+02  0.148428522E+01 -0.139386499E+01
     4
 # iter = 41000  time[fs]=41.00000
   C -0.338248774E+01  0.926193692E-01 -0.945765453E-01
   C  0.310165984E+01 -0.621499789E-01  0.327091338E-01
   H -0.165719345E+02 -0.207415511E+01  0.201400383E+01
   H  0.161619874E+02  0.151696448E+01 -0.142445520E+01
     4
 # iter = 41500  time[fs]=41.50000
   C -0.346674922E+01  0.953458850E-01 -0.968667605E-01
   C  0.317915477E+01 -0.645804811E-01  0.347812968E-01
   H -0.169346648E+02 -0.212022380E+01  0.205903363E+01
   H  0.165077309E+02  0.154967737E+01 -0.145507663E+01
     4
 # iter = 42000  time[fs]=42.00000
   C -0.355130628E+01  0.980816047E-01 -0.991648585E-01
   C  0.325694417E+01 -0.670194654E-01  0.368605167E-01
   H -0.172976856E+02 -0.216633343E+01  0.210410333E+01
   H  0.168537780E+02  0.158242254E+01 -0.148572804E+01
     4
 # iter = 42500  time[fs]=42.50000
   C -0.363614492E+01  0.100826166E+00 -0.101470534E+00
   C  0.333501407E+01 -0.694666008E-01  0.389465241E-01
   H -0.176609849E+02 -0.221248238E+01  0.214921133E+01
   H  0.172001165E+02  0.161519875E+01 -0.151640827E+01
     4
 # iter = 43000  time[fs]=43.00000
   C -0.372125205E+01  0.103579225E+00 -0.103783497E+00
   C  0.341335141E+01 -0.719215740E-01  0.410390634E-01
   H -0.180245515E+02 -0.225866911E+01  0.219435612E+01
   H  0.175467351E+02  0.164800481E+01 -0.154711623E+01
     4
 # iter = 43500  time[fs]=43.50000
   C -0.380661545E+01  0.106340457E+00 -0.106103473E+00
   C  0.349194399E+01 -0.743840878E-01  0.431378921E-01
   H -0.183883750E+02 -0.230489215E+01  0.223953629E+01
   H  0.178936229E+02  0.168083960E+01 -0.157785088E+01
     4
 # iter = 44000  time[fs]=44.00000
   C -0.389222368E+01  0.109109554E+00 -0.108430203E+00
   C  0.357078039E+01 -0.768538607E-01  0.452427799E-01
   H -0.187524454E+02 -0.235115013E+01  0.228475050E+01
   H  0.182407696E+02  0.171370206E+01 -0.160861124E+01
     4
 # iter = 44500  time[fs]=44.50000
   C -0.397806601E+01  0.111886225E+00 -0.110763439E+00
   C  0.364984990E+01 -0.793306256E-01  0.473535081E-01
   H -0.191167532E+02 -0.239744178E+01  0.232999749E+01
   H  0.185881657E+02  0.174659119E+01 -0.163939638E+01
     4
 # iter = 45000  time[fs]=45.00000
   C -0.406413238E+01  0.114670193E+00 -0.113102947E+00
   C  0.372914249E+01 -0.818141291E-01  0.494698689E-01
   H -0.194812898E+02 -0.244376585E+01  0.237527606E+01
   H  0.189358021E+02  0.177950605E+01 -0.167020544E+01
     4
 # iter = 45500  time[fs]=45.50000
   C -0.415041332E+01  0.117461196E+00 -0.115448505E+00
   C  0.380864870E+01 -0.843041304E-01  0.515916644E-01
   H -0.198460466E+02 -0.249012119E+01  0.242058509E+01
   H  0.192836701E+02  0.181244575E+01 -0.170103758E+01
     4
 # iter = 46000  time[fs]=46.00000
   C -0.423689995E+01  0.120258984E+00 -0.117799900E+00
   C  0.388835968E+01 -0.868004006E-01  0.537187066E-01
   H -0.202110159E+02 -0.253650671E+01  0.246592351E+01
   H  0.196317615E+02  0.184540942E+01 -0.173189200E+01
     4
 # iter = 46500  time[fs]=46.50000
   C -0.432358389E+01  0.123063320E+00 -0.120156933E+00
   C  0.396826707E+01 -0.893027223E-01  0.558508164E-01
   H -0.205761900E+02 -0.258292137E+01  0.251129030E+01
   H  0.199800686E+02  0.187839626E+01 -0.176276797E+01
     4
 # iter = 47000  time[fs]=47.00000
   C -0.441045725E+01  0.125873979E+00 -0.122519410E+00
   C  0.404836300E+01 -0.918108884E-01  0.579878233E-01
   H -0.209415619E+02 -0.262936417E+01  0.255668449E+01
   H  0.203285841E+02  0.191140551E+01 -0.179366477E+01
     4
 # iter = 47500  time[fs]=47.50000
   C -0.449751258E+01  0.128690747E+00 -0.124887150E+00
   C  0.412864004E+01 -0.943247018E-01  0.601295648E-01
   H -0.213071248E+02 -0.267583418E+01  0.260210518E+01
   H  0.206773010E+02  0.194443644E+01 -0.182458173E+01
     4
 # iter = 48000  time[fs]=48.00000
   C -0.458474286E+01  0.131513419E+00 -0.127259979E+00
   C  0.420909118E+01 -0.968439750E-01  0.622758858E-01
   H -0.216728723E+02 -0.272233050E+01  0.264755150E+01
   H  0.210262126E+02  0.197748835E+01 -0.185551820E+01
     4
 # iter = 48500  time[fs]=48.50000
   C -0.467214145E+01  0.134341801E+00 -0.129637732E+00
   C  0.428970980E+01 -0.993685288E-01  0.644266384E-01
   H -0.220387983E+02 -0.276885229E+01  0.269302261E+01
   H  0.213753126E+02  0.201056057E+01 -0.188647356E+01
     4
 # iter = 49000  time[fs]=49.00000
   C -0.475970205E+01  0.137175707E+00 -0.132020249E+00
   C  0.437048964E+01 -0.101898193E+00  0.665816817E-01
   H -0.224048970E+02 -0.281539875E+01  0.273851773E+01
   H  0.217245949E+02  0.204365248E+01 -0.191744724E+01
     4
 # iter = 49500  time[fs]=49.50000
   C -0.484741871E+01  0.140014960E+00 -0.134407381E+00
   C  0.445142474E+01 -0.104432804E+00  0.687408806E-01
   H -0.227711629E+02 -0.286196908E+01  0.278403610E+01
   H  0.220740539E+02  0.207676347E+01 -0.194843867E+01
     4
 # iter = 50000  time[fs]=50.00000
   C -0.493528580E+01  0.142859392E+00 -0.136798984E+00
   C  0.453250951E+01 -0.106972207E+00  0.709041065E-01
   H -0.231375908E+02 -0.290856257E+01  0.282957702E+01
   H  0.224236841E+02  0.210989298E+01 -0.197944732E+01
     4
 # iter = 50500  time[fs]=50.50000
   C -0.502329797E+01  0.145708842E+00 -0.139194918E+00
   C  0.461373859E+01 -0.109516253E+00  0.730712361E-01
   H -0.235041755E+02 -0.295517852E+01  0.287513979E+01
   H  0.227734802E+02  0.214304044E+01 -0.201047268E+01
     4
 # iter = 51000  time[fs]=51.00000
   C -0.511145013E+01  0.148563155E+00 -0.141595054E+00
   C  0.469510693E+01 -0.112064800E+00  0.752421517E-01
   H -0.238709123E+02 -0.300181624E+01  0.292072376E+01
   H  0.231234373E+02  0.217620535E+01 -0.204151426E+01
     4
 # iter = 51500  time[fs]=51.50000
   C -0.519973747E+01  0.151422184E+00 -0.143999265E+00
   C  0.477660973E+01 -0.114617713E+00  0.774167404E-01
   H -0.242377966E+02 -0.304847510E+01  0.296632831E+01
   H  0.234735505E+02  0.220938718E+01 -0.207257159E+01
     4
 # iter = 52000  time[fs]=52.00000
   C -0.528815539E+01  0.154285788E+00 -0.146407431E+00
   C  0.485824240E+01 -0.117174861E+00  0.795948943E-01
   H -0.246048241E+02 -0.309515449E+01  0.301195285E+01
   H  0.238238154E+02  0.224258546E+01 -0.210364424E+01
     4
 # iter = 52500  time[fs]=52.50000
   C -0.537669953E+01  0.157153832E+00 -0.148819435E+00
   C  0.494000061E+01 -0.119736120E+00  0.817765099E-01
   H -0.249719905E+02 -0.314185382E+01  0.305759679E+01
   H  0.241742276E+02  0.227579974E+01 -0.213473177E+01
     4
 # iter = 53000  time[fs]=53.00000
   C -0.546536575E+01  0.160026186E+00 -0.151235168E+00
   C  0.502188020E+01 -0.122301371E+00  0.839614880E-01
   H -0.253392919E+02 -0.318857252E+01  0.310325960E+01
   H  0.245247828E+02  0.230902956E+01 -0.216583376E+01
     4
 # iter = 53500  time[fs]=53.50000
   C -0.555415006E+01  0.162902728E+00 -0.153654524E+00
   C  0.510387724E+01 -0.124870499E+00  0.861497334E-01
   H -0.257067245E+02 -0.323531007E+01  0.314894074E+01
   H  0.248754770E+02  0.234227450E+01 -0.219694984E+01
     4
 # iter = 54000  time[fs]=54.00000
   C -0.564304872E+01  0.165783339E+00 -0.156077400E+00
   C  0.518598797E+01 -0.127443395E+00  0.883411550E-01
   H -0.260742844E+02 -0.328206594E+01  0.319463972E+01
   H  0.252263065E+02  0.237553417E+01 -0.222807962E+01
     4
 # iter = 54500  time[fs]=54.50000
   C -0.573205810E+01  0.168667903E+00 -0.158503699E+00
   C  0.526820879E+01 -0.130019953E+00  0.905356652E-01
   H -0.264419683E+02 -0.332883964E+01  0.324035605E+01
   H  0.255772676E+02  0.240880816E+01 -0.225922273E+01
     4
 # iter = 55000  time[fs]=55.00000
   C -0.582117477E+01  0.171556313E+00 -0.160933327E+00
   C  0.535053628E+01 -0.132600074E+00  0.927331796E-01
   H -0.268097727E+02 -0.337563069E+01  0.328608926E+01
   H  0.259283566E+02  0.244209611E+01 -0.229037883E+01
     4
 # iter = 55500  time[fs]=55.50000
   C -0.591039545E+01  0.174448463E+00 -0.163366195E+00
   C  0.543296716E+01 -0.135183659E+00  0.949336176E-01
   H -0.271776944E+02 -0.342243863E+01  0.333183892E+01
   H  0.262795703E+02  0.247539764E+01 -0.232154758E+01
     4
 # iter = 56000  time[fs]=56.00000
   C -0.599971700E+01  0.177344253E+00 -0.165802215E+00
   C  0.551549832E+01 -0.137770617E+00  0.971369013E-01
   H -0.275457304E+02 -0.346926303E+01  0.337760460E+01
   H  0.266309053E+02  0.250871242E+01 -0.235272867E+01
     4
 # iter = 56500  time[fs]=56.50000
   C -0.608913640E+01  0.180243585E+00 -0.168241305E+00
   C  0.559812675E+01 -0.140360856E+00  0.993429561E-01
   H -0.279138774E+02 -0.351610347E+01  0.342338588E+01
   H  0.269823585E+02  0.254204011E+01 -0.238392178E+01
     4
 # iter = 57000  time[fs]=57.00000
   C -0.617865080E+01  0.183146366E+00 -0.170683385E+00
   C  0.568084960E+01 -0.142954292E+00  0.101551710E+00
   H -0.282821329E+02 -0.356295953E+01  0.346918237E+01
   H  0.273339269E+02  0.257538039E+01 -0.241512661E+01
     4
 # iter = 57500  time[fs]=57.50000
   C -0.626825742E+01  0.186052507E+00 -0.173128377E+00
   C  0.576366412E+01 -0.145550840E+00  0.103763094E+00
   H -0.286504938E+02 -0.360983083E+01  0.351499368E+01
   H  0.276856075E+02  0.260873295E+01 -0.244634287E+01
     4
 # iter = 58000  time[fs]=58.00000
   C -0.635795364E+01  0.188961922E+00 -0.175576208E+00
   C  0.584656768E+01 -0.148150423E+00  0.105977040E+00
   H -0.290189576E+02 -0.365671699E+01  0.356081946E+01
   H  0.280373977E+02  0.264209749E+01 -0.247757030E+01
     4
 # iter = 58500  time[fs]=58.50000
   C -0.644773692E+01  0.191874527E+00 -0.178026805E+00
   C  0.592955776E+01 -0.150752962E+00  0.108193486E+00
   H -0.293875218E+02 -0.370361765E+01  0.360665935E+01
   H  0.283892946E+02  0.267547373E+01 -0.250880861E+01
     4
 # iter = 59000  time[fs]=59.00000
   C -0.653760484E+01  0.194790242E+00 -0.180480101E+00
   C  0.601263195E+01 -0.153358384E+00  0.110412369E+00
   H -0.297561838E+02 -0.375053246E+01  0.365251300E+01
   H  0.287412958E+02  0.270886138E+01 -0.254005756E+01
     4
 # iter = 59500  time[fs]=59.50000
   C -0.662755507E+01  0.197708991E+00 -0.182936029E+00
   C  0.609578794E+01 -0.155966618E+00  0.112633629E+00
   H -0.301249412E+02 -0.379746108E+01  0.369838009E+01
   H  0.290933986E+02  0.274226018E+01 -0.257131689E+01
     4
 # iter = 60000  time[fs]=60.00000
   C -0.671758537E+01  0.200630699E+00 -0.185394524E+00
   C  0.617902348E+01 -0.158577594E+00  0.114857209E+00
   H -0.304937919E+02 -0.384440318E+01  0.374426030E+01
   H  0.294456007E+02  0.277566987E+01 -0.260258637E+01
     4
 # iter = 60500  time[fs]=60.50000
   C -0.680769359E+01  0.203555294E+00 -0.187855526E+00
   C  0.626233645E+01 -0.161191247E+00  0.117083053E+00
   H -0.308627334E+02 -0.389135846E+01  0.379015333E+01
   H  0.297978997E+02  0.280909021E+01 -0.263386576E+01
     4
 # iter = 61000  time[fs]=61.00000
   C -0.689787768E+01  0.206482708E+00 -0.190318975E+00
   C  0.634572480E+01 -0.163807513E+00  0.119311108E+00
   H -0.312317638E+02 -0.393832661E+01  0.383605889E+01
   H  0.301502934E+02  0.284252095E+01 -0.266515484E+01
     4
 # iter = 61500  time[fs]=61.50000
   C -0.698813563E+01  0.209412873E+00 -0.192784813E+00
   C  0.642918653E+01 -0.166426329E+00  0.121541322E+00
   H -0.316008810E+02 -0.398530733E+01  0.388197667E+01
   H  0.305027797E+02  0.287596185E+01 -0.269645339E+01
     4
 # iter = 62000  time[fs]=62.00000
   C -0.707846555E+01  0.212345725E+00 -0.195252984E+00
   C  0.651271975E+01 -0.169047637E+00  0.123773644E+00
   H -0.319700829E+02 -0.403230035E+01  0.392790642E+01
   H  0.308553563E+02  0.290941270E+01 -0.272776120E+01
     4
 # iter = 62500  time[fs]=62.50000
   C -0.716886559E+01  0.215281202E+00 -0.197723435E+00
   C  0.659632264E+01 -0.171671378E+00  0.126008027E+00
   H -0.323393677E+02 -0.407930538E+01  0.397384787E+01
   H  0.312080214E+02  0.294287327E+01 -0.275907807E+01
     4
 # iter = 63000  time[fs]=63.00000
   C -0.725933399E+01  0.218219243E+00 -0.200196115E+00
   C  0.667999342E+01 -0.174297496E+00  0.128244424E+00
   H -0.327087334E+02 -0.412632218E+01  0.401980075E+01
   H  0.315607729E+02  0.297634335E+01 -0.279040381E+01
     4
 # iter = 63500  time[fs]=63.50000
   C -0.734986903E+01  0.221159791E+00 -0.202670973E+00
   C  0.676373041E+01 -0.176925939E+00  0.130482789E+00
   H -0.330781783E+02 -0.417335047E+01  0.406576482E+01
   H  0.319136089E+02  0.300982275E+01 -0.282173822E+01
     4
 # iter = 64000  time[fs]=64.00000
   C -0.744046907E+01  0.224102789E+00 -0.205147960E+00
   C  0.684753196E+01 -0.179556654E+00  0.132723079E+00
   H -0.334477007E+02 -0.422039001E+01  0.411173984E+01
   H  0.322665276E+02  0.304331126E+01 -0.285308112E+01
     4
 # iter = 64500  time[fs]=64.50000
   C -0.753113253E+01  0.227048183E+00 -0.207627030E+00
   C  0.693139649E+01 -0.182189591E+00  0.134965252E+00
   H -0.338172988E+02 -0.426744057E+01  0.415772557E+01
   H  0.326195273E+02  0.307680869E+01 -0.288443234E+01
     4
 # iter = 65000  time[fs]=65.00000
   C -0.762185788E+01  0.229995921E+00 -0.210108137E+00
   C  0.701532249E+01 -0.184824700E+00  0.137209266E+00
   H -0.341869711E+02 -0.431450191E+01  0.420372179E+01
   H  0.329726061E+02  0.311031486E+01 -0.291579170E+01
     4
 # iter = 65500  time[fs]=65.50000
   C -0.771264364E+01  0.232945951E+00 -0.212591237E+00
   C  0.709930849E+01 -0.187461936E+00  0.139455083E+00
   H -0.345567160E+02 -0.436157380E+01  0.424972827E+01
   H  0.333257625E+02  0.314382959E+01 -0.294715903E+01
     4
 # iter = 66000  time[fs]=66.00000
   C -0.780348839E+01  0.235898224E+00 -0.215076288E+00
   C  0.718335307E+01 -0.190101251E+00  0.141702662E+00
   H -0.349265318E+02 -0.440865604E+01  0.429574482E+01
   H  0.336789948E+02  0.317735270E+01 -0.297853418E+01
     4
 # iter = 66500  time[fs]=66.50000
   C -0.789439075E+01  0.238852692E+00 -0.217563248E+00
   C  0.726745486E+01 -0.192742603E+00  0.143951969E+00
   H -0.352964172E+02 -0.445574840E+01  0.434177122E+01
   H  0.340323015E+02  0.321088402E+01 -0.300991698E+01
     4
 # iter = 67000  time[fs]=67.00000
   C -0.798534939E+01  0.241809309E+00 -0.220052077E+00
   C  0.735161254E+01 -0.195385947E+00  0.146202965E+00
   H -0.356663708E+02 -0.450285068E+01  0.438780726E+01
   H  0.343856810E+02  0.324442340E+01 -0.304130728E+01
     4
 # iter = 67500  time[fs]=67.50000
   C -0.807636302E+01  0.244768030E+00 -0.222542738E+00
   C  0.743582483E+01 -0.198031243E+00  0.148455617E+00
   H -0.360363910E+02 -0.454996269E+01  0.443385277E+01
   H  0.347391319E+02  0.327797067E+01 -0.307270493E+01
     4
 # iter = 68000  time[fs]=68.00000
   C -0.816743042E+01  0.247728812E+00 -0.225035191E+00
   C  0.752009049E+01 -0.200678450E+00  0.150709890E+00
   H -0.364064767E+02 -0.459708422E+01  0.447990755E+01
   H  0.350926527E+02  0.331152567E+01 -0.310410980E+01
     4
 # iter = 68500  time[fs]=68.50000
   C -0.825855037E+01  0.250691612E+00 -0.227529401E+00
   C  0.760440834E+01 -0.203327529E+00  0.152965752E+00
   H -0.367766264E+02 -0.464421510E+01  0.452597142E+01
   H  0.354462420E+02  0.334508826E+01 -0.313552174E+01
     4
 # iter = 69000  time[fs]=69.00000
   C -0.834972171E+01  0.253656390E+00 -0.230025332E+00
   C  0.768877722E+01 -0.205978442E+00  0.155223170E+00
   H -0.371468389E+02 -0.469135515E+01  0.457204420E+01
   H  0.357998986E+02  0.337865830E+01 -0.316694062E+01
     4
 # iter = 69500  time[fs]=69.50000
   C -0.844094333E+01  0.256623106E+00 -0.232522951E+00
   C  0.777319600E+01 -0.208631153E+00  0.157482114E+00
   H -0.375171130E+02 -0.473850418E+01  0.461812572E+01
   H  0.361536211E+02  0.341223563E+01 -0.319836630E+01
     4
 # iter = 70000  time[fs]=70.00000
   C -0.853221412E+01  0.259591721E+00 -0.235022223E+00
   C  0.785766360E+01 -0.211285625E+00  0.159742554E+00
   H -0.378874474E+02 -0.478566202E+01  0.466421581E+01
   H  0.365074082E+02  0.344582013E+01 -0.322979866E+01
     4
 # iter = 70500  time[fs]=70.50000
   C -0.862353304E+01  0.262562198E+00 -0.237523116E+00
   C  0.794217898E+01 -0.213941825E+00  0.162004460E+00
   H -0.382578411E+02 -0.483282851E+01  0.471031432E+01
   H  0.368612588E+02  0.347941166E+01 -0.326123757E+01
     4
 # iter = 71000  time[fs]=71.00000
   C -0.871489906E+01  0.265534500E+00 -0.240025599E+00
   C  0.802674113E+01 -0.216599718E+00  0.164267804E+00
   H -0.386282929E+02 -0.488000349E+01  0.475642108E+01
   H  0.372151715E+02  0.351301008E+01 -0.329268291E+01
     4
 # iter = 71500  time[fs]=71.50000
   C -0.880631120E+01  0.268508593E+00 -0.242529641E+00
   C  0.811134904E+01 -0.219259271E+00  0.166532558E+00
   H -0.389988016E+02 -0.492718679E+01  0.480253594E+01
   H  0.375691453E+02  0.354661529E+01 -0.332413457E+01
     4
 # iter = 72000  time[fs]=72.00000
   C -0.889776849E+01  0.271484442E+00 -0.245035213E+00
   C  0.819600179E+01 -0.221920454E+00  0.168798696E+00
   H -0.393693663E+02 -0.497437828E+01  0.484865875E+01
   H  0.379231790E+02  0.358022714E+01 -0.335559242E+01
     4
 # iter = 72500  time[fs]=72.50000
   C -0.898927001E+01  0.274462014E+00 -0.247542285E+00
   C  0.828069843E+01 -0.224583235E+00  0.171066192E+00
   H -0.397399858E+02 -0.502157779E+01  0.489478937E+01
   H  0.382772715E+02  0.361384552E+01 -0.338705637E+01
     4
 # iter = 73000  time[fs]=73.00000
   C -0.908081485E+01  0.277441276E+00 -0.250050831E+00
   C  0.836543806E+01 -0.227247584E+00  0.173335019E+00
   H -0.401106593E+02 -0.506878518E+01  0.494092766E+01
   H  0.386314217E+02  0.364747032E+01 -0.341852629E+01
     4
 # iter = 73500  time[fs]=73.50000
   C -0.917240213E+01  0.280422197E+00 -0.252560821E+00
   C  0.845021983E+01 -0.229913471E+00  0.175605155E+00
   H -0.404813856E+02 -0.511600031E+01  0.498707347E+01
   H  0.389856287E+02  0.368110142E+01 -0.345000210E+01
     4
 # iter = 74000  time[fs]=74.00000
   C -0.926403102E+01  0.283404745E+00 -0.255072231E+00
   C  0.853504289E+01 -0.232580869E+00  0.177876574E+00
   H -0.408521638E+02 -0.516322305E+01  0.503322668E+01
   H  0.393398913E+02  0.371473872E+01 -0.348148367E+01
     4
 # iter = 74500  time[fs]=74.50000
   C -0.935570068E+01  0.286388893E+00 -0.257585034E+00
   C  0.861990641E+01 -0.235249750E+00  0.180149253E+00
   H -0.412229931E+02 -0.521045325E+01  0.507938716E+01
   H  0.396942087E+02  0.374838209E+01 -0.351297092E+01
     4
 # iter = 75000  time[fs]=75.00000
   C -0.944741031E+01  0.289374609E+00 -0.260099204E+00
   C  0.870480960E+01 -0.237920087E+00  0.182423170E+00
   H -0.415938725E+02 -0.525769080E+01  0.512555478E+01
   H  0.400485798E+02  0.378203145E+01 -0.354446374E+01
     4
 # iter = 75500  time[fs]=75.50000
   C -0.953915913E+01  0.292361867E+00 -0.262614719E+00
   C  0.878975169E+01 -0.240591854E+00  0.184698302E+00
   H -0.419648011E+02 -0.530493556E+01  0.517172941E+01
   H  0.404030036E+02  0.381568668E+01 -0.357596204E+01
     4
 # iter = 76000  time[fs]=76.00000
   C -0.963094640E+01  0.295350638E+00 -0.265131552E+00
   C  0.887473192E+01 -0.243265024E+00  0.186974629E+00
   H -0.423357781E+02 -0.535218742E+01  0.521791093E+01
   H  0.407574794E+02  0.384934770E+01 -0.360746573E+01
     4
 # iter = 76500  time[fs]=76.50000
   C -0.972277137E+01  0.298340896E+00 -0.267649683E+00
   C  0.895974957E+01 -0.245939575E+00  0.189252128E+00
   H -0.427068026E+02 -0.539944624E+01  0.526409924E+01
   H  0.411120062E+02  0.388301439E+01 -0.363897471E+01
     4
 # iter = 77000  time[fs]=77.00000
   C -0.981463332E+01  0.301332615E+00 -0.270169087E+00
   C  0.904480392E+01 -0.248615480E+00  0.191530780E+00
   H -0.430778738E+02 -0.544671191E+01  0.531029421E+01
   H  0.414665831E+02  0.391668667E+01 -0.367048891E+01
     4
 # iter = 77500  time[fs]=77.50000
   C -0.990653158E+01  0.304325770E+00 -0.272689743E+00
   C  0.912989429E+01 -0.251292718E+00  0.193810565E+00
   H -0.434489910E+02 -0.549398433E+01  0.535649573E+01
   H  0.418212093E+02  0.395036444E+01 -0.370200822E+01
     4
 # iter = 78000  time[fs]=78.00000
   C -0.999846546E+01  0.307320335E+00 -0.275211629E+00
   C  0.921502000E+01 -0.253971264E+00  0.196091463E+00
   H -0.438201533E+02 -0.554126337E+01  0.540270370E+01
   H  0.421758840E+02  0.398404762E+01 -0.373353258E+01
     4
 # iter = 78500  time[fs]=78.50000
   C -0.100904343E+02  0.310316286E+00 -0.277734725E+00
   C  0.930018041E+01 -0.256651096E+00  0.198373455E+00
   H -0.441913600E+02 -0.558854892E+01  0.544891800E+01
   H  0.425306063E+02  0.401773612E+01 -0.376506190E+01
     4
 # iter = 79000  time[fs]=79.00000
   C -0.101824375E+02  0.313313600E+00 -0.280259010E+00
   C  0.938537487E+01 -0.259332193E+00  0.200656523E+00
   H -0.445626103E+02 -0.563584089E+01  0.549513854E+01
   H  0.428853756E+02  0.405142985E+01 -0.379659609E+01
     4
 # iter = 79500  time[fs]=79.50000
   C -0.102744743E+02  0.316312255E+00 -0.282784464E+00
   C  0.947060277E+01 -0.262014534E+00  0.202940650E+00
   H -0.449339037E+02 -0.568313917E+01  0.554136522E+01
   H  0.432401909E+02  0.408512872E+01 -0.382813508E+01
     4
 # iter = 80000  time[fs]=80.00000
   C -0.103665443E+02  0.319312227E+00 -0.285311068E+00
   C  0.955586352E+01 -0.264698097E+00  0.205225816E+00
   H -0.453052392E+02 -0.573044366E+01  0.558759793E+01
   H  0.435950516E+02  0.411883266E+01 -0.385967880E+01
