     4
 # iter = 25000  time[fs]=25.00000
   C -0.978826448E+00 -0.586186854E-01 -0.563573283E-02
   C  0.100453050E+01  0.201101750E-01  0.433223435E-02
   H -0.524579114E+01 -0.532318968E+00  0.465703571E+00
   H  0.532316425E+01  0.745318342E+00 -0.412941225E+00
     4
 # iter = 25500  time[fs]=25.50000
   C -0.102385890E+01 -0.588282094E-01 -0.672196794E-02
   C  0.104817097E+01  0.175386109E-01  0.571955878E-02
   H -0.557820036E+01 -0.564105294E+00  0.495954558E+00
   H  0.563898021E+01  0.789136469E+00 -0.440060624E+00
     4
 # iter = 26000  time[fs]=26.00000
   C -0.107127736E+01 -0.591215759E-01 -0.783364838E-02
   C  0.109420323E+01  0.150415642E-01  0.712944224E-02
   H -0.591326849E+01 -0.596171261E+00  0.526463585E+00
   H  0.595738579E+01  0.833346135E+00 -0.467403426E+00
     4
 # iter = 26500  time[fs]=26.50000
   C -0.112088416E+01 -0.594861643E-01 -0.897025590E-02
   C  0.114242786E+01  0.126072557E-01  0.856186078E-02
   H -0.625069819E+01 -0.628485020E+00  0.557201709E+00
   H  0.627810456E+01  0.877905398E+00 -0.494946623E+00
     4
 # iter = 27000  time[fs]=27.00000
   C -0.117249693E+01 -0.599112406E-01 -0.101311237E-01
   C  0.119266119E+01  0.102256895E-01  0.100165389E-01
   H -0.659023841E+01 -0.661019807E+00  0.588144576E+00
   H  0.660090115E+01  0.922778637E+00 -0.522670553E+00
     4
 # iter = 27500  time[fs]=27.50000
   C -0.122594859E+01 -0.603877102E-01 -0.113154706E-01
   C  0.124473514E+01  0.788842084E-02  0.114930088E-01
   H -0.693167535E+01 -0.693752920E+00  0.619271496E+00
   H  0.692557359E+01  0.967935351E+00 -0.550558288E+00
     4
 # iter = 28000  time[fs]=28.00000
   C -0.128108678E+01 -0.609078845E-01 -0.125224352E-01
   C  0.129849661E+01  0.558833565E-02  0.129906625E-01
   H -0.727482555E+01 -0.726664950E+00  0.650564751E+00
   H  0.725194745E+01  0.101334924E+01 -0.578595153E+00
     4
 # iter = 28500  time[fs]=28.50000
   C -0.133777310E+01 -0.614652708E-01 -0.137511053E-01
   C  0.135380663E+01  0.331945101E-02  0.145087953E-01
   H -0.761953051E+01 -0.759739176E+00  0.682009053E+00
   H  0.757987105E+01  0.105899746E+01 -0.606768347E+00
     4
 # iter = 29000  time[fs]=29.00000
   C -0.139588206E+01 -0.620543869E-01 -0.150005430E-01
   C  0.141053928E+01  0.107673874E-02  0.160466399E-01
   H -0.796565237E+01 -0.792961099E+00  0.713591120E+00
   H  0.790921179E+01  0.110486006E+01 -0.635066637E+00
     4
 # iter = 29500  time[fs]=29.50000
   C -0.145530010E+01 -0.626706010E-01 -0.162698049E-01
   C  0.146858064E+01 -0.114402696E-02  0.176033949E-01
   H -0.831307056E+01 -0.826318060E+00  0.745299340E+00
   H  0.823985306E+01  0.115091952E+01 -0.663480113E+00
     4
 # iter = 30000  time[fs]=30.00000
   C -0.151592444E+01 -0.633099957E-01 -0.175579568E-01
   C  0.152782770E+01 -0.334639948E-02  0.191782448E-01
   H -0.866167903E+01 -0.859798953E+00  0.777123505E+00
   H  0.857169186E+01  0.119716036E+01 -0.691999994E+00
     4
 # iter = 30500  time[fs]=30.50000
   C -0.157766213E+01 -0.639692525E-01 -0.188640856E-01
   C  0.158818732E+01 -0.553336959E-02  0.207703765E-01
   H -0.901138406E+01 -0.893393975E+00  0.809054593E+00
   H  0.890463675E+01  0.124356885E+01 -0.720618457E+00
     4
 # iter = 31000  time[fs]=31.00000
   C -0.164042907E+01 -0.646455552E-01 -0.201873068E-01
   C  0.164957525E+01 -0.770745762E-02  0.223789903E-01
   H -0.936210240E+01 -0.927094437E+00  0.841084592E+00
   H  0.923860623E+01  0.129013274E+01 -0.749328508E+00
     4
 # iter = 31500  time[fs]=31.50000
   C -0.170414908E+01 -0.653365091E-01 -0.215267702E-01
   C  0.171191522E+01 -0.987079043E-02  0.240033084E-01
   H -0.971375983E+01 -0.960892598E+00  0.873206356E+00
   H  0.957352733E+01  0.133684109E+01 -0.778123868E+00
     4
 # iter = 32000  time[fs]=32.00000
   C -0.176875314E+01 -0.660400732E-01 -0.228816631E-01
   C  0.177513810E+01 -0.120251656E-01  0.256425800E-01
   H -0.100662899E+02 -0.994781534E+00  0.905413483E+00
   H  0.990933451E+01  0.138368404E+01 -0.806998878E+00
     4
 # iter = 32500  time[fs]=32.50000
   C -0.183417859E+01 -0.667545044E-01 -0.242512122E-01
   C  0.183918119E+01 -0.141721047E-01  0.272960851E-01
   H -0.104196328E+02 -0.102875503E+01  0.937700216E+00
   H  0.102459687E+02  0.143065272E+01 -0.835948423E+00
     4
 # iter = 33000  time[fs]=33.00000
   C -0.190036849E+01 -0.674783102E-01 -0.256346841E-01
   C  0.190398754E+01 -0.163128979E-01  0.289631365E-01
   H -0.107737347E+02 -0.106280748E+01  0.970061360E+00
   H  0.105833764E+02  0.147773910E+01 -0.864967860E+00
     4
 # iter = 33500  time[fs]=33.50000
   C -0.196727106E+01 -0.682102099E-01 -0.270313850E-01
   C  0.196950531E+01 -0.184486406E-01  0.306430805E-01
   H -0.111285469E+02 -0.109693382E+01  0.100249221E+01
   H  0.109215091E+02  0.152493589E+01 -0.894052969E+00
     4
 # iter = 34000  time[fs]=34.00000
   C -0.203483908E+01 -0.689491021E-01 -0.284406601E-01
   C  0.203568729E+01 -0.205802645E-01  0.323352974E-01
   H -0.114840251E+02 -0.113112946E+01  0.103498850E+01
   H  0.112603228E+02  0.157223646E+01 -0.923199896E+00
     4
 # iter = 34500  time[fs]=34.50000
   C -0.210302946E+01 -0.696940370E-01 -0.298618921E-01
   C  0.210249038E+01 -0.227085628E-01  0.340392006E-01
   H -0.118401289E+02 -0.116539021E+01  0.106754632E+01
   H  0.115997770E+02  0.161963475E+01 -0.952405117E+00
     4
 # iter = 35000  time[fs]=35.00000
   C -0.217180280E+01 -0.704441944E-01 -0.312944997E-01
   C  0.216987520E+01 -0.248342119E-01  0.357542356E-01
   H -0.121968216E+02 -0.119971225E+01  0.110016214E+01
   H  0.119398351E+02  0.166712522E+01 -0.981665399E+00
     4
 # iter = 35500  time[fs]=35.50000
   C -0.224112303E+01 -0.711988638E-01 -0.327379359E-01
   C  0.223780568E+01 -0.269577892E-01  0.374798794E-01
   H -0.125540696E+02 -0.123409210E+01  0.113283268E+01
   H  0.122804631E+02  0.171470277E+01 -0.101097777E+01
     4
 # iter = 36000  time[fs]=36.00000
   C -0.231095706E+01 -0.719574291E-01 -0.341916865E-01
   C  0.230624874E+01 -0.290797878E-01  0.392156385E-01
   H -0.129118419E+02 -0.126852655E+01  0.116555495E+01
   H  0.126216301E+02  0.176236272E+01 -0.104033949E+01
     4
 # iter = 36500  time[fs]=36.50000
   C -0.238127450E+01 -0.727193544E-01 -0.356552674E-01
   C  0.237517402E+01 -0.312006294E-01  0.409610478E-01
   H -0.132701102E+02 -0.130301265E+01  0.119832622E+01
   H  0.129633073E+02  0.181010077E+01 -0.106974803E+01
     4
 # iter = 37000  time[fs]=37.00000
   C -0.245204738E+01 -0.734841732E-01 -0.371282240E-01
   C  0.244455356E+01 -0.333206748E-01  0.427156691E-01
   H -0.136288482E+02 -0.133754770E+01  0.123114392E+01
   H  0.133054685E+02  0.185791293E+01 -0.109920105E+01
     4
 # iter = 37500  time[fs]=37.50000
   C -0.252324992E+01 -0.742514783E-01 -0.386101283E-01
   C  0.251436160E+01 -0.354402324E-01  0.444790893E-01
   H -0.139880318E+02 -0.137212918E+01  0.126400572E+01
   H  0.136480891E+02  0.190579551E+01 -0.112869639E+01
     4
 # iter = 38000  time[fs]=38.00000
   C -0.259485833E+01 -0.750209138E-01 -0.401005778E-01
   C  0.258457438E+01 -0.375595664E-01  0.462509192E-01
   H -0.143476386E+02 -0.140675478E+01  0.129690945E+01
   H  0.139911464E+02  0.195374509E+01 -0.115823202E+01
     4
 # iter = 38500  time[fs]=38.50000
   C -0.266685061E+01 -0.757921683E-01 -0.415991940E-01
   C  0.265516993E+01 -0.396789025E-01  0.480307920E-01
   H -0.147076479E+02 -0.144142235E+01  0.132985308E+01
   H  0.143346195E+02  0.200175848E+01 -0.118780607E+01
     4
 # iter = 39000  time[fs]=39.00000
   C -0.273920640E+01 -0.765649686E-01 -0.431056202E-01
   C  0.272612790E+01 -0.417984337E-01  0.498183618E-01
   H -0.150680403E+02 -0.147612989E+01  0.136283474E+01
   H  0.146784887E+02  0.204983274E+01 -0.121741679E+01
     4
 # iter = 39500  time[fs]=39.50000
   C -0.281190683E+01 -0.773390750E-01 -0.446195207E-01
   C  0.279742945E+01 -0.439183248E-01  0.516133025E-01
   H -0.154287980E+02 -0.151087554E+01  0.139585268E+01
   H  0.150227359E+02  0.209796510E+01 -0.124706255E+01
     4
 # iter = 40000  time[fs]=40.00000
   C -0.288493435E+01 -0.781142768E-01 -0.461405789E-01
   C  0.286905707E+01 -0.460387162E-01  0.534153063E-01
   H -0.157899042E+02 -0.154565757E+01  0.142890528E+01
   H  0.153673440E+02  0.214615299E+01 -0.127674183E+01
     4
 # iter = 40500  time[fs]=40.50000
   C -0.295827267E+01 -0.788903886E-01 -0.476684965E-01
   C  0.294099448E+01 -0.481597275E-01  0.552240825E-01
   H -0.161513433E+02 -0.158047436E+01  0.146199100E+01
   H  0.157122971E+02  0.219439400E+01 -0.130645320E+01
     4
 # iter = 41000  time[fs]=41.00000
   C -0.303190662E+01 -0.796672469E-01 -0.492029918E-01
   C  0.301322654E+01 -0.502814600E-01  0.570393568E-01
   H -0.165131008E+02 -0.161532440E+01  0.149510843E+01
   H  0.160575804E+02  0.224268588E+01 -0.133619532E+01
     4
 # iter = 41500  time[fs]=41.50000
   C -0.310582205E+01 -0.804447078E-01 -0.507437992E-01
   C  0.308573911E+01 -0.524039993E-01  0.588608698E-01
   H -0.168751630E+02 -0.165020628E+01  0.152825623E+01
   H  0.164031798E+02  0.229102650E+01 -0.136596693E+01
     4
 # iter = 42000  time[fs]=42.00000
   C -0.318000574E+01 -0.812226442E-01 -0.522906674E-01
   C  0.315851902E+01 -0.545274177E-01  0.606883761E-01
   H -0.172375171E+02 -0.168511866E+01  0.156143316E+01
   H  0.167490824E+02  0.233941388E+01 -0.139576685E+01
     4
 # iter = 42500  time[fs]=42.50000
   C -0.325444536E+01 -0.820009439E-01 -0.538433589E-01
   C  0.323155394E+01 -0.566517755E-01  0.625216438E-01
   H -0.176001510E+02 -0.172006031E+01  0.159463802E+01
   H  0.170952757E+02  0.238784616E+01 -0.142559397E+01
     4
 # iter = 43000  time[fs]=43.00000
   C -0.332912934E+01 -0.827795078E-01 -0.554016493E-01
   C  0.330483234E+01 -0.587771229E-01  0.643604530E-01
   H -0.179630536E+02 -0.175503004E+01  0.162786972E+01
   H  0.174417483E+02  0.243632157E+01 -0.145544724E+01
     4
 # iter = 43500  time[fs]=43.50000
   C -0.340404688E+01 -0.835582483E-01 -0.569653258E-01
   C  0.337834343E+01 -0.609035013E-01  0.662045957E-01
   H -0.183262141E+02 -0.179002676E+01  0.166112722E+01
   H  0.177884891E+02  0.248483846E+01 -0.148532566E+01
     4
 # iter = 44000  time[fs]=44.00000
   C -0.347918781E+01 -0.843370882E-01 -0.585341871E-01
   C  0.345207708E+01 -0.630309442E-01  0.680538743E-01
   H -0.186896225E+02 -0.182504943E+01  0.169440952E+01
   H  0.181354881E+02  0.253339526E+01 -0.151522832E+01
     4
 # iter = 44500  time[fs]=44.50000
   C -0.355454261E+01 -0.851159589E-01 -0.601080421E-01
   C  0.352602376E+01 -0.651594787E-01  0.699081018E-01
   H -0.190532694E+02 -0.186009706E+01  0.172771571E+01
   H  0.184827353E+02  0.258199050E+01 -0.154515431E+01
     4
 # iter = 45000  time[fs]=45.00000
   C -0.363010231E+01 -0.858948001E-01 -0.616867097E-01
   C  0.360017455E+01 -0.672891260E-01  0.717671003E-01
   H -0.194171459E+02 -0.189516874E+01  0.176104490E+01
   H  0.188302218E+02  0.263062278E+01 -0.157510282E+01
     4
 # iter = 45500  time[fs]=45.50000
   C -0.370585847E+01 -0.866735584E-01 -0.632700179E-01
   C  0.367452103E+01 -0.694199022E-01  0.736307011E-01
   H -0.197812436E+02 -0.193026358E+01  0.179439627E+01
   H  0.191779387E+02  0.267929078E+01 -0.160507304E+01
     4
 # iter = 46000  time[fs]=46.00000
   C -0.378180317E+01 -0.874521866E-01 -0.648578035E-01
   C  0.374905527E+01 -0.715518190E-01  0.754987436E-01
   H -0.201455543E+02 -0.196538075E+01  0.182776903E+01
   H  0.195258779E+02  0.272799323E+01 -0.163506422E+01
     4
 # iter = 46500  time[fs]=46.50000
   C -0.385792889E+01 -0.882306431E-01 -0.664499111E-01
   C  0.382376981E+01 -0.736848844E-01  0.773710753E-01
   H -0.205100707E+02 -0.200051948E+01  0.186116244E+01
   H  0.198740316E+02  0.277672897E+01 -0.166507566E+01
     4
 # iter = 47000  time[fs]=47.00000
   C -0.393422858E+01 -0.890088914E-01 -0.680461930E-01
   C  0.389865759E+01 -0.758191032E-01  0.792475510E-01
   H -0.208747855E+02 -0.203567901E+01  0.189457578E+01
   H  0.202223923E+02  0.282549684E+01 -0.169510667E+01
     4
 # iter = 47500  time[fs]=47.50000
   C -0.401069555E+01 -0.897868992E-01 -0.696465087E-01
   C  0.397371194E+01 -0.779544770E-01  0.811280323E-01
   H -0.212396919E+02 -0.207085864E+01  0.192800840E+01
   H  0.205709532E+02  0.287429580E+01 -0.172515661E+01
     4
 # iter = 48000  time[fs]=48.00000
   C -0.408732349E+01 -0.905646381E-01 -0.712507244E-01
   C  0.404892658E+01 -0.800910052E-01  0.830123874E-01
   H -0.216047836E+02 -0.210605770E+01  0.196145964E+01
   H  0.209197074E+02  0.292312481E+01 -0.175522487E+01
     4
 # iter = 48500  time[fs]=48.50000
   C -0.416410642E+01 -0.913420834E-01 -0.728587123E-01
   C  0.412429554E+01 -0.822286850E-01  0.849004907E-01
   H -0.219700542E+02 -0.214127555E+01  0.199492891E+01
   H  0.212686488E+02  0.297198290E+01 -0.178531086E+01
     4
 # iter = 49000  time[fs]=49.00000
   C -0.424103868E+01 -0.921192133E-01 -0.744703508E-01
   C  0.419981316E+01 -0.843675117E-01  0.867922223E-01
   H -0.223354980E+02 -0.217651158E+01  0.202841563E+01
   H  0.216177711E+02  0.302086915E+01 -0.181541403E+01
     4
 # iter = 49500  time[fs]=49.50000
   C -0.431811489E+01 -0.928960089E-01 -0.760855240E-01
   C  0.427547411E+01 -0.865074792E-01  0.886874678E-01
   H -0.227011095E+02 -0.221176522E+01  0.206191924E+01
   H  0.219670688E+02  0.306978268E+01 -0.184553385E+01
     4
 # iter = 50000  time[fs]=50.00000
   C -0.439532996E+01 -0.936724537E-01 -0.777041208E-01
   C  0.435127330E+01 -0.886485797E-01  0.905861178E-01
   H -0.230668833E+02 -0.224703591E+01  0.209543922E+01
   H  0.223165362E+02  0.311872265E+01 -0.187566981E+01
     4
 # iter = 50500  time[fs]=50.50000
   C -0.447267906E+01 -0.944485335E-01 -0.793260354E-01
   C  0.442720591E+01 -0.907908044E-01  0.924880678E-01
   H -0.234328143E+02 -0.228232312E+01  0.212897508E+01
   H  0.226661682E+02  0.316768826E+01 -0.190582143E+01
     4
 # iter = 51000  time[fs]=51.00000
   C -0.455015759E+01 -0.952242361E-01 -0.809511666E-01
   C  0.450326735E+01 -0.929341437E-01  0.943932181E-01
   H -0.237988978E+02 -0.231762635E+01  0.216252633E+01
   H  0.230159598E+02  0.321667874E+01 -0.193598825E+01
     4
 # iter = 51500  time[fs]=51.50000
   C -0.462776117E+01 -0.959995510E-01 -0.825794177E-01
   C  0.457945327E+01 -0.950785868E-01  0.963014729E-01
   H -0.241651292E+02 -0.235294513E+01  0.219609251E+01
   H  0.233659061E+02  0.326569336E+01 -0.196616982E+01
     4
 # iter = 52000  time[fs]=52.00000
   C -0.470548565E+01 -0.967744694E-01 -0.842106958E-01
   C  0.465575952E+01 -0.972241224E-01  0.982127408E-01
   H -0.245315040E+02 -0.238827900E+01  0.222967320E+01
   H  0.237160027E+02  0.331473142E+01 -0.199636572E+01
     4
 # iter = 52500  time[fs]=52.50000
   C -0.478332706E+01 -0.975489838E-01 -0.858449124E-01
   C  0.473218215E+01 -0.993707387E-01  0.100126934E+00
   H -0.248980180E+02 -0.242362751E+01  0.226326796E+01
   H  0.240662452E+02  0.336379224E+01 -0.202657555E+01
     4
 # iter = 53000  time[fs]=53.00000
   C -0.486128162E+01 -0.983230882E-01 -0.874819825E-01
   C  0.480871739E+01 -0.101518423E+00  0.102043969E+00
   H -0.252646673E+02 -0.245899025E+01  0.229687641E+01
   H  0.244166293E+02  0.341287519E+01 -0.205679892E+01
     4
 # iter = 53500  time[fs]=53.50000
   C -0.493934574E+01 -0.990967774E-01 -0.891218246E-01
   C  0.488536165E+01 -0.103667163E+00  0.103963765E+00
   H -0.256314479E+02 -0.249436682E+01  0.233049816E+01
   H  0.247671512E+02  0.346197964E+01 -0.208703544E+01
     4
 # iter = 54000  time[fs]=54.00000
   C -0.501751596E+01 -0.998700475E-01 -0.907643606E-01
   C  0.496211151E+01 -0.105816945E+00  0.105886244E+00
   H -0.259983562E+02 -0.252975682E+01  0.236413283E+01
   H  0.251178068E+02  0.351110502E+01 -0.211728478E+01
     4
 # iter = 54500  time[fs]=54.50000
   C -0.509578901E+01 -0.100642895E+00 -0.924095156E-01
   C  0.503896370E+01 -0.107967756E+00  0.107811333E+00
   H -0.263653886E+02 -0.256515990E+01  0.239778009E+01
   H  0.254685927E+02  0.356025075E+01 -0.214754658E+01
     4
 # iter = 55000  time[fs]=55.00000
   C -0.517416176E+01 -0.101415319E+00 -0.940572176E-01
   C  0.511591508E+01 -0.110119583E+00  0.109738960E+00
   H -0.267325417E+02 -0.260057569E+01  0.243143958E+01
   H  0.258195051E+02  0.360941628E+01 -0.217782052E+01
     4
 # iter = 55500  time[fs]=55.50000
   C -0.525263119E+01 -0.102187317E+00 -0.957073975E-01
   C  0.519296267E+01 -0.112272411E+00  0.111669058E+00
   H -0.270998123E+02 -0.263600386E+01  0.246511099E+01
   H  0.261705408E+02  0.365860110E+01 -0.220810628E+01
     4
 # iter = 56000  time[fs]=56.00000
   C -0.533119444E+01 -0.102958888E+00 -0.973599889E-01
   C  0.527010361E+01 -0.114426227E+00  0.113601559E+00
   H -0.274671972E+02 -0.267144408E+01  0.249879400E+01
   H  0.265216966E+02  0.370780471E+01 -0.223840355E+01
     4
 # iter = 56500  time[fs]=56.50000
   C -0.540984877E+01 -0.103730032E+00 -0.990149281E-01
   C  0.534733516E+01 -0.116581017E+00  0.115536401E+00
   H -0.278346935E+02 -0.270689604E+01  0.253248832E+01
   H  0.268729691E+02  0.375702661E+01 -0.226871204E+01
     4
 # iter = 57000  time[fs]=57.00000
   C -0.548859153E+01 -0.104500749E+00 -0.100672153E+00
   C  0.542465470E+01 -0.118736767E+00  0.117473524E+00
   H -0.282022981E+02 -0.274235942E+01  0.256619365E+01
   H  0.272243555E+02  0.380626636E+01 -0.229903148E+01
     4
 # iter = 57500  time[fs]=57.50000
   C -0.556742021E+01 -0.105271040E+00 -0.102331606E+00
   C  0.550205971E+01 -0.120893464E+00  0.119412868E+00
   H -0.285700085E+02 -0.277783396E+01  0.259990971E+01
   H  0.275758529E+02  0.385552349E+01 -0.232936158E+01
     4
 # iter = 58000  time[fs]=58.00000
   C -0.564633238E+01 -0.106040907E+00 -0.103993229E+00
   C  0.557954779E+01 -0.123051094E+00  0.121354377E+00
   H -0.289378218E+02 -0.281331935E+01  0.263363625E+01
   H  0.279274584E+02  0.390479758E+01 -0.235970209E+01
     4
 # iter = 58500  time[fs]=58.50000
   C -0.572532574E+01 -0.106810350E+00 -0.105656968E+00
   C  0.565711662E+01 -0.125209643E+00  0.123297998E+00
   H -0.293057356E+02 -0.284881534E+01  0.266737299E+01
   H  0.282791694E+02  0.395408822E+01 -0.239005276E+01
     4
 # iter = 59000  time[fs]=59.00000
   C -0.580439804E+01 -0.107579372E+00 -0.107322769E+00
   C  0.573476399E+01 -0.127369097E+00  0.125243677E+00
   H -0.296737472E+02 -0.288432167E+01  0.270111970E+01
   H  0.286309833E+02  0.400339500E+01 -0.242041333E+01
     4
 # iter = 59500  time[fs]=59.50000
   C -0.588354715E+01 -0.108347975E+00 -0.108990583E+00
   C  0.581248776E+01 -0.129529443E+00  0.127191364E+00
   H -0.300418544E+02 -0.291983808E+01  0.273487614E+01
   H  0.289828977E+02  0.405271754E+01 -0.245078359E+01
     4
 # iter = 60000  time[fs]=60.00000
   C -0.596277102E+01 -0.109116161E+00 -0.110660359E+00
   C  0.589028588E+01 -0.131690668E+00  0.129141010E+00
   H -0.304100549E+02 -0.295536434E+01  0.276864207E+01
   H  0.293349100E+02  0.410205547E+01 -0.248116330E+01
     4
 # iter = 60500  time[fs]=60.50000
   C -0.604206766E+01 -0.109883933E+00 -0.112332051E+00
   C  0.596815640E+01 -0.133852759E+00  0.131092570E+00
   H -0.307783463E+02 -0.299090021E+01  0.280241727E+01
   H  0.296870180E+02  0.415140843E+01 -0.251155225E+01
     4
 # iter = 61000  time[fs]=61.00000
   C -0.612143517E+01 -0.110651293E+00 -0.114005613E+00
   C  0.604609741E+01 -0.136015701E+00  0.133045996E+00
   H -0.311467266E+02 -0.302644546E+01  0.283620152E+01
   H  0.300392194E+02  0.420077607E+01 -0.254195022E+01
     4
 # iter = 61500  time[fs]=61.50000
   C -0.620087174E+01 -0.111418246E+00 -0.115681002E+00
   C  0.612410709E+01 -0.138179484E+00  0.135001246E+00
   H -0.315151937E+02 -0.306199989E+01  0.286999463E+01
   H  0.303915121E+02  0.425015806E+01 -0.257235700E+01
     4
 # iter = 62000  time[fs]=62.00000
   C -0.628037559E+01 -0.112184793E+00 -0.117358173E+00
   C  0.620218369E+01 -0.140344093E+00  0.136958278E+00
   H -0.318837456E+02 -0.309756328E+01  0.290379638E+01
   H  0.307438941E+02  0.429955408E+01 -0.260277241E+01
     4
 # iter = 62500  time[fs]=62.50000
   C -0.635994503E+01 -0.112950939E+00 -0.119037087E+00
   C  0.628032553E+01 -0.142509517E+00  0.138917049E+00
   H -0.322523804E+02 -0.313313543E+01  0.293760659E+01
   H  0.310963632E+02  0.434896380E+01 -0.263319626E+01
     4
 # iter = 63000  time[fs]=63.00000
   C -0.643957843E+01 -0.113716687E+00 -0.120717703E+00
   C  0.635853096E+01 -0.144675743E+00  0.140877522E+00
   H -0.326210962E+02 -0.316871615E+01  0.297142506E+01
   H  0.314489175E+02  0.439838694E+01 -0.266362835E+01
     4
 # iter = 63500  time[fs]=63.50000
   C -0.651927421E+01 -0.114482040E+00 -0.122399983E+00
   C  0.643679844E+01 -0.146842758E+00  0.142839658E+00
   H -0.329898912E+02 -0.320430524E+01  0.300525162E+01
   H  0.318015552E+02  0.444782319E+01 -0.269406851E+01
     4
 # iter = 64000  time[fs]=64.00000
   C -0.659903086E+01 -0.115247002E+00 -0.124083891E+00
   C  0.651512644E+01 -0.149010551E+00  0.144803419E+00
   H -0.333587636E+02 -0.323990252E+01  0.303908609E+01
   H  0.321542744E+02  0.449727228E+01 -0.272451657E+01
     4
 # iter = 64500  time[fs]=64.50000
   C -0.667884690E+01 -0.116011576E+00 -0.125769389E+00
   C  0.659351350E+01 -0.151179110E+00  0.146768770E+00
   H -0.337277119E+02 -0.327550782E+01  0.307292831E+01
   H  0.325070734E+02  0.454673393E+01 -0.275497236E+01
     4
 # iter = 65000  time[fs]=65.00000
   C -0.675872093E+01 -0.116775768E+00 -0.127456444E+00
   C  0.667195823E+01 -0.153348424E+00  0.148735677E+00
   H -0.340967342E+02 -0.331112097E+01  0.310677810E+01
   H  0.328599505E+02  0.459620787E+01 -0.278543572E+01
     4
 # iter = 65500  time[fs]=65.50000
   C -0.683865157E+01 -0.117539579E+00 -0.129145021E+00
   C  0.675045925E+01 -0.155518480E+00  0.150704107E+00
   H -0.344658291E+02 -0.334674179E+01  0.314063531E+01
   H  0.332129039E+02  0.464569386E+01 -0.281590649E+01
     4
 # iter = 66000  time[fs]=66.00000
   C -0.691863752E+01 -0.118303015E+00 -0.130835088E+00
   C  0.682901526E+01 -0.157689269E+00  0.152674025E+00
   H -0.348349951E+02 -0.338237013E+01  0.317449978E+01
   H  0.335659321E+02  0.469519163E+01 -0.284638453E+01
     4
 # iter = 66500  time[fs]=66.50000
   C -0.699867750E+01 -0.119066078E+00 -0.132526613E+00
   C  0.690762499E+01 -0.159860778E+00  0.154645402E+00
   H -0.352042306E+02 -0.341800584E+01  0.320837136E+01
   H  0.339190336E+02  0.474470095E+01 -0.287686967E+01
     4
 # iter = 67000  time[fs]=67.00000
   C -0.707877027E+01 -0.119828774E+00 -0.134219566E+00
   C  0.698628721E+01 -0.162032997E+00  0.156618207E+00
   H -0.355735341E+02 -0.345364876E+01  0.324224992E+01
   H  0.342722068E+02  0.479422158E+01 -0.290736179E+01
     4
 # iter = 67500  time[fs]=67.50000
   C -0.715891465E+01 -0.120591105E+00 -0.135913917E+00
   C  0.706500074E+01 -0.164205915E+00  0.158592410E+00
   H -0.359429044E+02 -0.348929874E+01  0.327613530E+01
   H  0.346254503E+02  0.484375330E+01 -0.293786073E+01
     4
 # iter = 68000  time[fs]=68.00000
   C -0.723910948E+01 -0.121353077E+00 -0.137609638E+00
   C  0.714376443E+01 -0.166379522E+00  0.160567982E+00
   H -0.363123401E+02 -0.352495565E+01  0.331002738E+01
   H  0.349787627E+02  0.489329589E+01 -0.296836637E+01
     4
 # iter = 68500  time[fs]=68.50000
   C -0.731935365E+01 -0.122114692E+00 -0.139306700E+00
   C  0.722257717E+01 -0.168553807E+00  0.162544897E+00
   H -0.366818398E+02 -0.356061934E+01  0.334392602E+01
   H  0.353321425E+02  0.494284913E+01 -0.299887858E+01
     4
 # iter = 69000  time[fs]=69.00000
   C -0.739964609E+01 -0.122875954E+00 -0.141005076E+00
   C  0.730143790E+01 -0.170728761E+00  0.164523126E+00
   H -0.370514023E+02 -0.359628969E+01  0.337783109E+01
   H  0.356855885E+02  0.499241282E+01 -0.302939723E+01
     4
 # iter = 69500  time[fs]=69.50000
   C -0.747998574E+01 -0.123636868E+00 -0.142704740E+00
   C  0.738034557E+01 -0.172904373E+00  0.166502644E+00
   H -0.374210263E+02 -0.363196656E+01  0.341174247E+01
   H  0.360390994E+02  0.504198675E+01 -0.305992219E+01
     4
 # iter = 70000  time[fs]=70.00000
   C -0.756037160E+01 -0.124397438E+00 -0.144405666E+00
   C  0.745929917E+01 -0.175080634E+00  0.168483425E+00
   H -0.377907107E+02 -0.366764983E+01  0.344566004E+01
   H  0.363926739E+02  0.509157073E+01 -0.309045335E+01
     4
 # iter = 70500  time[fs]=70.50000
   C -0.764080269E+01 -0.125157667E+00 -0.146107831E+00
   C  0.753829774E+01 -0.177257534E+00  0.170465445E+00
   H -0.381604543E+02 -0.370333938E+01  0.347958367E+01
   H  0.367463108E+02  0.514116456E+01 -0.312099059E+01
     4
 # iter = 71000  time[fs]=71.00000
   C -0.772127806E+01 -0.125917559E+00 -0.147811209E+00
   C  0.761734031E+01 -0.179435064E+00  0.172448679E+00
   H -0.385302559E+02 -0.373903507E+01  0.351351326E+01
   H  0.371000089E+02  0.519076807E+01 -0.315153380E+01
     4
 # iter = 71500  time[fs]=71.50000
   C -0.780179678E+01 -0.126677119E+00 -0.149515777E+00
   C  0.769642599E+01 -0.181613215E+00  0.174433105E+00
   H -0.389001144E+02 -0.377473681E+01  0.354744869E+01
   H  0.374537670E+02  0.524038107E+01 -0.318208286E+01
     4
 # iter = 72000  time[fs]=72.00000
   C -0.788235798E+01 -0.127436349E+00 -0.151221513E+00
   C  0.777555389E+01 -0.183791977E+00  0.176418699E+00
   H -0.392700288E+02 -0.381044448E+01  0.358138986E+01
   H  0.378075841E+02  0.529000339E+01 -0.321263768E+01
     4
 # iter = 72500  time[fs]=72.50000
   C -0.796296077E+01 -0.128195254E+00 -0.152928394E+00
   C  0.785472313E+01 -0.185971342E+00  0.178405441E+00
   H -0.396399981E+02 -0.384615797E+01  0.361533666E+01
   H  0.381614590E+02  0.533963486E+01 -0.324319814E+01
     4
 # iter = 73000  time[fs]=73.00000
   C -0.804360433E+01 -0.128953837E+00 -0.154636399E+00
   C  0.793393289E+01 -0.188151301E+00  0.180393307E+00
   H -0.400100212E+02 -0.388187717E+01  0.364928898E+01
   H  0.385153907E+02  0.538927531E+01 -0.327376414E+01
     4
 # iter = 73500  time[fs]=73.50000
   C -0.812428783E+01 -0.129712102E+00 -0.156345508E+00
   C  0.801318235E+01 -0.190331846E+00  0.182382278E+00
   H -0.403800972E+02 -0.391760198E+01  0.368324674E+01
   H  0.388693782E+02  0.543892459E+01 -0.330433559E+01
     4
 # iter = 74000  time[fs]=74.00000
   C -0.820501048E+01 -0.130470054E+00 -0.158055699E+00
   C  0.809247073E+01 -0.192512968E+00  0.184372334E+00
   H -0.407502250E+02 -0.395333230E+01  0.371720983E+01
   H  0.392234204E+02  0.548858253E+01 -0.333491238E+01
     4
 # iter = 74500  time[fs]=74.50000
   C -0.828577152E+01 -0.131227694E+00 -0.159766953E+00
   C  0.817179726E+01 -0.194694659E+00  0.186363454E+00
   H -0.411204038E+02 -0.398906803E+01  0.375117816E+01
   H  0.395775163E+02  0.553824898E+01 -0.336549444E+01
     4
 # iter = 75000  time[fs]=75.00000
   C -0.836657021E+01 -0.131985028E+00 -0.161479251E+00
   C  0.825116120E+01 -0.196876910E+00  0.188355619E+00
   H -0.414906327E+02 -0.402480908E+01  0.378515163E+01
   H  0.399316651E+02  0.558792379E+01 -0.339608166E+01
     4
 # iter = 75500  time[fs]=75.50000
   C -0.844740580E+01 -0.132742059E+00 -0.163192575E+00
   C  0.833056183E+01 -0.199059715E+00  0.190348812E+00
   H -0.418609108E+02 -0.406055535E+01  0.381913016E+01
   H  0.402858658E+02  0.563760683E+01 -0.342667395E+01
     4
 # iter = 76000  time[fs]=76.00000
   C -0.852827761E+01 -0.133498790E+00 -0.164906905E+00
   C  0.840999845E+01 -0.201243065E+00  0.192343013E+00
   H -0.422312372E+02 -0.409630675E+01  0.385311366E+01
   H  0.406401175E+02  0.568729794E+01 -0.345727124E+01
     4
 # iter = 76500  time[fs]=76.50000
   C -0.860918494E+01 -0.134255224E+00 -0.166622225E+00
   C  0.848947037E+01 -0.203426953E+00  0.194338204E+00
   H -0.426016110E+02 -0.413206320E+01  0.388710204E+01
   H  0.409944193E+02  0.573699700E+01 -0.348787343E+01
     4
 # iter = 77000  time[fs]=77.00000
   C -0.869012713E+01 -0.135011366E+00 -0.168338516E+00
   C  0.856897694E+01 -0.205611370E+00  0.196334370E+00
   H -0.429720315E+02 -0.416782460E+01  0.392109523E+01
   H  0.413487704E+02  0.578670386E+01 -0.351848045E+01
     4
 # iter = 77500  time[fs]=77.50000
   C -0.877110353E+01 -0.135767218E+00 -0.170055762E+00
   C  0.864851750E+01 -0.207796311E+00  0.198331492E+00
   H -0.433424980E+02 -0.420359088E+01  0.395509313E+01
   H  0.417031698E+02  0.583641840E+01 -0.354909221E+01
     4
 # iter = 78000  time[fs]=78.00000
   C -0.885211352E+01 -0.136522785E+00 -0.171773947E+00
   C  0.872809143E+01 -0.209981767E+00  0.200329555E+00
   H -0.437130095E+02 -0.423936196E+01  0.398909568E+01
   H  0.420576169E+02  0.588614048E+01 -0.357970863E+01
     4
 # iter = 78500  time[fs]=78.50000
   C -0.893315647E+01 -0.137278069E+00 -0.173493055E+00
   C  0.880769813E+01 -0.212167732E+00  0.202328542E+00
   H -0.440835653E+02 -0.427513775E+01  0.402310280E+01
   H  0.424121109E+02  0.593587000E+01 -0.361032964E+01
     4
 # iter = 79000  time[fs]=79.00000
   C -0.901423179E+01 -0.138033073E+00 -0.175213069E+00
   C  0.888733700E+01 -0.214354198E+00  0.204328438E+00
   H -0.444541648E+02 -0.431091817E+01  0.405711441E+01
   H  0.427666508E+02  0.598560681E+01 -0.364095517E+01
     4
 # iter = 79500  time[fs]=79.50000
   C -0.909533890E+01 -0.138787801E+00 -0.176933975E+00
   C  0.896700745E+01 -0.216541159E+00  0.206329228E+00
   H -0.448248071E+02 -0.434670316E+01  0.409113044E+01
   H  0.431212361E+02  0.603535081E+01 -0.367158514E+01
     4
 # iter = 80000  time[fs]=80.00000
   C -0.917647724E+01 -0.139542256E+00 -0.178655759E+00
   C  0.904670893E+01 -0.218728609E+00  0.208330897E+00
   H -0.451954916E+02 -0.438249263E+01  0.412515081E+01
   H  0.434758659E+02  0.608510188E+01 -0.370221948E+01
