     4
 # iter = 25000  time[fs]=25.00000
   C -0.103287237E+01  0.225560058E-01  0.294619077E-01
   C  0.967491096E+00  0.225176123E-02 -0.247805805E-01
   H -0.533359187E+01 -0.456837688E+00  0.464259634E+00
   H  0.525733310E+01 -0.253605787E+00 -0.368360303E+00
     4
 # iter = 25500  time[fs]=25.50000
   C -0.108066270E+01  0.246249063E-01  0.298130319E-01
   C  0.100759064E+01  0.321080693E-02 -0.230988787E-01
   H -0.566750912E+01 -0.485737591E+00  0.494610113E+00
   H  0.557501352E+01 -0.269119762E+00 -0.389026565E+00
     4
 # iter = 26000  time[fs]=26.00000
   C -0.113215366E+01  0.267501260E-01  0.302503880E-01
   C  0.105138603E+01  0.414405725E-02 -0.215068011E-01
   H -0.600406338E+01 -0.514876693E+00  0.525203379E+00
   H  0.589538824E+01 -0.284760824E+00 -0.409894906E+00
     4
 # iter = 26500  time[fs]=26.50000
   C -0.118703283E+01  0.289267322E-01  0.307612571E-01
   C  0.109856490E+01  0.505308351E-02 -0.199912492E-01
   H -0.634296291E+01 -0.544228382E+00  0.556012766E+00
   H  0.621816508E+01 -0.300515248E+00 -0.430943215E+00
     4
 # iter = 27000  time[fs]=27.00000
   C -0.124500670E+01  0.311502482E-01  0.313346654E-01
   C  0.114883383E+01  0.593953441E-02 -0.185409306E-01
   H -0.668396123E+01 -0.573770318E+00  0.587015781E+00
   H  0.654309629E+01 -0.316371438E+00 -0.452152823E+00
     4
 # iter = 27500  time[fs]=27.50000
   C -0.130580317E+01  0.334166194E-01  0.319612316E-01
   C  0.120192089E+01  0.680506189E-02 -0.171461941E-01
   H -0.702684834E+01 -0.603483553E+00  0.618193284E+00
   H  0.686997011E+01 -0.332319510E+00 -0.473507829E+00
     4
 # iter = 28000  time[fs]=28.00000
   C -0.136917260E+01  0.357221805E-01  0.326329873E-01
   C  0.125757657E+01  0.765127162E-02 -0.157988403E-01
   H -0.737144389E+01 -0.633351872E+00  0.649528845E+00
   H  0.719860417E+01 -0.348350965E+00 -0.494994575E+00
     4
 # iter = 28500  time[fs]=28.50000
   C -0.143488753E+01  0.380636242E-01  0.333431917E-01
   C  0.131557364E+01  0.847969188E-02 -0.144919293E-01
   H -0.771759192E+01 -0.663361287E+00  0.681008261E+00
   H  0.752884033E+01 -0.364458441E+00 -0.516601246E+00
     4
 # iter = 29000  time[fs]=29.00000
   C -0.150274192E+01  0.404379694E-01  0.340861564E-01
   C  0.137570620E+01  0.929175584E-02 -0.132195996E-01
   H -0.806515666E+01 -0.693499643E+00  0.712619166E+00
   H  0.786054061E+01 -0.380635519E+00 -0.538317555E+00
     4
 # iter = 29500  time[fs]=29.50000
   C -0.157254971E+01  0.428425309E-01  0.348570856E-01
   C  0.143778841E+01  0.100887932E-01 -0.119769043E-01
   H -0.841401923E+01 -0.723756307E+00  0.744350733E+00
   H  0.819358394E+01 -0.396876564E+00 -0.560134486E+00
     4
 # iter = 30000  time[fs]=30.00000
   C -0.164414336E+01  0.452748907E-01  0.356519357E-01
   C  0.150165287E+01  0.108720284E-01 -0.107596668E-01
   H -0.876407496E+01 -0.754121927E+00  0.776193421E+00
   H  0.852786352E+01 -0.413176607E+00 -0.582044097E+00
     4
 # iter = 30500  time[fs]=30.50000
   C -0.171737214E+01  0.477328705E-01  0.364672947E-01
   C  0.156714906E+01  0.116425826E-01 -0.956435738E-02
   H -0.911523125E+01 -0.784588227E+00  0.808138785E+00
   H  0.886328466E+01 -0.429531238E+00 -0.604039352E+00
     4
 # iter = 31000  time[fs]=31.00000
   C -0.179210060E+01  0.502145068E-01  0.373002790E-01
   C  0.163414166E+01  0.124014786E-01 -0.838798793E-02
   H -0.946740577E+01 -0.815147848E+00  0.840179311E+00
   H  0.919976308E+01 -0.445936528E+00 -0.626113993E+00
     4
 # iter = 31500  time[fs]=31.50000
   C -0.186820691E+01  0.527180281E-01  0.381484467E-01
   C  0.170250903E+01  0.131496471E-01 -0.722802334E-02
   H -0.982052501E+01 -0.845794219E+00  0.872308283E+00
   H  0.953722339E+01 -0.462388959E+00 -0.648262424E+00
     4
 # iter = 32000  time[fs]=32.00000
   C -0.194558154E+01  0.552418343E-01  0.390097257E-01
   C  0.177214175E+01  0.138879339E-01 -0.608230769E-02
   H -0.101745231E+02 -0.876521446E+00  0.904519677E+00
   H  0.987559793E+01 -0.478885372E+00 -0.670479624E+00
     4
 # iter = 32500  time[fs]=32.50000
   C -0.202412583E+01  0.577844776E-01  0.398823529E-01
   C  0.184294134E+01  0.146171066E-01 -0.494900258E-02
   H -0.105293407E+02 -0.907324220E+00  0.936808064E+00
   H  0.102148257E+02 -0.495422913E+00 -0.692761069E+00
     4
 # iter = 33000  time[fs]=33.00000
   C -0.210375088E+01  0.603446466E-01  0.407648242E-01
   C  0.191481900E+01  0.153378617E-01 -0.382653596E-02
   H -0.108849244E+02 -0.938197743E+00  0.969168540E+00
   H  0.105548517E+02 -0.511999002E+00 -0.715102671E+00
     4
 # iter = 33500  time[fs]=33.50000
   C -0.218437642E+01  0.629211509E-01  0.416558531E-01
   C  0.198769461E+01  0.160508315E-01 -0.271355967E-02
   H -0.112412256E+02 -0.969137664E+00  0.100159665E+01
   H  0.108956258E+02 -0.528611295E+00 -0.737500718E+00
     4
 # iter = 34000  time[fs]=34.00000
   C -0.226592990E+01  0.655129087E-01  0.425543363E-01
   C  0.206149572E+01  0.167565904E-01 -0.160891411E-02
   H -0.115982003E+02 -0.100014003E+01  0.103408836E+01
   H  0.112371026E+02 -0.545257656E+00 -0.759951838E+00
     4
 # iter = 34500  time[fs]=34.50000
   C -0.234834560E+01  0.681189343E-01  0.434593244E-01
   C  0.213615673E+01  0.174556600E-01 -0.511598944E-03
   H -0.119558083E+02 -0.103120121E+01  0.106663996E+01
   H  0.115792406E+02 -0.561936134E+00 -0.782452948E+00
     4
 # iter = 35000  time[fs]=35.00000
   C -0.243156393E+01  0.707383287E-01  0.443699988E-01
   C  0.221161813E+01  0.181485151E-01  0.579251312E-03
   H -0.123140129E+02 -0.106231793E+01  0.109924808E+01
   H  0.119220019E+02 -0.578644940E+00 -0.805001231E+00
     4
 # iter = 35500  time[fs]=35.50000
   C -0.251553070E+01  0.733702701E-01  0.452856514E-01
   C  0.228782586E+01  0.188355880E-01  0.166438762E-02
   H -0.126727806E+02 -0.109348713E+01  0.113190961E+01
   H  0.122653518E+02 -0.595382433E+00 -0.827594101E+00
     4
 # iter = 36000  time[fs]=36.00000
   C -0.260019659E+01  0.760140058E-01  0.462056683E-01
   C  0.236473068E+01  0.195172730E-01  0.274446341E-02
   H -0.130320804E+02 -0.112470603E+01  0.116462170E+01
   H  0.126092581E+02 -0.612147103E+00 -0.850229180E+00
     4
 # iter = 36500  time[fs]=36.50000
   C -0.268551663E+01  0.786688456E-01  0.471295157E-01
   C  0.244228770E+01  0.201939300E-01  0.382004885E-02
   H -0.133918839E+02 -0.115597206E+01  0.119738174E+01
   H  0.129536916E+02 -0.628937553E+00 -0.872904276E+00
     4
 # iter = 37000  time[fs]=37.00000
   C -0.277144971E+01  0.813341549E-01  0.480567282E-01
   C  0.252045590E+01  0.208658880E-01  0.489164274E-02
   H -0.137521650E+02 -0.118728285E+01  0.123018728E+01
   H  0.132986249E+02 -0.645752495E+00 -0.895617364E+00
     4
 # iter = 37500  time[fs]=37.50000
   C -0.285795820E+01  0.840093495E-01  0.489868994E-01
   C  0.259919772E+01  0.215334484E-01  0.595968263E-02
   H -0.141128993E+02 -0.121863620E+01  0.126303608E+01
   H  0.136440330E+02 -0.662590735E+00 -0.918366569E+00
     4
 # iter = 38000  time[fs]=38.00000
   C -0.294500760E+01  0.866938909E-01  0.499196733E-01
   C  0.267847874E+01  0.221968874E-01  0.702455328E-02
   H -0.144740645E+02 -0.125003006E+01  0.129592606E+01
   H  0.139898925E+02 -0.679451161E+00 -0.941150153E+00
     4
 # iter = 38500  time[fs]=38.50000
   C -0.303256622E+01  0.893872814E-01  0.508547376E-01
   C  0.275826733E+01  0.228564587E-01  0.808659384E-02
   H -0.148356397E+02 -0.128146254E+01  0.132885527E+01
   H  0.143361817E+02 -0.696332745E+00 -0.963966500E+00
     4
 # iter = 39000  time[fs]=39.00000
   C -0.312060489E+01  0.920890605E-01  0.517918175E-01
   C  0.283853438E+01  0.235123956E-01  0.914610398E-02
   H -0.151976056E+02 -0.131293188E+01  0.136182193E+01
   H  0.146828806E+02 -0.713234523E+00 -0.986814106E+00
     4
 # iter = 39500  time[fs]=39.50000
   C -0.320909673E+01  0.947988016E-01  0.527306708E-01
   C  0.291925308E+01  0.241649129E-01  0.102033491E-01
   H -0.155599441E+02 -0.134443643E+01  0.139482434E+01
   H  0.150299704E+02 -0.730155600E+00 -0.100969157E+01
     4
 # iter = 40000  time[fs]=40.00000
   C -0.329801691E+01  0.975161084E-01  0.536710836E-01
   C  0.300039867E+01  0.248142086E-01  0.112585646E-01
   H -0.159226384E+02 -0.137597464E+01  0.142786094E+01
   H  0.153774335E+02 -0.747095136E+00 -0.103259758E+01
     4
 # iter = 40500  time[fs]=40.50000
   C -0.338734249E+01  0.100240613E+00  0.546128669E-01
   C  0.308194825E+01  0.254604658E-01  0.123119600E-01
   H -0.162856728E+02 -0.140754509E+01  0.146093025E+01
   H  0.157252537E+02 -0.764052349E+00 -0.105553091E+01
     4
 # iter = 41000  time[fs]=41.00000
   C -0.347705221E+01  0.102971972E+00  0.555558530E-01
   C  0.316388061E+01  0.261038536E-01  0.133637219E-01
   H -0.166490326E+02 -0.143914643E+01  0.149403091E+01
   H  0.160734155E+02 -0.781026501E+00 -0.107849041E+01
     4
 # iter = 41500  time[fs]=41.50000
   C -0.356712635E+01  0.105709866E+00  0.564998930E-01
   C  0.324617608E+01  0.267445286E-01  0.144140169E-01
   H -0.170127041E+02 -0.147077738E+01  0.152716162E+01
   H  0.164219046E+02 -0.798016902E+00 -0.110147501E+01
     4
 # iter = 42000  time[fs]=42.00000
   C -0.365754661E+01  0.108453997E+00  0.574448548E-01
   C  0.332881641E+01  0.273826361E-01  0.154629939E-01
   H -0.173766742E+02 -0.150243676E+01  0.156032117E+01
   H  0.167707076E+02 -0.815022905E+00 -0.112448369E+01
     4
 # iter = 42500  time[fs]=42.50000
   C -0.374829594E+01  0.111204086E+00  0.583906204E-01
   C  0.341178460E+01  0.280183111E-01  0.165107866E-01
   H -0.177409309E+02 -0.153412346E+01  0.159350841E+01
   H  0.171198117E+02 -0.832043896E+00 -0.114751551E+01
     4
 # iter = 43000  time[fs]=43.00000
   C -0.383935848E+01  0.113959872E+00  0.593370850E-01
   C  0.349506482E+01  0.286516788E-01  0.175575147E-01
   H -0.181054628E+02 -0.156583642E+01  0.162672229E+01
   H  0.174692051E+02 -0.849079302E+00 -0.117056957E+01
     4
 # iter = 43500  time[fs]=43.50000
   C -0.393071943E+01  0.116721109E+00  0.602841547E-01
   C  0.357864231E+01  0.292828562E-01  0.186032859E-01
   H -0.184702591E+02 -0.159757464E+01  0.165996177E+01
   H  0.178188765E+02 -0.866128578E+00 -0.119364501E+01
     4
 # iter = 44000  time[fs]=44.00000
   C -0.402236495E+01  0.119487569E+00  0.612317458E-01
   C  0.366250328E+01  0.299119518E-01  0.196481971E-01
   H -0.188353097E+02 -0.162933720E+01  0.169322592E+01
   H  0.181688154E+02 -0.883191213E+00 -0.121674106E+01
     4
 # iter = 44500  time[fs]=44.50000
   C -0.411428212E+01  0.122259035E+00  0.621797834E-01
   C  0.374663484E+01  0.305390674E-01  0.206923358E-01
   H -0.192006050E+02 -0.166112319E+01  0.172651381E+01
   H  0.185190116E+02 -0.900266722E+00 -0.123985694E+01
     4
 # iter = 45000  time[fs]=45.00000
   C -0.420645883E+01  0.125035304E+00  0.631282002E-01
   C  0.383102492E+01  0.311642976E-01  0.217357808E-01
   H -0.195661359E+02 -0.169293179E+01  0.175982461E+01
   H  0.188694559E+02 -0.917354644E+00 -0.126299195E+01
     4
 # iter = 45500  time[fs]=45.50000
   C -0.429888374E+01  0.127816187E+00  0.640769361E-01
   C  0.391566220E+01  0.317877312E-01  0.227786036E-01
   H -0.199318940E+02 -0.172476220E+01  0.179315750E+01
   H  0.192201392E+02 -0.934454546E+00 -0.128614541E+01
     4
 # iter = 46000  time[fs]=46.00000
   C -0.439154620E+01  0.130601501E+00  0.650259371E-01
   C  0.400053606E+01  0.324094512E-01  0.238208685E-01
   H -0.202978710E+02 -0.175661367E+01  0.182651172E+01
   H  0.195710530E+02 -0.951566016E+00 -0.130931669E+01
     4
 # iter = 46500  time[fs]=46.50000
   C -0.448443619E+01  0.133391078E+00  0.659751548E-01
   C  0.408563653E+01  0.330295354E-01  0.248626342E-01
   H -0.206640595E+02 -0.178848548E+01  0.185988653E+01
   H  0.199221894E+02 -0.968688662E+00 -0.133250517E+01
     4
 # iter = 47000  time[fs]=47.00000
   C -0.457754431E+01  0.136184756E+00  0.669245455E-01
   C  0.417095423E+01  0.336480570E-01  0.259039537E-01
   H -0.210304520E+02 -0.182037695E+01  0.189328125E+01
   H  0.202735407E+02 -0.985822112E+00 -0.135571029E+01
     4
 # iter = 47500  time[fs]=47.50000
   C -0.467086169E+01  0.138982384E+00  0.678740701E-01
   C  0.425648031E+01  0.342650845E-01  0.269448752E-01
   H -0.213970417E+02 -0.185228744E+01  0.192669522E+01
   H  0.206250997E+02 -0.100296601E+01 -0.137893148E+01
     4
 # iter = 48000  time[fs]=48.00000
   C -0.476437998E+01  0.141783819E+00  0.688236933E-01
   C  0.434220645E+01  0.348806823E-01  0.279854425E-01
   H -0.217638220E+02 -0.188421634E+01  0.196012781E+01
   H  0.209768594E+02 -0.102012003E+01 -0.140216823E+01
     4
 # iter = 48500  time[fs]=48.50000
   C -0.485809131E+01  0.144588923E+00  0.697733836E-01
   C  0.442812480E+01  0.354949112E-01  0.290256955E-01
   H -0.221307866E+02 -0.191616305E+01  0.199357844E+01
   H  0.213288134E+02 -0.103728384E+01 -0.142542005E+01
     4
 # iter = 49000  time[fs]=49.00000
   C -0.495198822E+01  0.147397569E+00  0.707231124E-01
   C  0.451422794E+01  0.361078284E-01  0.300656705E-01
   H -0.224979296E+02 -0.194812703E+01  0.202704653E+01
   H  0.216809555E+02 -0.105445713E+01 -0.144868646E+01
     4
 # iter = 49500  time[fs]=49.50000
   C -0.504606368E+01  0.150209633E+00  0.716728540E-01
   C  0.460050885E+01  0.367194877E-01  0.311054005E-01
   H -0.228652454E+02 -0.198010774E+01  0.206053155E+01
   H  0.220332796E+02 -0.107163963E+01 -0.147196700E+01
     4
 # iter = 50000  time[fs]=50.00000
   C -0.514031104E+01  0.153025000E+00  0.726225853E-01
   C  0.468696090E+01  0.373299401E-01  0.321449158E-01
   H -0.232327286E+02 -0.201210468E+01  0.209403297E+01
   H  0.223857801E+02 -0.108883104E+01 -0.149526126E+01
     4
 # iter = 50500  time[fs]=50.50000
   C -0.523472398E+01  0.155843558E+00  0.735722856E-01
   C  0.477357780E+01  0.379392336E-01  0.331842439E-01
   H -0.236003739E+02 -0.204411736E+01  0.212755031E+01
   H  0.227384516E+02 -0.110603110E+01 -0.151856881E+01
     4
 # iter = 51000  time[fs]=51.00000
   C -0.532929655E+01  0.158665202E+00  0.745219362E-01
   C  0.486035361E+01  0.385474135E-01  0.342234099E-01
   H -0.239681765E+02 -0.207614531E+01  0.216108310E+01
   H  0.230912890E+02 -0.112323957E+01 -0.154188927E+01
     4
 # iter = 51500  time[fs]=51.50000
   C -0.542402307E+01  0.161489834E+00  0.754715203E-01
   C  0.494728268E+01  0.391545229E-01  0.352624369E-01
   H -0.243361317E+02 -0.210818810E+01  0.219463088E+01
   H  0.234442873E+02 -0.114045619E+01 -0.156522225E+01
     4
 # iter = 52000  time[fs]=52.00000
   C -0.551889816E+01  0.164317356E+00  0.764210227E-01
   C  0.503435963E+01  0.397606025E-01  0.363013458E-01
   H -0.247042350E+02 -0.214024530E+01  0.222819323E+01
   H  0.237974418E+02 -0.115768074E+01 -0.158856741E+01
     4
 # iter = 52500  time[fs]=52.50000
   C -0.561391670E+01  0.167147678E+00  0.773704298E-01
   C  0.512157939E+01  0.403656908E-01  0.373401560E-01
   H -0.250724821E+02 -0.217231651E+01  0.226176974E+01
   H  0.241507480E+02 -0.117491298E+01 -0.161192439E+01
     4
 # iter = 53000  time[fs]=53.00000
   C -0.570907385E+01  0.169980714E+00  0.783197295E-01
   C  0.520893711E+01  0.409698244E-01  0.383788851E-01
   H -0.254408688E+02 -0.220440133E+01  0.229536000E+01
   H  0.245042016E+02 -0.119215271E+01 -0.163529287E+01
     4
 # iter = 53500  time[fs]=53.50000
   C -0.580436496E+01  0.172816380E+00  0.792689109E-01
   C  0.529642818E+01  0.415730381E-01  0.394175491E-01
   H -0.258093913E+02 -0.223649940E+01  0.232896364E+01
   H  0.248577984E+02 -0.120939973E+01 -0.165867253E+01
     4
 # iter = 54000  time[fs]=54.00000
   C -0.589978565E+01  0.175654598E+00  0.802179642E-01
   C  0.538404820E+01  0.421753647E-01  0.404561629E-01
   H -0.261780458E+02 -0.226861035E+01  0.236258030E+01
   H  0.252115344E+02 -0.122665383E+01 -0.168206306E+01
     4
 # iter = 54500  time[fs]=54.50000
   C -0.599533171E+01  0.178495291E+00  0.811668806E-01
   C  0.547179301E+01  0.427768356E-01  0.414947399E-01
   H -0.265468286E+02 -0.230073384E+01  0.239620963E+01
   H  0.255654060E+02 -0.124391483E+01 -0.170546418E+01
     4
 # iter = 55000  time[fs]=55.00000
   C -0.609099915E+01  0.181338387E+00  0.821156523E-01
   C  0.555965861E+01  0.433774806E-01  0.425332926E-01
   H -0.269157363E+02 -0.233286955E+01  0.242985129E+01
   H  0.259194093E+02 -0.126118254E+01 -0.172887561E+01
     4
 # iter = 55500  time[fs]=55.50000
   C -0.618678413E+01  0.184183818E+00  0.830642724E-01
   C  0.564764121E+01  0.439773281E-01  0.435718324E-01
   H -0.272847655E+02 -0.236501715E+01  0.246350497E+01
   H  0.262735409E+02 -0.127845680E+01 -0.175229707E+01
     4
 # iter = 56000  time[fs]=56.00000
   C -0.628268303E+01  0.187031516E+00  0.840127347E-01
   C  0.573573716E+01  0.445764050E-01  0.446103696E-01
   H -0.276539130E+02 -0.239717634E+01  0.249717035E+01
   H  0.266277975E+02 -0.129573743E+01 -0.177572832E+01
     4
 # iter = 56500  time[fs]=56.50000
   C -0.637869235E+01  0.189881418E+00  0.849610337E-01
   C  0.582394299E+01  0.451747372E-01  0.456489139E-01
   H -0.280231758E+02 -0.242934683E+01  0.253084713E+01
   H  0.269821758E+02 -0.131302428E+01 -0.179916909E+01
     4
 # iter = 57000  time[fs]=57.00000
   C -0.647480876E+01  0.192733463E+00  0.859091646E-01
   C  0.591225540E+01  0.457723491E-01  0.466874739E-01
   H -0.283925509E+02 -0.246152834E+01  0.256453503E+01
   H  0.273366726E+02 -0.133031718E+01 -0.182261915E+01
     4
 # iter = 57500  time[fs]=57.50000
   C -0.657102909E+01  0.195587593E+00  0.868571233E-01
   C  0.600067120E+01  0.463692642E-01  0.477260576E-01
   H -0.287620354E+02 -0.249372059E+01  0.259823377E+01
   H  0.276912850E+02 -0.134761600E+01 -0.184607828E+01
     4
 # iter = 58000  time[fs]=58.00000
   C -0.666735027E+01  0.198443751E+00  0.878049059E-01
   C  0.608918737E+01  0.469655048E-01  0.487646726E-01
   H -0.291316266E+02 -0.252592332E+01  0.263194310E+01
   H  0.280460101E+02 -0.136492057E+01 -0.186954624E+01
     4
 # iter = 58500  time[fs]=58.50000
   C -0.676376940E+01  0.201301884E+00  0.887525093E-01
   C  0.617780098E+01  0.475610924E-01  0.498033253E-01
   H -0.295013218E+02 -0.255813628E+01  0.266566274E+01
   H  0.284008452E+02 -0.138223078E+01 -0.189302283E+01
     4
 # iter = 59000  time[fs]=59.00000
   C -0.686028366E+01  0.204161939E+00  0.896999306E-01
   C  0.626650926E+01  0.481560473E-01  0.508420221E-01
   H -0.298711186E+02 -0.259035922E+01  0.269939247E+01
   H  0.287557874E+02 -0.139954648E+01 -0.191650784E+01
     4
 # iter = 59500  time[fs]=59.50000
   C -0.695689038E+01  0.207023867E+00  0.906471676E-01
   C  0.635530953E+01  0.487503890E-01  0.518807686E-01
   H -0.302410144E+02 -0.262259192E+01  0.273313202E+01
   H  0.291108343E+02 -0.141686754E+01 -0.194000107E+01
     4
 # iter = 60000  time[fs]=60.00000
   C -0.705358699E+01  0.209887619E+00  0.915942182E-01
   C  0.644419923E+01  0.493441362E-01  0.529195699E-01
   H -0.306110069E+02 -0.265483414E+01  0.276688119E+01
   H  0.294659834E+02 -0.143419384E+01 -0.196350233E+01
     4
 # iter = 60500  time[fs]=60.50000
   C -0.715037101E+01  0.212753150E+00  0.925410807E-01
   C  0.653317590E+01  0.499373069E-01  0.539584307E-01
   H -0.309810938E+02 -0.268708567E+01  0.280063975E+01
   H  0.298212322E+02 -0.145152526E+01 -0.198701144E+01
     4
 # iter = 61000  time[fs]=61.00000
   C -0.724724007E+01  0.215620416E+00  0.934877538E-01
   C  0.662223717E+01  0.505299182E-01  0.549973554E-01
   H -0.313512729E+02 -0.271934629E+01  0.283440747E+01
   H  0.301765785E+02 -0.146886168E+01 -0.201052821E+01
     4
 # iter = 61500  time[fs]=61.50000
   C -0.734419190E+01  0.218489373E+00  0.944342364E-01
   C  0.671138078E+01  0.511219864E-01  0.560363478E-01
   H -0.317215421E+02 -0.275161580E+01  0.286818416E+01
   H  0.305320199E+02 -0.148620299E+01 -0.203405247E+01
     4
 # iter = 62000  time[fs]=62.00000
   C -0.744122430E+01  0.221359980E+00  0.953805276E-01
   C  0.680060454E+01  0.517135274E-01  0.570754115E-01
   H -0.320918993E+02 -0.278389400E+01  0.290196962E+01
   H  0.308875544E+02 -0.150354909E+01 -0.205758406E+01
     4
 # iter = 62500  time[fs]=62.50000
   C -0.753833516E+01  0.224232197E+00  0.963266269E-01
   C  0.688990636E+01  0.523045563E-01  0.581145499E-01
   H -0.324623425E+02 -0.281618071E+01  0.293576365E+01
   H  0.312431799E+02 -0.152089986E+01 -0.208112281E+01
     4
 # iter = 63000  time[fs]=63.00000
   C -0.763552246E+01  0.227105987E+00  0.972725338E-01
   C  0.697928421E+01  0.528950875E-01  0.591537658E-01
   H -0.328328699E+02 -0.284847573E+01  0.296956607E+01
   H  0.315988943E+02 -0.153825521E+01 -0.210466857E+01
     4
 # iter = 63500  time[fs]=63.50000
   C -0.773278424E+01  0.229981311E+00  0.982182481E-01
   C  0.706873616E+01  0.534851350E-01  0.601930619E-01
   H -0.332034795E+02 -0.288077890E+01  0.300337669E+01
   H  0.319546956E+02 -0.155561504E+01 -0.212822119E+01
     4
 # iter = 64000  time[fs]=64.00000
   C -0.783011863E+01  0.232858135E+00  0.991637699E-01
   C  0.715826033E+01  0.540747122E-01  0.612324407E-01
   H -0.335741696E+02 -0.291309002E+01  0.303719534E+01
   H  0.323105820E+02 -0.157297924E+01 -0.215178051E+01
     4
 # iter = 64500  time[fs]=64.50000
   C -0.792752382E+01  0.235736423E+00  0.100109099E+00
   C  0.724785493E+01  0.546638320E-01  0.622719044E-01
   H -0.339449384E+02 -0.294540895E+01  0.307102184E+01
   H  0.326665517E+02 -0.159034774E+01 -0.217534641E+01
     4
 # iter = 65000  time[fs]=65.00000
   C -0.802499806E+01  0.238616144E+00  0.101054236E+00
   C  0.733751820E+01  0.552525066E-01  0.633114549E-01
   H -0.343157843E+02 -0.297773551E+01  0.310485605E+01
   H  0.330226028E+02 -0.160772044E+01 -0.219891873E+01
     4
 # iter = 65500  time[fs]=65.50000
   C -0.812253967E+01  0.241497263E+00  0.101999182E+00
   C  0.742724848E+01  0.558407481E-01  0.643510940E-01
   H -0.346867056E+02 -0.301006955E+01  0.313869779E+01
   H  0.333787337E+02 -0.162509725E+01 -0.222249736E+01
     4
 # iter = 66000  time[fs]=66.00000
   C -0.822014703E+01  0.244379750E+00  0.102943936E+00
   C  0.751704416E+01  0.564285678E-01  0.653908234E-01
   H -0.350577007E+02 -0.304241092E+01  0.317254691E+01
   H  0.337349427E+02 -0.164247809E+01 -0.224608215E+01
     4
 # iter = 66500  time[fs]=66.50000
   C -0.831781857E+01  0.247263576E+00  0.103888499E+00
   C  0.760690367E+01  0.570159768E-01  0.664306443E-01
   H -0.354287682E+02 -0.307475947E+01  0.320640327E+01
   H  0.340912282E+02 -0.165986288E+01 -0.226967299E+01
     4
 # iter = 67000  time[fs]=67.00000
   C -0.841555277E+01  0.250148710E+00  0.104832873E+00
   C  0.769682550E+01  0.576029857E-01  0.674705582E-01
   H -0.357999065E+02 -0.310711505E+01  0.324026671E+01
   H  0.344475885E+02 -0.167725154E+01 -0.229326976E+01
     4
 # iter = 67500  time[fs]=67.50000
   C -0.851334818E+01  0.253035125E+00  0.105777057E+00
   C  0.778680821E+01  0.581896048E-01  0.685105660E-01
   H -0.361711141E+02 -0.313947752E+01  0.327413710E+01
   H  0.348040223E+02 -0.169464400E+01 -0.231687233E+01
     4
 # iter = 68000  time[fs]=68.00000
   C -0.861120339E+01  0.255922793E+00  0.106721054E+00
   C  0.787685039E+01  0.587758438E-01  0.695506688E-01
   H -0.365423898E+02 -0.317184676E+01  0.330801430E+01
   H  0.351605281E+02 -0.171204017E+01 -0.234048059E+01
     4
 # iter = 68500  time[fs]=68.50000
   C -0.870911703E+01  0.258811688E+00  0.107664863E+00
   C  0.796695068E+01  0.593617124E-01  0.705908675E-01
   H -0.369137322E+02 -0.320422263E+01  0.334189818E+01
   H  0.355171043E+02 -0.172944000E+01 -0.236409443E+01
     4
 # iter = 69000  time[fs]=69.00000
   C -0.880708779E+01  0.261701785E+00  0.108608486E+00
   C  0.805710777E+01  0.599472197E-01  0.716311627E-01
   H -0.372851398E+02 -0.323660500E+01  0.337578861E+01
   H  0.358737497E+02 -0.174684339E+01 -0.238771374E+01
     4
 # iter = 69500  time[fs]=69.50000
   C -0.890511438E+01  0.264593057E+00  0.109551924E+00
   C  0.814732039E+01  0.605323745E-01  0.726715550E-01
   H -0.376566116E+02 -0.326899374E+01  0.340968546E+01
   H  0.362304628E+02 -0.176425030E+01 -0.241133843E+01
     4
 # iter = 70000  time[fs]=70.00000
   C -0.900319558E+01  0.267485483E+00  0.110495178E+00
   C  0.823758731E+01  0.611171854E-01  0.737120451E-01
   H -0.380281461E+02 -0.330138875E+01  0.344358861E+01
   H  0.365872424E+02 -0.178166065E+01 -0.243496838E+01
     4
 # iter = 70500  time[fs]=70.50000
   C -0.910133020E+01  0.270379037E+00  0.111438249E+00
   C  0.832790735E+01  0.617016607E-01  0.747526333E-01
   H -0.383997423E+02 -0.333378989E+01  0.347749794E+01
   H  0.369440872E+02 -0.179907438E+01 -0.245860350E+01
     4
 # iter = 71000  time[fs]=71.00000
   C -0.919951707E+01  0.273273697E+00  0.112381139E+00
   C  0.841827935E+01  0.622858083E-01  0.757933199E-01
   H -0.387713990E+02 -0.336619707E+01  0.351141335E+01
   H  0.373009960E+02 -0.181649143E+01 -0.248224369E+01
     4
 # iter = 71500  time[fs]=71.50000
   C -0.929775508E+01  0.276169442E+00  0.113323848E+00
   C  0.850870220E+01  0.628696359E-01  0.768341053E-01
   H -0.391431149E+02 -0.339861016E+01  0.354533471E+01
   H  0.376579675E+02 -0.183391173E+01 -0.250588886E+01
     4
 # iter = 72000  time[fs]=72.00000
   C -0.939604314E+01  0.279066249E+00  0.114266379E+00
   C  0.859917482E+01  0.634531511E-01  0.778749896E-01
   H -0.395148891E+02 -0.343102906E+01  0.357926192E+01
   H  0.380150007E+02 -0.185133522E+01 -0.252953892E+01
     4
 # iter = 72500  time[fs]=72.50000
   C -0.949438021E+01  0.281964099E+00  0.115208732E+00
   C  0.868969616E+01  0.640363609E-01  0.789159729E-01
   H -0.398867204E+02 -0.346345367E+01  0.361319488E+01
   H  0.383720944E+02 -0.186876186E+01 -0.255319378E+01
     4
 # iter = 73000  time[fs]=73.00000
   C -0.959276526E+01  0.284862971E+00  0.116150908E+00
   C  0.878026522E+01  0.646192724E-01  0.799570553E-01
   H -0.402586079E+02 -0.349588388E+01  0.364713347E+01
   H  0.387292474E+02 -0.188619157E+01 -0.257685336E+01
     4
 # iter = 73500  time[fs]=73.50000
   C -0.969119730E+01  0.287762846E+00  0.117092910E+00
   C  0.887088100E+01  0.652018923E-01  0.809982368E-01
   H -0.406305504E+02 -0.352831959E+01  0.368107761E+01
   H  0.390864587E+02 -0.190362432E+01 -0.260051756E+01
     4
 # iter = 74000  time[fs]=74.00000
   C -0.978967538E+01  0.290663705E+00  0.118034739E+00
   C  0.896154256E+01  0.657842272E-01  0.820395173E-01
   H -0.410025470E+02 -0.356076071E+01  0.371502718E+01
   H  0.394437273E+02 -0.192106004E+01 -0.262418631E+01
     4
 # iter = 74500  time[fs]=74.50000
   C -0.988819857E+01  0.293565528E+00  0.118976395E+00
   C  0.905224896E+01  0.663662833E-01  0.830808967E-01
   H -0.413745967E+02 -0.359320715E+01  0.374898211E+01
   H  0.398010521E+02 -0.193849868E+01 -0.264785954E+01
     4
 # iter = 75000  time[fs]=75.00000
   C -0.998676596E+01  0.296468299E+00  0.119917880E+00
   C  0.914299932E+01  0.669480668E-01  0.841223749E-01
   H -0.417466987E+02 -0.362565881E+01  0.378294229E+01
   H  0.401584322E+02 -0.195594020E+01 -0.267153715E+01
     4
 # iter = 75500  time[fs]=75.50000
   C -0.100853767E+02  0.299371999E+00  0.120859197E+00
   C  0.923379275E+01  0.675295836E-01  0.851639516E-01
   H -0.421188519E+02 -0.365811560E+01  0.381690763E+01
   H  0.405158665E+02 -0.197338454E+01 -0.269521909E+01
     4
 # iter = 76000  time[fs]=76.00000
   C -0.101840299E+02  0.302276613E+00  0.121800345E+00
   C  0.932462842E+01  0.681108395E-01  0.862056267E-01
   H -0.424910555E+02 -0.369057744E+01  0.385087806E+01
   H  0.408733543E+02 -0.199083165E+01 -0.271890526E+01
     4
 # iter = 76500  time[fs]=76.50000
   C -0.102827247E+02  0.305182122E+00  0.122741327E+00
   C  0.941550550E+01  0.686918401E-01  0.872473998E-01
   H -0.428633087E+02 -0.372304424E+01  0.388485347E+01
   H  0.412308944E+02 -0.200828150E+01 -0.274259561E+01
     4
 # iter = 77000  time[fs]=77.00000
   C -0.103814605E+02  0.308088512E+00  0.123682145E+00
   C  0.950642319E+01  0.692725907E-01  0.882892707E-01
   H -0.432356105E+02 -0.375551591E+01  0.391883380E+01
   H  0.415884861E+02 -0.202573403E+01 -0.276629007E+01
     4
 # iter = 77500  time[fs]=77.50000
   C -0.104802362E+02  0.310995766E+00  0.124622799E+00
   C  0.959738072E+01  0.698530966E-01  0.893312389E-01
   H -0.436079602E+02 -0.378799239E+01  0.395281895E+01
   H  0.419461285E+02 -0.204318920E+01 -0.278998856E+01
     4
 # iter = 78000  time[fs]=78.00000
   C -0.105790513E+02  0.313903870E+00  0.125563291E+00
   C  0.968837733E+01  0.704333628E-01  0.903733042E-01
   H -0.439803570E+02 -0.382047359E+01  0.398680885E+01
   H  0.423038207E+02 -0.206064696E+01 -0.281369101E+01
     4
 # iter = 78500  time[fs]=78.50000
   C -0.106779050E+02  0.316812808E+00  0.126503622E+00
   C  0.977941228E+01  0.710133944E-01  0.914154662E-01
   H -0.443528001E+02 -0.385295943E+01  0.402080342E+01
   H  0.426615619E+02 -0.207810728E+01 -0.283739737E+01
     4
 # iter = 79000  time[fs]=79.00000
   C -0.107767965E+02  0.319722566E+00  0.127443794E+00
   C  0.987048487E+01  0.715931960E-01  0.924577244E-01
   H -0.447252886E+02 -0.388544983E+01  0.405480258E+01
   H  0.430193514E+02 -0.209557011E+01 -0.286110757E+01
     4
 # iter = 79500  time[fs]=79.50000
   C -0.108757252E+02  0.322633130E+00  0.128383809E+00
   C  0.996159441E+01  0.721727725E-01  0.935000783E-01
   H -0.450978220E+02 -0.391794474E+01  0.408880626E+01
   H  0.433771882E+02 -0.211303542E+01 -0.288482155E+01
     4
 # iter = 80000  time[fs]=80.00000
   C -0.109746904E+02  0.325544486E+00  0.129323668E+00
   C  0.100527402E+02  0.727521282E-01  0.945425276E-01
   H -0.454703994E+02 -0.395044406E+01  0.412281440E+01
   H  0.437350717E+02 -0.213050315E+01 -0.290853925E+01
