     4
 # iter = 25000  time[fs]=25.00000
   C -0.106730643E+01  0.412751643E-01  0.351923204E-01
   C  0.994058101E+00  0.253498727E-02 -0.265892846E-01
   H -0.531876282E+01 -0.564010141E+00 -0.562237281E+00
   H  0.538146862E+01  0.486994470E+00 -0.129557507E+00
     4
 # iter = 25500  time[fs]=25.50000
   C -0.112080284E+01  0.433499841E-01  0.384658662E-01
   C  0.103886435E+01  0.876337650E-03 -0.265727751E-01
   H -0.565332563E+01 -0.602502007E+00 -0.597485287E+00
   H  0.570219773E+01  0.517760263E+00 -0.135645464E+00
     4
 # iter = 26000  time[fs]=26.00000
   C -0.117757215E+01  0.455051047E-01  0.418602862E-01
   C  0.108694659E+01 -0.856824239E-03 -0.266485184E-01
   H -0.599050149E+01 -0.641314997E+00 -0.633031908E+00
   H  0.602550290E+01  0.548777717E+00 -0.141778263E+00
     4
 # iter = 26500  time[fs]=26.50000
   C -0.123732068E+01  0.477353461E-01  0.453646113E-01
   C  0.113800997E+01 -0.266007587E-02 -0.268087206E-01
   H -0.633000123E+01 -0.680413965E+00 -0.668843994E+00
   H  0.635110886E+01  0.580020777E+00 -0.147950951E+00
     4
 # iter = 27000  time[fs]=27.00000
   C -0.129977841E+01  0.500356983E-01  0.489689157E-01
   C  0.119178360E+01 -0.452902858E-02 -0.270461269E-01
   H -0.667158043E+01 -0.719769277E+00 -0.704893684E+00
   H  0.667878157E+01  0.611467264E+00 -0.154159338E+00
     4
 # iter = 27500  time[fs]=27.50000
   C -0.136469930E+01  0.524013726E-01  0.526642502E-01
   C  0.124802082E+01 -0.645940940E-02 -0.273540571E-01
   H -0.701503075E+01 -0.759355705E+00 -0.741157323E+00
   H  0.700832045E+01  0.643098140E+00 -0.160399848E+00
     4
 # iter = 28000  time[fs]=28.00000
   C -0.143186064E+01  0.548278376E-01  0.564425673E-01
   C  0.130649839E+01 -0.844711959E-02 -0.277264077E-01
   H -0.736017320E+01 -0.799151595E+00 -0.777614657E+00
   H  0.733955239E+01  0.674896941E+00 -0.166669412E+00
     4
 # iter = 28500  time[fs]=28.50000
   C -0.150106167E+01  0.573108410E-01  0.602966436E-01
   C  0.136701523E+01 -0.104882728E-01 -0.281576337E-01
   H -0.770685298E+01 -0.839138217E+00 -0.814248202E+00
   H  0.767232695E+01  0.706849329E+00 -0.172965371E+00
     4
 # iter = 29000  time[fs]=29.00000
   C -0.157212203E+01  0.598464184E-01  0.642200012E-01
   C  0.142939067E+01 -0.125792167E-01 -0.286427167E-01
   H -0.805493532E+01 -0.879299260E+00 -0.851042758E+00
   H  0.800651267E+01  0.738942739E+00 -0.179285409E+00
     4
 # iter = 29500  time[fs]=29.50000
   C -0.164487989E+01  0.624308920E-01  0.682068327E-01
   C  0.149346270E+01 -0.147165418E-01 -0.291771265E-01
   H -0.840430220E+01 -0.919620432E+00 -0.887985027E+00
   H  0.834199397E+01  0.771166099E+00 -0.185627499E+00
     4
 # iter = 30000  time[fs]=30.00000
   C -0.171919023E+01  0.650608629E-01  0.722519307E-01
   C  0.155908613E+01 -0.168970818E-01 -0.297567799E-01
   H -0.875484973E+01 -0.960089136E+00 -0.925063306E+00
   H  0.867866878E+01  0.803509600E+00 -0.191989856E+00
     4
 # iter = 30500  time[fs]=30.50000
   C -0.179492304E+01  0.677331990E-01  0.763506220E-01
   C  0.162613085E+01 -0.191179063E-01 -0.303779982E-01
   H -0.910648598E+01 -0.100069421E+01 -0.962267238E+00
   H  0.901644647E+01  0.835964507E+00 -0.198370898E+00
     4
 # iter = 31000  time[fs]=31.00000
   C -0.187196176E+01  0.704450187E-01  0.804987088E-01
   C  0.169448023E+01 -0.213763110E-01 -0.310374683E-01
   H -0.945912924E+01 -0.104142573E+01 -0.999587616E+00
   H  0.935524627E+01  0.868523015E+00 -0.204769222E+00
     4
 # iter = 31500  time[fs]=31.50000
   C -0.195020176E+01  0.731936747E-01  0.846924151E-01
   C  0.176402957E+01 -0.236698045E-01 -0.317322039E-01
   H -0.981270656E+01 -0.108227481E+01 -0.103701621E+01
   H  0.969499585E+01  0.901178112E+00 -0.211183571E+00
     4
 # iter = 32000  time[fs]=32.00000
   C -0.202954903E+01  0.759767361E-01  0.889283389E-01
   C  0.183468485E+01 -0.259960936E-01 -0.324595117E-01
   H -0.101671526E+02 -0.112323348E+01 -0.107454565E+01
   H  0.100356303E+02  0.933923480E+00 -0.217612821E+00
     4
 # iter = 32500  time[fs]=32.50000
   C -0.210991897E+01  0.787919711E-01  0.932034102E-01
   C  0.190636142E+01 -0.283530694E-01 -0.332169598E-01
   H -0.105224084E+02 -0.116429454E+01 -0.111216929E+01
   H  0.103770909E+02  0.966753406E+00 -0.224055960E+00
     4
 # iter = 33000  time[fs]=33.00000
   C -0.219123530E+01  0.816373307E-01  0.975148534E-01
   C  0.197898302E+01 -0.307387920E-01 -0.340023489E-01
   H -0.108784211E+02 -0.120545152E+01 -0.114988113E+01
   H  0.107193247E+02  0.999662704E+00 -0.230512076E+00
     4
 # iter = 33500  time[fs]=33.50000
   C -0.227342916E+01  0.845109325E-01  0.101860155E+00
   C  0.205248078E+01 -0.331514770E-01 -0.348136877E-01
   H -0.112351424E+02 -0.124669850E+01 -0.118767571E+01
   H  0.110622836E+02  0.103264665E+01 -0.236980340E+00
     4
 # iter = 34000  time[fs]=34.00000
   C -0.235643825E+01  0.874110464E-01  0.106237032E+00
   C  0.212679242E+01 -0.355894824E-01 -0.356491701E-01
   H -0.115925287E+02 -0.128803012E+01 -0.122554809E+01
   H  0.114059237E+02  0.106570094E+01 -0.243460001E+00
     4
 # iter = 34500  time[fs]=34.50000
   C -0.244020611E+01  0.903360804E-01  0.110643411E+00
   C  0.220186148E+01 -0.380512958E-01 -0.365071550E-01
   H -0.119505402E+02 -0.132944149E+01 -0.126349374E+01
   H  0.117502052E+02  0.109882163E+01 -0.249950373E+00
     4
 # iter = 35000  time[fs]=35.00000
   C -0.252468145E+01  0.932845687E-01  0.115077401E+00
   C  0.227763670E+01 -0.405355231E-01 -0.373861490E-01
   H -0.123091405E+02 -0.137092811E+01 -0.130150854E+01
   H  0.120950913E+02  0.113200509E+01 -0.256450831E+00
     4
 # iter = 35500  time[fs]=35.50000
   C -0.260981763E+01  0.962551597E-01  0.119537277E+00
   C  0.235407146E+01 -0.430408782E-01 -0.382847904E-01
   H -0.126682964E+02 -0.141248588E+01 -0.133958868E+01
   H  0.124405486E+02  0.116524800E+01 -0.262960802E+00
     4
 # iter = 36000  time[fs]=36.00000
   C -0.269557212E+01  0.992466063E-01  0.124021461E+00
   C  0.243112325E+01 -0.455661734E-01 -0.392018354E-01
   H -0.130279771E+02 -0.145411101E+01 -0.137773069E+01
   H  0.127865461E+02  0.119854728E+01 -0.269479760E+00
     4
 # iter = 36500  time[fs]=36.50000
   C -0.278190607E+01  0.102257756E+00  0.128528506E+00
   C  0.250875326E+01 -0.481103103E-01 -0.401361464E-01
   H -0.133881546E+02 -0.149580000E+01 -0.141593134E+01
   H  0.131330554E+02  0.123190009E+01 -0.276007220E+00
     4
 # iter = 37000  time[fs]=37.00000
   C -0.286878395E+01  0.105287542E+00  0.133057086E+00
   C  0.258692596E+01 -0.506722724E-01 -0.410866802E-01
   H -0.137488030E+02 -0.153754964E+01 -0.145418767E+01
   H  0.134800503E+02  0.126530381E+01 -0.282542736E+00
     4
 # iter = 37500  time[fs]=37.50000
   C -0.295617316E+01  0.108334977E+00  0.137605978E+00
   C  0.266560880E+01 -0.532511174E-01 -0.420524794E-01
   H -0.141098981E+02 -0.157935693E+01 -0.149249693E+01
   H  0.138275062E+02  0.129875599E+01 -0.289085894E+00
     4
 # iter = 38000  time[fs]=38.00000
   C -0.304404378E+01  0.111399145E+00  0.142174058E+00
   C  0.274477188E+01 -0.558459710E-01 -0.430326632E-01
   H -0.144714179E+02 -0.162121911E+01 -0.153085657E+01
   H  0.141754009E+02  0.133225437E+01 -0.295636314E+00
     4
 # iter = 38500  time[fs]=38.50000
   C -0.313236829E+01  0.114479195E+00  0.146760288E+00
   C  0.282438771E+01 -0.584560209E-01 -0.440264204E-01
   H -0.148333417E+02 -0.166313361E+01 -0.156926422E+01
   H  0.145237131E+02  0.136579683E+01 -0.302193640E+00
     4
 # iter = 39000  time[fs]=39.00000
   C -0.322112131E+01  0.117574335E+00  0.151363708E+00
   C  0.290443094E+01 -0.610805115E-01 -0.450330022E-01
   H -0.151956502E+02 -0.170509801E+01 -0.160771767E+01
   H  0.148724236E+02  0.139938141E+01 -0.308757544E+00
     4
 # iter = 39500  time[fs]=39.50000
   C -0.331027942E+01  0.120683828E+00  0.155983429E+00
   C  0.298487818E+01 -0.637187391E-01 -0.460517168E-01
   H -0.155583258E+02 -0.174711009E+01 -0.164621487E+01
   H  0.152215140E+02  0.143300627E+01 -0.315327717E+00
     4
 # iter = 40000  time[fs]=40.00000
   C -0.339982097E+01  0.123806989E+00  0.160618626E+00
   C  0.306570780E+01 -0.663700475E-01 -0.470819236E-01
   H -0.159213517E+02 -0.178916777E+01 -0.168475390E+01
   H  0.155709675E+02  0.146666968E+01 -0.321903876E+00
     4
 # iter = 40500  time[fs]=40.50000
   C -0.348972590E+01  0.126943176E+00  0.165268535E+00
   C  0.314689978E+01 -0.690338240E-01 -0.481230289E-01
   H -0.162847125E+02 -0.183126907E+01 -0.172333296E+01
   H  0.159207682E+02  0.150037004E+01 -0.328485751E+00
     4
 # iter = 41000  time[fs]=41.00000
   C -0.357997562E+01  0.130091789E+00  0.169932442E+00
   C  0.322843553E+01 -0.717094961E-01 -0.491744813E-01
   H -0.166483935E+02 -0.187341218E+01 -0.176195037E+01
   H  0.162709012E+02  0.153410582E+01 -0.335073095E+00
     4
 # iter = 41500  time[fs]=41.50000
   C -0.367055284E+01  0.133252270E+00  0.174609683E+00
   C  0.331029781E+01 -0.743965279E-01 -0.502357683E-01
   H -0.170123813E+02 -0.191559538E+01 -0.180060455E+01
   H  0.166213526E+02  0.156787560E+01 -0.341665672E+00
     4
 # iter = 42000  time[fs]=42.00000
   C -0.376144149E+01  0.136424091E+00  0.179299641E+00
   C  0.339247057E+01 -0.770944175E-01 -0.513064125E-01
   H -0.173766629E+02 -0.195781704E+01 -0.183929401E+01
   H  0.169721093E+02  0.160167805E+01 -0.348263264E+00
     4
 # iter = 42500  time[fs]=42.50000
   C -0.385262660E+01  0.139606762E+00  0.184001736E+00
   C  0.347493886E+01 -0.798026940E-01 -0.523859691E-01
   H -0.177412264E+02 -0.200007566E+01 -0.187801738E+01
   H  0.173231590E+02  0.163551191E+01 -0.354865665E+00
     4
 # iter = 43000  time[fs]=43.00000
   C -0.394409420E+01  0.142799820E+00  0.188715427E+00
   C  0.355768875E+01 -0.825209153E-01 -0.534740225E-01
   H -0.181060606E+02 -0.204236980E+01 -0.191677331E+01
   H  0.176744903E+02  0.166937598E+01 -0.361472681E+00
     4
 # iter = 43500  time[fs]=43.50000
   C -0.403583125E+01  0.146002831E+00  0.193440209E+00
   C  0.364070720E+01 -0.852486661E-01 -0.545701846E-01
   H -0.184711548E+02 -0.208469812E+01 -0.195556060E+01
   H  0.180260921E+02  0.170326915E+01 -0.368084129E+00
     4
 # iter = 44000  time[fs]=44.00000
   C -0.412782555E+01  0.149215386E+00  0.198175604E+00
   C  0.372398204E+01 -0.879855553E-01 -0.556740918E-01
   H -0.188364991E+02 -0.212705934E+01 -0.199437805E+01
   H  0.183779542E+02  0.173719034E+01 -0.374699839E+00
     4
 # iter = 44500  time[fs]=44.50000
   C -0.422006568E+01  0.152437100E+00  0.202921169E+00
   C  0.380750188E+01 -0.907312147E-01 -0.567854036E-01
   H -0.192020838E+02 -0.216945226E+01 -0.203322457E+01
   H  0.187300668E+02  0.177113857E+01 -0.381319647E+00
     4
 # iter = 45000  time[fs]=45.00000
   C -0.431254092E+01  0.155667611E+00  0.207676482E+00
   C  0.389125601E+01 -0.934852973E-01 -0.579038006E-01
   H -0.195679003E+02 -0.221187573E+01 -0.207209911E+01
   H  0.190824209E+02  0.180511287E+01 -0.387943401E+00
     4
 # iter = 45500  time[fs]=45.50000
   C -0.440524122E+01  0.158906576E+00  0.212441150E+00
   C  0.397523441E+01 -0.962474753E-01 -0.590289826E-01
   H -0.199339399E+02 -0.225432869E+01 -0.211100069E+01
   H  0.194350077E+02  0.183911236E+01 -0.394570956E+00
     4
 # iter = 46000  time[fs]=46.00000
   C -0.449815713E+01  0.162153673E+00  0.217214801E+00
   C  0.405942766E+01 -0.990174394E-01 -0.601606676E-01
   H -0.203001948E+02 -0.229681011E+01 -0.214992836E+01
   H  0.197878190E+02  0.187313616E+01 -0.401202175E+00
     4
 # iter = 46500  time[fs]=46.50000
   C -0.459127978E+01  0.165408595E+00  0.221997084E+00
   C  0.414382688E+01 -0.101794897E+00 -0.612985900E-01
   H -0.206666573E+02 -0.233931902E+01 -0.218888123E+01
   H  0.201408470E+02  0.190718347E+01 -0.407836929E+00
     4
 # iter = 47000  time[fs]=47.00000
   C -0.468460079E+01  0.168671052E+00  0.226787668E+00
   C  0.422842373E+01 -0.104579571E+00 -0.624424995E-01
   H -0.210333202E+02 -0.238185450E+01 -0.222785846E+01
   H  0.204940843E+02  0.194125351E+01 -0.414475093E+00
     4
 # iter = 47500  time[fs]=47.50000
   C -0.477811227E+01  0.171940773E+00  0.231586242E+00
   C  0.431321034E+01 -0.107371200E+00 -0.635921603E-01
   H -0.214001768E+02 -0.242441568E+01 -0.226685925E+01
   H  0.208475238E+02  0.197534556E+01 -0.421116552E+00
     4
 # iter = 48000  time[fs]=48.00000
   C -0.487180679E+01  0.175217495E+00  0.236392508E+00
   C  0.439817929E+01 -0.110169534E+00 -0.647473495E-01
   H -0.217672206E+02 -0.246700171E+01 -0.230588284E+01
   H  0.212011589E+02  0.200945890E+01 -0.427761194E+00
     4
 # iter = 48500  time[fs]=48.50000
   C -0.496567732E+01  0.178500974E+00  0.241206187E+00
   C  0.448332356E+01 -0.112974339E+00 -0.659078565E-01
   H -0.221344454E+02 -0.250961182E+01 -0.234492848E+01
   H  0.215549831E+02  0.204359288E+01 -0.434408914E+00
     4
 # iter = 49000  time[fs]=49.00000
   C -0.505971720E+01  0.181790975E+00  0.246027014E+00
   C  0.456863652E+01 -0.115785389E+00 -0.670734824E-01
   H -0.225018454E+02 -0.255224523E+01 -0.238399550E+01
   H  0.219089905E+02  0.207774686E+01 -0.441059611E+00
     4
 # iter = 49500  time[fs]=49.50000
   C -0.515392015E+01  0.185087277E+00  0.250854738E+00
   C  0.465411190E+01 -0.118602473E+00 -0.682440385E-01
   H -0.228694150E+02 -0.259490125E+01 -0.242308323E+01
   H  0.222631753E+02  0.211192022E+01 -0.447713190E+00
     4
 # iter = 50000  time[fs]=50.00000
   C -0.524828021E+01  0.188389667E+00  0.255689119E+00
   C  0.473974376E+01 -0.121425387E+00 -0.694193462E-01
   H -0.232371487E+02 -0.263757916E+01 -0.246219104E+01
   H  0.226175319E+02  0.214611240E+01 -0.454369560E+00
     4
 # iter = 50500  time[fs]=50.50000
   C -0.534279174E+01  0.191697945E+00  0.260529931E+00
   C  0.482552647E+01 -0.124253940E+00 -0.705992361E-01
   H -0.236050417E+02 -0.268027833E+01 -0.250131833E+01
   H  0.229720552E+02  0.218032284E+01 -0.461028634E+00
     4
 # iter = 51000  time[fs]=51.00000
   C -0.543744939E+01  0.195011919E+00  0.265376958E+00
   C  0.491145468E+01 -0.127087948E+00 -0.717835475E-01
   H -0.239730890E+02 -0.272299811E+01 -0.254046452E+01
   H  0.233267400E+02  0.221455100E+01 -0.467690329E+00
     4
 # iter = 51500  time[fs]=51.50000
   C -0.553224806E+01  0.198331406E+00  0.270229994E+00
   C  0.499752334E+01 -0.129927236E+00 -0.729721276E-01
   H -0.243412860E+02 -0.276573792E+01 -0.257962906E+01
   H  0.236815816E+02  0.224879638E+01 -0.474354566E+00
     4
 # iter = 52000  time[fs]=52.00000
   C -0.562718292E+01  0.201656233E+00  0.275088845E+00
   C  0.508372761E+01 -0.132771637E+00 -0.741648314E-01
   H -0.247096283E+02 -0.280849717E+01 -0.261881142E+01
   H  0.240365754E+02  0.228305849E+01 -0.481021269E+00
     4
 # iter = 52500  time[fs]=52.50000
   C -0.572224939E+01  0.204986234E+00  0.279953325E+00
   C  0.517006292E+01 -0.135620992E+00 -0.753615206E-01
   H -0.250781117E+02 -0.285127532E+01 -0.265801111E+01
   H  0.243917170E+02  0.231733687E+01 -0.487690365E+00
     4
 # iter = 53000  time[fs]=53.00000
   C -0.581744308E+01  0.208321249E+00  0.284823255E+00
   C  0.525652491E+01 -0.138475150E+00 -0.765620639E-01
   H -0.254467320E+02 -0.289407184E+01 -0.269722763E+01
   H  0.247470023E+02  0.235163107E+01 -0.494361786E+00
     4
 # iter = 53500  time[fs]=53.50000
   C -0.591275983E+01  0.211661127E+00  0.289698467E+00
   C  0.534310942E+01 -0.141333965E+00 -0.777663360E-01
   H -0.258154855E+02 -0.293688623E+01 -0.273646053E+01
   H  0.251024271E+02  0.238594066E+01 -0.501035465E+00
     4
 # iter = 54000  time[fs]=54.00000
   C -0.600819568E+01  0.215005723E+00  0.294578798E+00
   C  0.542981249E+01 -0.144197298E+00 -0.789742175E-01
   H -0.261843684E+02 -0.297971799E+01 -0.277570935E+01
   H  0.254579876E+02  0.242026524E+01 -0.507711339E+00
     4
 # iter = 54500  time[fs]=54.50000
   C -0.610374683E+01  0.218354899E+00  0.299464095E+00
   C  0.551663036E+01 -0.147065017E+00 -0.801855944E-01
   H -0.265533771E+02 -0.302256667E+01 -0.281497368E+01
   H  0.258136801E+02  0.245460440E+01 -0.514389347E+00
     4
 # iter = 55000  time[fs]=55.00000
   C -0.619940968E+01  0.221708521E+00  0.304354209E+00
   C  0.560355942E+01 -0.149936994E+00 -0.814003580E-01
   H -0.269225082E+02 -0.306543182E+01 -0.285425310E+01
   H  0.261695011E+02  0.248895777E+01 -0.521069429E+00
     4
 # iter = 55500  time[fs]=55.50000
   C -0.629518078E+01  0.225066463E+00  0.309248999E+00
   C  0.569059623E+01 -0.152813107E+00 -0.826184045E-01
   H -0.272917585E+02 -0.310831300E+01 -0.289354722E+01
   H  0.265254472E+02  0.252332499E+01 -0.527751531E+00
     4
 # iter = 56000  time[fs]=56.00000
   C -0.639105682E+01  0.228428603E+00  0.314148329E+00
   C  0.577773750E+01 -0.155693241E+00 -0.838396345E-01
   H -0.276611247E+02 -0.315120981E+01 -0.293285566E+01
   H  0.268815150E+02  0.255770569E+01 -0.534435598E+00
     4
 # iter = 56500  time[fs]=56.50000
   C -0.648703466E+01  0.231794823E+00  0.319052071E+00
   C  0.586498011E+01 -0.158577281E+00 -0.850639531E-01
   H -0.280306039E+02 -0.319412185E+01 -0.297217806E+01
   H  0.272377014E+02  0.259209955E+01 -0.541121579E+00
     4
 # iter = 57000  time[fs]=57.00000
   C -0.658311128E+01  0.235165011E+00  0.323960100E+00
   C  0.595232103E+01 -0.161465123E+00 -0.862912694E-01
   H -0.284001931E+02 -0.323704874E+01 -0.301151407E+01
   H  0.275940035E+02  0.262650624E+01 -0.547809424E+00
     4
 # iter = 57500  time[fs]=57.50000
   C -0.667928380E+01  0.238539061E+00  0.328872297E+00
   C  0.603975740E+01 -0.164356661E+00 -0.875214964E-01
   H -0.287698896E+02 -0.327999011E+01 -0.305086334E+01
   H  0.279504181E+02  0.266092545E+01 -0.554499084E+00
     4
 # iter = 58000  time[fs]=58.00000
   C -0.677554944E+01  0.241916867E+00  0.333788547E+00
   C  0.612728645E+01 -0.167251798E+00 -0.887545506E-01
   H -0.291396906E+02 -0.332294560E+01 -0.309022556E+01
   H  0.283069426E+02  0.269535686E+01 -0.561190515E+00
     4
 # iter = 58500  time[fs]=58.50000
   C -0.687190557E+01  0.245298332E+00  0.338708741E+00
   C  0.621490555E+01 -0.170150437E+00 -0.899903522E-01
   H -0.295095936E+02 -0.336591487E+01 -0.312960041E+01
   H  0.286635743E+02  0.272980021E+01 -0.567883671E+00
     4
 # iter = 59000  time[fs]=59.00000
   C -0.696834963E+01  0.248683360E+00  0.343632773E+00
   C  0.630261216E+01 -0.173052489E+00 -0.912288245E-01
   H -0.298795959E+02 -0.340889760E+01 -0.316898759E+01
   H  0.290203105E+02  0.276425519E+01 -0.574578510E+00
     4
 # iter = 59500  time[fs]=59.50000
   C -0.706487920E+01  0.252071857E+00  0.348560543E+00
   C  0.639040386E+01 -0.175957863E+00 -0.924698939E-01
   H -0.302496954E+02 -0.345189347E+01 -0.320838681E+01
   H  0.293771487E+02  0.279872154E+01 -0.581274991E+00
     4
 # iter = 60000  time[fs]=60.00000
   C -0.716149192E+01  0.255463737E+00  0.353491952E+00
   C  0.647827831E+01 -0.178866476E+00 -0.937134897E-01
   H -0.306198895E+02 -0.349490216E+01 -0.324779779E+01
   H  0.297340866E+02  0.283319900E+01 -0.587973074E+00
     4
 # iter = 60500  time[fs]=60.50000
   C -0.725818556E+01  0.258858914E+00  0.358426907E+00
   C  0.656623327E+01 -0.181778247E+00 -0.949595442E-01
   H -0.309901760E+02 -0.353792339E+01 -0.328722025E+01
   H  0.300911216E+02  0.286768732E+01 -0.594672721E+00
     4
 # iter = 61000  time[fs]=61.00000
   C -0.735495795E+01  0.262257306E+00  0.363365319E+00
   C  0.665426659E+01 -0.184693096E+00 -0.962079921E-01
   H -0.313605529E+02 -0.358095687E+01 -0.332665394E+01
   H  0.304482517E+02  0.290218625E+01 -0.601373895E+00
     4
 # iter = 61500  time[fs]=61.50000
   C -0.745180702E+01  0.265658834E+00  0.368307099E+00
   C  0.674237621E+01 -0.187610947E+00 -0.974587706E-01
   H -0.317310180E+02 -0.362400232E+01 -0.336609860E+01
   H  0.308054746E+02  0.293669556E+01 -0.608076560E+00
     4
 # iter = 62000  time[fs]=62.00000
   C -0.754873077E+01  0.269063422E+00  0.373252165E+00
   C  0.683056013E+01 -0.190531729E+00 -0.987118194E-01
   H -0.321015692E+02 -0.366705947E+01 -0.340555398E+01
   H  0.311627882E+02  0.297121501E+01 -0.614780682E+00
     4
 # iter = 62500  time[fs]=62.50000
   C -0.764572728E+01  0.272470996E+00  0.378200437E+00
   C  0.691881644E+01 -0.193455370E+00 -0.999670805E-01
   H -0.324722047E+02 -0.371012808E+01 -0.344501986E+01
   H  0.315201904E+02  0.300574439E+01 -0.621486228E+00
     4
 # iter = 63000  time[fs]=63.00000
   C -0.774279469E+01  0.275881485E+00  0.383151835E+00
   C  0.700714329E+01 -0.196381803E+00 -0.101224498E+00
   H -0.328429225E+02 -0.375320788E+01 -0.348449600E+01
   H  0.318776794E+02  0.304028349E+01 -0.628193166E+00
     4
 # iter = 63500  time[fs]=63.50000
   C -0.783993124E+01  0.279294821E+00  0.388106287E+00
   C  0.709553892E+01 -0.199310962E+00 -0.102484018E+00
   H -0.332137209E+02 -0.379629863E+01 -0.352398217E+01
   H  0.322352532E+02  0.307483209E+01 -0.634901464E+00
     4
 # iter = 64000  time[fs]=64.00000
   C -0.793713519E+01  0.282710937E+00  0.393063718E+00
   C  0.718400161E+01 -0.202242784E+00 -0.103745588E+00
   H -0.335845980E+02 -0.383940011E+01 -0.356347817E+01
   H  0.325929099E+02  0.310938999E+01 -0.641611093E+00
     4
 # iter = 64500  time[fs]=64.50000
   C -0.803440490E+01  0.286129771E+00  0.398024060E+00
   C  0.727252971E+01 -0.205177207E+00 -0.105009159E+00
   H -0.339555522E+02 -0.388251208E+01 -0.360298380E+01
   H  0.329506478E+02  0.314395701E+01 -0.648322024E+00
     4
 # iter = 65000  time[fs]=65.00000
   C -0.813173877E+01  0.289551260E+00  0.402987245E+00
   C  0.736112164E+01 -0.208114172E+00 -0.106274683E+00
   H -0.343265818E+02 -0.392563433E+01 -0.364249883E+01
   H  0.333084651E+02  0.317853295E+01 -0.655034228E+00
     4
 # iter = 65500  time[fs]=65.50000
   C -0.822913527E+01  0.292975345E+00  0.407953208E+00
   C  0.744977585E+01 -0.211053623E+00 -0.107542112E+00
   H -0.346976852E+02 -0.396876665E+01 -0.368202309E+01
   H  0.336663602E+02  0.321311763E+01 -0.661747678E+00
     4
 # iter = 66000  time[fs]=66.00000
   C -0.832659289E+01  0.296401967E+00  0.412921887E+00
   C  0.753849088E+01 -0.213995505E+00 -0.108811401E+00
   H -0.350688608E+02 -0.401190882E+01 -0.372155639E+01
   H  0.340243315E+02  0.324771088E+01 -0.668462348E+00
     4
 # iter = 66500  time[fs]=66.50000
   C -0.842411022E+01  0.299831072E+00  0.417893219E+00
   C  0.762726528E+01 -0.216939762E+00 -0.110082508E+00
   H -0.354401072E+02 -0.405506065E+01 -0.376109853E+01
   H  0.343823773E+02  0.328231251E+01 -0.675178213E+00
     4
 # iter = 67000  time[fs]=67.00000
   C -0.852168586E+01  0.303262604E+00  0.422867148E+00
   C  0.771609769E+01 -0.219886345E+00 -0.111355391E+00
   H -0.358114230E+02 -0.409822195E+01 -0.380064935E+01
   H  0.347404962E+02  0.331692238E+01 -0.681895247E+00
     4
 # iter = 67500  time[fs]=67.50000
   C -0.861931847E+01  0.306696513E+00  0.427843615E+00
   C  0.780498677E+01 -0.222835203E+00 -0.112630008E+00
   H -0.361828066E+02 -0.414139252E+01 -0.384020866E+01
   H  0.350986867E+02  0.335154031E+01 -0.688613427E+00
     4
 # iter = 68000  time[fs]=68.00000
   C -0.871700677E+01  0.310132746E+00  0.432822565E+00
   C  0.789393123E+01 -0.225786287E+00 -0.113906320E+00
   H -0.365542567E+02 -0.418457219E+01 -0.387977632E+01
   H  0.354569473E+02  0.338616615E+01 -0.695332729E+00
     4
 # iter = 68500  time[fs]=68.50000
   C -0.881474950E+01  0.313571256E+00  0.437803946E+00
   C  0.798292982E+01 -0.228739550E+00 -0.115184291E+00
   H -0.369257720E+02 -0.422776077E+01 -0.391935214E+01
   H  0.358152767E+02  0.342079974E+01 -0.702053131E+00
     4
 # iter = 69000  time[fs]=69.00000
   C -0.891254545E+01  0.317011995E+00  0.442787705E+00
   C  0.807198134E+01 -0.231694947E+00 -0.116463882E+00
   H -0.372973513E+02 -0.427095810E+01 -0.395893597E+01
   H  0.361736735E+02  0.345544095E+01 -0.708774611E+00
     4
 # iter = 69500  time[fs]=69.50000
   C -0.901039345E+01  0.320454916E+00  0.447773793E+00
   C  0.816108462E+01 -0.234652435E+00 -0.117745059E+00
   H -0.376689932E+02 -0.431416400E+01 -0.399852767E+01
   H  0.365321364E+02  0.349008961E+01 -0.715497147E+00
     4
 # iter = 70000  time[fs]=70.00000
   C -0.910829236E+01  0.323899975E+00  0.452762162E+00
   C  0.825023854E+01 -0.237611969E+00 -0.119027787E+00
   H -0.380406965E+02 -0.435737833E+01 -0.403812708E+01
   H  0.368906641E+02  0.352474560E+01 -0.722220720E+00
     4
 # iter = 70500  time[fs]=70.50000
   C -0.920624109E+01  0.327347129E+00  0.457752763E+00
   C  0.833944199E+01 -0.240573508E+00 -0.120312034E+00
   H -0.384124602E+02 -0.440060091E+01 -0.407773405E+01
   H  0.372492554E+02  0.355940879E+01 -0.728945308E+00
     4
 # iter = 71000  time[fs]=71.00000
   C -0.930423858E+01  0.330796335E+00  0.462745552E+00
   C  0.842869393E+01 -0.243537013E+00 -0.121597765E+00
   H -0.387842829E+02 -0.444383159E+01 -0.411734845E+01
   H  0.376079091E+02  0.359407902E+01 -0.735670893E+00
     4
 # iter = 71500  time[fs]=71.50000
   C -0.940228379E+01  0.334247553E+00  0.467740485E+00
   C  0.851799333E+01 -0.246502444E+00 -0.122884952E+00
   H -0.391561636E+02 -0.448707023E+01 -0.415697014E+01
   H  0.379666240E+02  0.362875619E+01 -0.742397456E+00
     4
 # iter = 72000  time[fs]=72.00000
   C -0.950037573E+01  0.337700743E+00  0.472737518E+00
   C  0.860733919E+01 -0.249469764E+00 -0.124173563E+00
   H -0.395281013E+02 -0.453031668E+01 -0.419659899E+01
   H  0.383253990E+02  0.366344016E+01 -0.749124978E+00
     4
 # iter = 72500  time[fs]=72.50000
   C -0.959851343E+01  0.341155868E+00  0.477736610E+00
   C  0.869673055E+01 -0.252438935E+00 -0.125463568E+00
   H -0.399000948E+02 -0.457357080E+01 -0.423623486E+01
   H  0.386842330E+02  0.369813081E+01 -0.755853441E+00
     4
 # iter = 73000  time[fs]=73.00000
   C -0.969669594E+01  0.344612888E+00  0.482737721E+00
   C  0.878616648E+01 -0.255409921E+00 -0.126754940E+00
   H -0.402721432E+02 -0.461683246E+01 -0.427587764E+01
   H  0.390431249E+02  0.373282802E+01 -0.762582828E+00
     4
 # iter = 73500  time[fs]=73.50000
   C -0.979492237E+01  0.348071769E+00  0.487740811E+00
   C  0.887564606E+01 -0.258382689E+00 -0.128047651E+00
   H -0.406442455E+02 -0.466010151E+01 -0.431552720E+01
   H  0.394020736E+02  0.376753169E+01 -0.769313122E+00
     4
 # iter = 74000  time[fs]=74.00000
   C -0.989319183E+01  0.351532474E+00  0.492745842E+00
   C  0.896516843E+01 -0.261357204E+00 -0.129341674E+00
   H -0.410164006E+02 -0.470337782E+01 -0.435518342E+01
   H  0.397610782E+02  0.380224169E+01 -0.776044307E+00
     4
 # iter = 74500  time[fs]=74.50000
   C -0.999150346E+01  0.354994970E+00  0.497752778E+00
   C  0.905473272E+01 -0.264333433E+00 -0.130636983E+00
   H -0.413886077E+02 -0.474666128E+01 -0.439484618E+01
   H  0.401201377E+02  0.383695791E+01 -0.782776367E+00
     4
 # iter = 75000  time[fs]=75.00000
   C -0.100898564E+02  0.358459223E+00  0.502761582E+00
   C  0.914433811E+01 -0.267311344E+00 -0.131933552E+00
   H -0.417608657E+02 -0.478995176E+01 -0.443451537E+01
   H  0.404792511E+02  0.387168026E+01 -0.789509286E+00
     4
 # iter = 75500  time[fs]=75.50000
   C -0.101882499E+02  0.361925201E+00  0.507772219E+00
   C  0.923398380E+01 -0.270290907E+00 -0.133231358E+00
   H -0.421331739E+02 -0.483324914E+01 -0.447419088E+01
   H  0.408384174E+02  0.390640862E+01 -0.796243048E+00
     4
 # iter = 76000  time[fs]=76.00000
   C -0.102866832E+02  0.365392873E+00  0.512784655E+00
   C  0.932366900E+01 -0.273272091E+00 -0.134530376E+00
   H -0.425055314E+02 -0.487655330E+01 -0.451387260E+01
   H  0.411976357E+02  0.394114289E+01 -0.802977640E+00
     4
 # iter = 76500  time[fs]=76.50000
   C -0.103851554E+02  0.368862207E+00  0.517798857E+00
   C  0.941339295E+01 -0.276254867E+00 -0.135830584E+00
   H -0.428779373E+02 -0.491986412E+01 -0.455356044E+01
   H  0.415569052E+02  0.397588299E+01 -0.809713046E+00
     4
 # iter = 77000  time[fs]=77.00000
   C -0.104836658E+02  0.372333174E+00  0.522814794E+00
   C  0.950315491E+01 -0.279239206E+00 -0.137131958E+00
   H -0.432503907E+02 -0.496318150E+01 -0.459325428E+01
   H  0.419162249E+02  0.401062880E+01 -0.816449253E+00
     4
 # iter = 77500  time[fs]=77.50000
   C -0.105822138E+02  0.375805744E+00  0.527832433E+00
   C  0.959295418E+01 -0.282225080E+00 -0.138434477E+00
   H -0.436228910E+02 -0.500650532E+01 -0.463295402E+01
   H  0.422755941E+02  0.404538024E+01 -0.823186247E+00
     4
 # iter = 78000  time[fs]=78.00000
   C -0.106807986E+02  0.379279890E+00  0.532851744E+00
   C  0.968279004E+01 -0.285212462E+00 -0.139738119E+00
   H -0.439954372E+02 -0.504983548E+01 -0.467265958E+01
   H  0.426350119E+02  0.408013721E+01 -0.829924014E+00
     4
 # iter = 78500  time[fs]=78.50000
   C -0.107794195E+02  0.382755584E+00  0.537872698E+00
   C  0.977266182E+01 -0.288201327E+00 -0.141042864E+00
   H -0.443680286E+02 -0.509317188E+01 -0.471237085E+01
   H  0.429944775E+02  0.411489963E+01 -0.836662543E+00
     4
 # iter = 79000  time[fs]=79.00000
   C -0.108780759E+02  0.386232798E+00  0.542895265E+00
   C  0.986256886E+01 -0.291191647E+00 -0.142348692E+00
   H -0.447406645E+02 -0.513651442E+01 -0.475208774E+01
   H  0.433539901E+02  0.414966740E+01 -0.843401819E+00
     4
 # iter = 79500  time[fs]=79.50000
   C -0.109767672E+02  0.389711508E+00  0.547919417E+00
   C  0.995251053E+01 -0.294183398E+00 -0.143655583E+00
   H -0.451133442E+02 -0.517986300E+01 -0.479181017E+01
   H  0.437135490E+02  0.418444045E+01 -0.850141831E+00
     4
 # iter = 80000  time[fs]=80.00000
   C -0.110754926E+02  0.393191686E+00  0.552945128E+00
   C  0.100424862E+02 -0.297176557E+00 -0.144963518E+00
   H -0.454860669E+02 -0.522321751E+01 -0.483153804E+01
   H  0.440731534E+02  0.421921869E+01 -0.856882567E+00
