     4
 # iter = 25000  time[fs]=25.00000
   C -0.950849295E+00  0.155108067E-01 -0.183512756E-01
   C  0.100137150E+01 -0.432004125E-01 -0.330772146E-01
   H -0.515820655E+01 -0.799067912E-01  0.617550422E+00
   H  0.522005642E+01  0.529419425E+00 -0.607245537E+00
     4
 # iter = 25500  time[fs]=25.50000
   C -0.995192960E+00  0.159515176E-01 -0.201144265E-01
   C  0.104567536E+01 -0.461098002E-01 -0.308387592E-01
   H -0.548542336E+01 -0.867170296E-01  0.658272297E+00
   H  0.553446377E+01  0.563682187E+00 -0.642500969E+00
     4
 # iter = 26000  time[fs]=26.00000
   C -0.104355735E+01  0.165142807E-01 -0.218705124E-01
   C  0.109400294E+01 -0.491617284E-01 -0.286104992E-01
   H -0.581538677E+01 -0.935868067E-01  0.699363408E+00
   H  0.585158172E+01  0.598250345E+00 -0.678088069E+00
     4
 # iter = 26500  time[fs]=26.50000
   C -0.109559020E+01  0.171894953E-01 -0.236275647E-01
   C  0.114600080E+01 -0.523444085E-01 -0.263839207E-01
   H -0.614778996E+01 -0.100509968E+00  0.740782269E+00
   H  0.617111767E+01  0.633091495E+00 -0.713971148E+00
     4
 # iter = 27000  time[fs]=27.00000
   C -0.115096088E+01  0.179679793E-01 -0.253917861E-01
   C  0.120133743E+01 -0.556468089E-01 -0.241524355E-01
   H -0.648237419E+01 -0.107481301E+00  0.782494084E+00
   H  0.649282330E+01  0.668178226E+00 -0.750120031E+00
     4
 # iter = 27500  time[fs]=27.50000
   C -0.120936371E+01  0.188410974E-01 -0.271678242E-01
   C  0.125970653E+01 -0.590587158E-01 -0.219110841E-01
   H -0.681891932E+01 -0.114496344E+00  0.824469370E+00
   H  0.681648617E+01  0.703487136E+00 -0.786508978E+00
     4
 # iter = 28000  time[fs]=28.00000
   C -0.127051918E+01  0.198008312E-01 -0.289590482E-01
   C  0.132082809E+01 -0.625707519E-01 -0.196562424E-01
   H -0.715723658E+01 -0.121551248E+00  0.866682925E+00
   H  0.714192317E+01  0.738998070E+00 -0.823115847E+00
     4
 # iter = 28500  time[fs]=28.50000
   C -0.133417375E+01  0.208398053E-01 -0.307678025E-01
   C  0.138444824E+01 -0.661743641E-01 -0.173853549E-01
   H -0.749716291E+01 -0.128642665E+00  0.909113032E+00
   H  0.746897543E+01  0.774693544E+00 -0.859921455E+00
     4
 # iter = 29000  time[fs]=29.00000
   C -0.140009877E+01  0.219512841E-01 -0.325956264E-01
   C  0.145033806E+01 -0.698617879E-01 -0.150967062E-01
   H -0.783855655E+01 -0.135767663E+00  0.951740844E+00
   H  0.779750426E+01  0.810558284E+00 -0.896909067E+00
     4
 # iter = 29500  time[fs]=29.50000
   C -0.146808878E+01  0.231291463E-01 -0.344434387E-01
   C  0.151829192E+01 -0.736259987E-01 -0.127892290E-01
   H -0.818129349E+01 -0.142923659E+00  0.994549894E+00
   H  0.812738788E+01  0.846578865E+00 -0.934063996E+00
     4
 # iter = 30000  time[fs]=30.00000
   C -0.153795965E+01  0.243678485E-01 -0.363116869E-01
   C  0.158812555E+01 -0.774606551E-01 -0.104623500E-01
   H -0.852526463E+01 -0.150108365E+00  0.103752571E+01
   H  0.845851882E+01  0.882743422E+00 -0.971373282E+00
     4
 # iter = 30500  time[fs]=30.50000
   C -0.160954657E+01  0.256623817E-01 -0.382004660E-01
   C  0.165967403E+01 -0.813600396E-01 -0.811586624E-02
   H -0.887037356E+01 -0.157319741E+00  0.108065549E+01
   H  0.879080177E+01  0.919041415E+00 -0.100882543E+01
     4
 # iter = 31000  time[fs]=31.00000
   C -0.168270206E+01  0.270082254E-01 -0.401096129E-01
   C  0.173278985E+01 -0.853189995E-01 -0.574984838E-02
   H -0.921653461E+01 -0.164555964E+00  0.112392790E+01
   H  0.912415183E+01  0.955463433E+00 -0.104641018E+01
     4
 # iter = 31500  time[fs]=31.50000
   C -0.175729417E+01  0.284013020E-01 -0.420387782E-01
   C  0.180734099E+01 -0.893328908E-01 -0.336456553E-02
   H -0.956367138E+01 -0.171815394E+00  0.116733278E+01
   H  0.945849308E+01  0.992001042E+00 -0.108411838E+01
     4
 # iter = 32000  time[fs]=32.00000
   C -0.183320471E+01  0.298379329E-01 -0.439874821E-01
   C  0.188320925E+01 -0.933975256E-01 -0.960427592E-03
   H -0.991171540E+01 -0.179096553E+00  0.121086105E+01
   H  0.979375732E+01  0.102864665E+01 -0.112194176E+01
     4
 # iter = 32500  time[fs]=32.50000
   C -0.191032772E+01  0.313147978E-01 -0.459551569E-01
   C  0.196028866E+01 -0.975091235E-01  0.146205885E-02
   H -0.102606051E+02 -0.186398100E+00  0.125450455E+01
   H  0.101298831E+02  0.106539339E+01 -0.115987290E+01
     4
 # iter = 33000  time[fs]=33.00000
   C -0.198856807E+01  0.328288972E-01 -0.479411789E-01
   C  0.203848409E+01 -0.101664268E+00  0.390232384E-02
   H -0.106102850E+02 -0.193718820E+00  0.129825589E+01
   H  0.104668149E+02  0.110223506E+01 -0.119790506E+01
     4
 # iter = 33500  time[fs]=33.50000
   C -0.206784021E+01  0.343775177E-01 -0.499448923E-01
   C  0.211771001E+01 -0.105859867E+00  0.635975912E-02
   H -0.109607048E+02 -0.201057603E+00  0.134210838E+01
   H  0.108045022E+02  0.113916598E+01 -0.123603212E+01
     4
 # iter = 34000  time[fs]=34.00000
   C -0.214806709E+01  0.359582022E-01 -0.519656271E-01
   C  0.219788938E+01 -0.110093117E+00  0.883373671E-02
   H -0.113118188E+02 -0.208413434E+00  0.138605595E+01
   H  0.111428992E+02  0.117618101E+01 -0.127424850E+01
     4
 # iter = 34500  time[fs]=34.50000
   C -0.222917916E+01  0.375687216E-01 -0.540027119E-01
   C  0.227895266E+01 -0.114361475E+00  0.113236227E-01
   H -0.116635854E+02 -0.215785385E+00  0.143009305E+01
   H  0.114819641E+02  0.121327541E+01 -0.131254912E+01
     4
 # iter = 35000  time[fs]=35.00000
   C -0.231111353E+01  0.392070506E-01 -0.560554832E-01
   C  0.236083699E+01 -0.118662623E+00  0.138287872E-01
   H -0.120159666E+02 -0.223172599E+00  0.147421461E+01
   H  0.118216586E+02  0.125044487E+01 -0.135092930E+01
     4
 # iter = 35500  time[fs]=35.50000
   C -0.239381321E+01  0.408713461E-01 -0.581232923E-01
   C  0.244348542E+01 -0.122994455E+00  0.163486115E-01
   H -0.123689276E+02 -0.230574290E+00  0.151841599E+01
   H  0.121619475E+02  0.128768539E+01 -0.138938476E+01
     4
 # iter = 36000  time[fs]=36.00000
   C -0.247722649E+01  0.425599280E-01 -0.602055097E-01
   C  0.252684625E+01 -0.127355042E+00  0.188824930E-01
   H -0.127224365E+02 -0.237989731E+00  0.156269292E+01
   H  0.125027987E+02  0.132499330E+01 -0.142791156E+01
     4
 # iter = 36500  time[fs]=36.50000
   C -0.256130631E+01  0.442712616E-01 -0.623015279E-01
   C  0.261087246E+01 -0.131742626E+00  0.214298489E-01
   H -0.130764640E+02 -0.245418249E+00  0.160704145E+01
   H  0.128441823E+02  0.136236521E+01 -0.146650604E+01
     4
 # iter = 37000  time[fs]=37.00000
   C -0.264600979E+01  0.460039433E-01 -0.644107636E-01
   C  0.269552119E+01 -0.136155591E+00  0.239901176E-01
   H -0.134309828E+02 -0.252859218E+00  0.165145795E+01
   H  0.131860710E+02  0.139979799E+01 -0.150516485E+01
     4
 # iter = 37500  time[fs]=37.50000
   C -0.273129776E+01  0.477566863E-01 -0.665326582E-01
   C  0.278075331E+01 -0.140592458E+00  0.265627609E-01
   H -0.137859679E+02 -0.260312060E+00  0.169593907E+01
   H  0.135284393E+02  0.143728872E+01 -0.154388485E+01
     4
 # iter = 38000  time[fs]=38.00000
   C -0.281713441E+01  0.495283098E-01 -0.686666786E-01
   C  0.286653302E+01 -0.145051864E+00  0.291472636E-01
   H -0.141413962E+02 -0.267776234E+00  0.174048168E+01
   H  0.138712636E+02  0.147483468E+01 -0.158266315E+01
     4
 # iter = 38500  time[fs]=38.50000
   C -0.290348688E+01  0.513177275E-01 -0.708123167E-01
   C  0.295282751E+01 -0.149532555E+00  0.317431344E-01
   H -0.144972462E+02 -0.275251237E+00  0.178508289E+01
   H  0.142145222E+02  0.151243337E+01 -0.162149706E+01
     4
 # iter = 39000  time[fs]=39.00000
   C -0.299032502E+01  0.531239389E-01 -0.729690891E-01
   C  0.303960665E+01 -0.154033374E+00  0.343499050E-01
   H -0.148534978E+02 -0.282736598E+00  0.182974001E+01
   H  0.145581947E+02  0.155008242E+01 -0.166038405E+01
     4
 # iter = 39500  time[fs]=39.50000
   C -0.307762108E+01  0.549460210E-01 -0.751365363E-01
   C  0.312684273E+01 -0.158553252E+00  0.369671299E-01
   H -0.152101325E+02 -0.290231877E+00  0.187445051E+01
   H  0.149022620E+02  0.158777965E+01 -0.169932179E+01
     4
 # iter = 40000  time[fs]=40.00000
   C -0.316534949E+01  0.567831206E-01 -0.773142220E-01
   C  0.321451019E+01 -0.163091198E+00  0.395943856E-01
   H -0.155671329E+02 -0.297736662E+00  0.191921206E+01
   H  0.152467066E+02  0.162552300E+01 -0.173830808E+01
     4
 # iter = 40500  time[fs]=40.50000
   C -0.325348666E+01  0.586344481E-01 -0.795017320E-01
   C  0.330258547E+01 -0.167646295E+00  0.422312695E-01
   H -0.159244827E+02 -0.305250566E+00  0.196402246E+01
   H  0.155915120E+02  0.166331054E+01 -0.177734087E+01
     4
 # iter = 41000  time[fs]=41.00000
   C -0.334201075E+01  0.604992716E-01 -0.816986733E-01
   C  0.339104678E+01 -0.172217691E+00  0.448773996E-01
   H -0.162821669E+02 -0.312773225E+00  0.200887966E+01
   H  0.159366625E+02  0.170114046E+01 -0.181641823E+01
     4
 # iter = 41500  time[fs]=41.50000
   C -0.343090156E+01  0.623769114E-01 -0.839046731E-01
   C  0.347987391E+01 -0.176804592E+00  0.475324129E-01
   H -0.166401711E+02 -0.320304298E+00  0.205378172E+01
   H  0.162821437E+02  0.173901107E+01 -0.185553836E+01
     4
 # iter = 42000  time[fs]=42.00000
   C -0.352014034E+01  0.642667356E-01 -0.861193775E-01
   C  0.356904816E+01 -0.181406261E+00  0.501959651E-01
   H -0.169984822E+02 -0.327843461E+00  0.209872684E+01
   H  0.166279421E+02  0.177692078E+01 -0.189469956E+01
     4
 # iter = 42500  time[fs]=42.50000
   C -0.360970968E+01  0.661681560E-01 -0.883424509E-01
   C  0.365855213E+01 -0.186022010E+00  0.528677289E-01
   H -0.173570876E+02 -0.335390411E+00  0.214371332E+01
   H  0.169740447E+02  0.181486807E+01 -0.193390023E+01
     4
 # iter = 43000  time[fs]=43.00000
   C -0.369959338E+01  0.680806240E-01 -0.905735749E-01
   C  0.374836966E+01 -0.190651195E+00  0.555473939E-01
   H -0.177159755E+02 -0.342944861E+00  0.218873955E+01
   H  0.173204396E+02  0.185285152E+01 -0.197313885E+01
     4
 # iter = 43500  time[fs]=43.50000
   C -0.378977635E+01  0.700036276E-01 -0.928124469E-01
   C  0.383848566E+01 -0.195293215E+00  0.582346650E-01
   H -0.180751349E+02 -0.350506539E+00  0.223380403E+01
   H  0.176671154E+02  0.189086981E+01 -0.201241402E+01
     4
 # iter = 44000  time[fs]=44.00000
   C -0.388024451E+01  0.719366882E-01 -0.950587800E-01
   C  0.392888609E+01 -0.199947509E+00  0.609292620E-01
   H -0.184345553E+02 -0.358075190E+00  0.227890532E+01
   H  0.180140614E+02  0.192892165E+01 -0.205172437E+01
     4
 # iter = 44500  time[fs]=44.50000
   C -0.397098470E+01  0.738793576E-01 -0.973123013E-01
   C  0.401955781E+01 -0.204613547E+00  0.636309186E-01
   H -0.187942268E+02 -0.365650569E+00  0.232404207E+01
   H  0.183612675E+02  0.196700586E+01 -0.209106865E+01
     4
 # iter = 45000  time[fs]=45.00000
   C -0.406198465E+01  0.758312160E-01 -0.995727516E-01
   C  0.411048855E+01 -0.209290835E+00  0.663393816E-01
   H -0.191541402E+02 -0.373232445E+00  0.236921302E+01
   H  0.187087241E+02  0.200512129E+01 -0.213044566E+01
     4
 # iter = 45500  time[fs]=45.50000
   C -0.415323281E+01  0.777918696E-01 -0.101839885E+00
   C  0.420166682E+01 -0.213978907E+00  0.690544102E-01
   H -0.195142866E+02 -0.380820601E+00  0.241441695E+01
   H  0.190564222E+02  0.204326688E+01 -0.216985424E+01
     4
 # iter = 46000  time[fs]=46.00000
   C -0.424471841E+01  0.797609483E-01 -0.104113466E+00
   C  0.429308183E+01 -0.218677327E+00  0.717757752E-01
   H -0.198746578E+02 -0.388414828E+00  0.245965273E+01
   H  0.194043533E+02  0.208144159E+01 -0.220929332E+01
     4
 # iter = 46500  time[fs]=46.50000
   C -0.433643129E+01  0.817381043E-01 -0.106393272E+00
   C  0.438472346E+01 -0.223385680E+00  0.745032586E-01
   H -0.202352458E+02 -0.396014928E+00  0.250491926E+01
   H  0.197525092E+02  0.211964447E+01 -0.224876188E+01
     4
 # iter = 47000  time[fs]=47.00000
   C -0.442836195E+01  0.837230100E-01 -0.108679092E+00
   C  0.447658221E+01 -0.228103580E+00  0.772366526E-01
   H -0.205960431E+02 -0.403620713E+00  0.255021551E+01
   H  0.201008822E+02  0.215787458E+01 -0.228825893E+01
     4
 # iter = 47500  time[fs]=47.50000
   C -0.452050141E+01  0.857153568E-01 -0.110970722E+00
   C  0.456864914E+01 -0.232830658E+00  0.799757592E-01
   H -0.209570426E+02 -0.411232004E+00  0.259554051E+01
   H  0.204494650E+02  0.219613105E+01 -0.232778355E+01
     4
 # iter = 48000  time[fs]=48.00000
   C -0.461284125E+01  0.877148537E-01 -0.113267969E+00
   C  0.466091583E+01 -0.237566569E+00  0.827203897E-01
   H -0.213182376E+02 -0.418848630E+00  0.264089332E+01
   H  0.207982506E+02  0.223441304E+01 -0.236733486E+01
     4
 # iter = 48500  time[fs]=48.50000
   C -0.470537350E+01  0.897212258E-01 -0.115570651E+00
   C  0.475337434E+01 -0.242310984E+00  0.854703641E-01
   H -0.216796217E+02 -0.426470428E+00  0.268627306E+01
   H  0.211472325E+02  0.227271976E+01 -0.240691201E+01
     4
 # iter = 49000  time[fs]=49.00000
   C -0.479809066E+01  0.917342133E-01 -0.117878591E+00
   C  0.484601717E+01 -0.247063595E+00  0.882255106E-01
   H -0.220411886E+02 -0.434097242E+00  0.273167888E+01
   H  0.214964043E+02  0.231105045E+01 -0.244651421E+01
     4
 # iter = 49500  time[fs]=49.50000
   C -0.489098564E+01  0.937535704E-01 -0.120191622E+00
   C  0.493883725E+01 -0.251824105E+00  0.909856652E-01
   H -0.224029327E+02 -0.441728924E+00  0.277710998E+01
   H  0.218457601E+02  0.234940438E+01 -0.248614069E+01
     4
 # iter = 50000  time[fs]=50.00000
   C -0.498405174E+01  0.957790645E-01 -0.122509585E+00
   C  0.503182789E+01 -0.256592239E+00  0.937506711E-01
   H -0.227648484E+02 -0.449365332E+00  0.282256558E+01
   H  0.221952940E+02  0.238778086E+01 -0.252579071E+01
     4
 # iter = 50500  time[fs]=50.50000
   C -0.507728261E+01  0.978104750E-01 -0.124832325E+00
   C  0.512498276E+01 -0.261367730E+00  0.965203785E-01
   H -0.231269303E+02 -0.457006329E+00  0.286804495E+01
   H  0.225450008E+02  0.242617922E+01 -0.256546359E+01
     4
 # iter = 51000  time[fs]=51.00000
   C -0.517067224E+01  0.998475929E-01 -0.127159698E+00
   C  0.521829587E+01 -0.266150328E+00  0.992946443E-01
   H -0.234891734E+02 -0.464651786E+00  0.291354739E+01
   H  0.228948750E+02  0.246459884E+01 -0.260515864E+01
     4
 # iter = 51500  time[fs]=51.50000
   C -0.526421495E+01  0.101890220E+00 -0.129491563E+00
   C  0.531176154E+01 -0.270939794E+00  0.102073331E+00
   H -0.238515729E+02 -0.472301577E+00  0.295907223E+01
   H  0.232449118E+02  0.250303911E+01 -0.264487525E+01
     4
 # iter = 52000  time[fs]=52.00000
   C -0.535790531E+01  0.103938166E+00 -0.131827787E+00
   C  0.540537437E+01 -0.275735901E+00  0.104856308E+00
   H -0.242141242E+02 -0.479955584E+00  0.300461882E+01
   H  0.235951064E+02  0.254149944E+01 -0.268461278E+01
     4
 # iter = 52500  time[fs]=52.50000
   C -0.545173821E+01  0.105991254E+00 -0.134168241E+00
   C  0.549912924E+01 -0.280538433E+00  0.107643450E+00
   H -0.245768228E+02 -0.487613692E+00  0.305018655E+01
   H  0.239454541E+02  0.257997928E+01 -0.272437066E+01
     4
 # iter = 53000  time[fs]=53.00000
   C -0.554570876E+01  0.108049312E+00 -0.136512803E+00
   C  0.559302129E+01 -0.285347184E+00  0.110434635E+00
   H -0.249396645E+02 -0.495275790E+00  0.309577484E+01
   H  0.242959508E+02  0.261847810E+01 -0.276414833E+01
     4
 # iter = 53500  time[fs]=53.50000
   C -0.563981234E+01  0.110112178E+00 -0.138861356E+00
   C  0.568704589E+01 -0.290161958E+00  0.113229749E+00
   H -0.253026453E+02 -0.502941774E+00  0.314138311E+01
   H  0.246465921E+02  0.265699538E+01 -0.280394524E+01
     4
 # iter = 54000  time[fs]=54.00000
   C -0.573404452E+01  0.112179696E+00 -0.141213785E+00
   C  0.578119865E+01 -0.294982567E+00  0.116028681E+00
   H -0.256657613E+02 -0.510611541E+00  0.318701082E+01
   H  0.249973741E+02  0.269553064E+01 -0.284376089E+01
     4
 # iter = 54500  time[fs]=54.50000
   C -0.582840110E+01  0.114251720E+00 -0.143569983E+00
   C  0.587547536E+01 -0.299808833E+00  0.118831325E+00
   H -0.260290088E+02 -0.518284994E+00  0.323265746E+01
   H  0.253482929E+02  0.273408340E+01 -0.288359477E+01
     4
 # iter = 55000  time[fs]=55.00000
   C -0.592287807E+01  0.116328108E+00 -0.145929847E+00
   C  0.596987203E+01 -0.304640584E+00  0.121637578E+00
   H -0.263923842E+02 -0.525962040E+00  0.327832252E+01
   H  0.256993448E+02  0.277265320E+01 -0.292344641E+01
     4
 # iter = 55500  time[fs]=55.50000
   C -0.601747163E+01  0.118408726E+00 -0.148293276E+00
   C  0.606438485E+01 -0.309477658E+00  0.124447342E+00
   H -0.267558840E+02 -0.533642588E+00  0.332400553E+01
   H  0.260505262E+02  0.281123962E+01 -0.296331534E+01
     4
 # iter = 56000  time[fs]=56.00000
   C -0.611217811E+01  0.120493446E+00 -0.150660174E+00
   C  0.615901019E+01 -0.314319898E+00  0.127260524E+00
   H -0.271195051E+02 -0.541326552E+00  0.336970602E+01
   H  0.264018339E+02  0.284984222E+01 -0.300320114E+01
     4
 # iter = 56500  time[fs]=56.50000
   C -0.620699403E+01  0.122582144E+00 -0.153030450E+00
   C  0.625374456E+01 -0.319167154E+00  0.130077033E+00
   H -0.274832441E+02 -0.549013847E+00  0.341542355E+01
   H  0.267532644E+02  0.288846062E+01 -0.304310337E+01
     4
 # iter = 57000  time[fs]=57.00000
   C -0.630191608E+01  0.124674703E+00 -0.155404014E+00
   C  0.634858466E+01 -0.324019283E+00  0.132896782E+00
   H -0.278470982E+02 -0.556704393E+00  0.346115769E+01
   H  0.271048147E+02  0.292709441E+01 -0.308302163E+01
     4
 # iter = 57500  time[fs]=57.50000
   C -0.639694106E+01  0.126771011E+00 -0.157780781E+00
   C  0.644352730E+01 -0.328876149E+00  0.135719686E+00
   H -0.282110643E+02 -0.564398113E+00  0.350690803E+01
   H  0.274564817E+02  0.296574322E+01 -0.312295552E+01
     4
 # iter = 58000  time[fs]=58.00000
   C -0.649206593E+01  0.128870959E+00 -0.160160670E+00
   C  0.653856946E+01 -0.333737618E+00  0.138545666E+00
   H -0.285751397E+02 -0.572094931E+00  0.355267418E+01
   H  0.278082625E+02  0.300440670E+01 -0.316290467E+01
     4
 # iter = 58500  time[fs]=58.50000
   C -0.658728777E+01  0.130974445E+00 -0.162543601E+00
   C  0.663370822E+01 -0.338603566E+00  0.141374644E+00
   H -0.289393216E+02 -0.579794775E+00  0.359845575E+01
   H  0.281601543E+02  0.304308449E+01 -0.320286870E+01
     4
 # iter = 59000  time[fs]=59.00000
   C -0.668260380E+01  0.133081369E+00 -0.164929497E+00
   C  0.672894080E+01 -0.343473871E+00  0.144206544E+00
   H -0.293036074E+02 -0.587497575E+00  0.364425238E+01
   H  0.285121544E+02  0.308177626E+01 -0.324284728E+01
     4
 # iter = 59500  time[fs]=59.50000
   C -0.677801134E+01  0.135191637E+00 -0.167318287E+00
   C  0.682426453E+01 -0.348348416E+00  0.147041296E+00
   H -0.296679947E+02 -0.595203264E+00  0.369006370E+01
   H  0.288642602E+02  0.312048168E+01 -0.328284004E+01
     4
 # iter = 60000  time[fs]=60.00000
   C -0.687350781E+01  0.137305157E+00 -0.169709898E+00
   C  0.691967685E+01 -0.353227090E+00  0.149878828E+00
   H -0.300324809E+02 -0.602911777E+00  0.373588938E+01
   H  0.292164691E+02  0.315920044E+01 -0.332284668E+01
     4
 # iter = 60500  time[fs]=60.50000
   C -0.696909077E+01  0.139421842E+00 -0.172104262E+00
   C  0.701517532E+01 -0.358109785E+00  0.152719074E+00
   H -0.303970637E+02 -0.610623050E+00  0.378172909E+01
   H  0.295687787E+02  0.319793224E+01 -0.336286687E+01
     4
 # iter = 61000  time[fs]=61.00000
   C -0.706475784E+01  0.141541607E+00 -0.174501315E+00
   C  0.711075756E+01 -0.362996398E+00  0.155561970E+00
   H -0.307617410E+02 -0.618337023E+00  0.382758250E+01
   H  0.299211867E+02  0.323667678E+01 -0.340290031E+01
     4
 # iter = 61500  time[fs]=61.50000
   C -0.716050676E+01  0.143664372E+00 -0.176900991E+00
   C  0.720642132E+01 -0.367886828E+00  0.158407452E+00
   H -0.311265104E+02 -0.626053637E+00  0.387344932E+01
   H  0.302736909E+02  0.327543378E+01 -0.344294669E+01
     4
 # iter = 62000  time[fs]=62.00000
   C -0.725633533E+01  0.145790059E+00 -0.179303231E+00
   C  0.730216442E+01 -0.372780981E+00  0.161255461E+00
   H -0.314913699E+02 -0.633772835E+00  0.391932923E+01
   H  0.306262889E+02  0.331420297E+01 -0.348300574E+01
     4
 # iter = 62500  time[fs]=62.50000
   C -0.735224148E+01  0.147918593E+00 -0.181707973E+00
   C  0.739798478E+01 -0.377678764E+00  0.164105938E+00
   H -0.318563174E+02 -0.641494562E+00  0.396522195E+01
   H  0.309789788E+02  0.335298409E+01 -0.352307718E+01
     4
 # iter = 63000  time[fs]=63.00000
   C -0.744822317E+01  0.150049902E+00 -0.184115162E+00
   C  0.749388038E+01 -0.382580088E+00  0.166958827E+00
   H -0.322213511E+02 -0.649218765E+00  0.401112720E+01
   H  0.313317585E+02  0.339177687E+01 -0.356316073E+01
     4
 # iter = 63500  time[fs]=63.50000
   C -0.754427847E+01  0.152183916E+00 -0.186524742E+00
   C  0.758984928E+01 -0.387484867E+00  0.169814073E+00
   H -0.325864689E+02 -0.656945391E+00  0.405704472E+01
   H  0.316846260E+02  0.343058108E+01 -0.360325615E+01
     4
 # iter = 64000  time[fs]=64.00000
   C -0.764040551E+01  0.154320569E+00 -0.188936659E+00
   C  0.768588962E+01 -0.392393019E+00  0.172671624E+00
   H -0.329516691E+02 -0.664674391E+00  0.410297424E+01
   H  0.320375793E+02  0.346939646E+01 -0.364336317E+01
     4
 # iter = 64500  time[fs]=64.50000
   C -0.773660249E+01  0.156459796E+00 -0.191350861E+00
   C  0.778199961E+01 -0.397304463E+00  0.175531428E+00
   H -0.333169498E+02 -0.672405716E+00  0.414891550E+01
   H  0.323906167E+02  0.350822280E+01 -0.368348156E+01
     4
 # iter = 65000  time[fs]=65.00000
   C -0.783286767E+01  0.158601535E+00 -0.193767299E+00
   C  0.787817752E+01 -0.402219123E+00  0.178393437E+00
   H -0.336823094E+02 -0.680139319E+00  0.419486827E+01
   H  0.327437364E+02  0.354705985E+01 -0.372361108E+01
     4
 # iter = 65500  time[fs]=65.50000
   C -0.792919938E+01  0.160745727E+00 -0.196185923E+00
   C  0.797442169E+01 -0.407136925E+00  0.181257602E+00
   H -0.340477461E+02 -0.687875154E+00  0.424083230E+01
   H  0.330969366E+02  0.358590741E+01 -0.376375150E+01
     4
 # iter = 66000  time[fs]=66.00000
   C -0.802559601E+01  0.162892312E+00 -0.198606688E+00
   C  0.807073050E+01 -0.412057796E+00  0.184123878E+00
   H -0.344132584E+02 -0.695613178E+00  0.428680737E+01
   H  0.334502156E+02  0.362476526E+01 -0.380390261E+01
     4
 # iter = 66500  time[fs]=66.50000
   C -0.812205601E+01  0.165041236E+00 -0.201029546E+00
   C  0.816710240E+01 -0.416981667E+00  0.186992219E+00
   H -0.347788446E+02 -0.703353346E+00  0.433279324E+01
   H  0.338035718E+02  0.366363320E+01 -0.384406418E+01
     4
 # iter = 67000  time[fs]=67.00000
   C -0.821857786E+01  0.167192444E+00 -0.203454454E+00
   C  0.826353590E+01 -0.421908471E+00  0.189862582E+00
   H -0.351445033E+02 -0.711095618E+00  0.437878971E+01
   H  0.341570036E+02  0.370251102E+01 -0.388423601E+01
     4
 # iter = 67500  time[fs]=67.50000
   C -0.831516013E+01  0.169345884E+00 -0.205881370E+00
   C  0.836002955E+01 -0.426838143E+00  0.192734925E+00
   H -0.355102330E+02 -0.718839952E+00  0.442479657E+01
   H  0.345105095E+02  0.374139854E+01 -0.392441789E+01
     4
 # iter = 68000  time[fs]=68.00000
   C -0.841180141E+01  0.171501506E+00 -0.208310252E+00
   C  0.845658197E+01 -0.431770620E+00  0.195609208E+00
   H -0.358760323E+02 -0.726586310E+00  0.447081360E+01
   H  0.348640881E+02  0.378029557E+01 -0.396460964E+01
     4
 # iter = 68500  time[fs]=68.50000
   C -0.850850034E+01  0.173659261E+00 -0.210741060E+00
   C  0.855319179E+01 -0.436705842E+00  0.198485390E+00
   H -0.362418997E+02 -0.734334652E+00  0.451684062E+01
   H  0.352177378E+02  0.381920191E+01 -0.400481105E+01
     4
 # iter = 69000  time[fs]=69.00000
   C -0.860525563E+01  0.175819101E+00 -0.213173754E+00
   C  0.864985771E+01 -0.441643749E+00  0.201363433E+00
   H -0.366078340E+02 -0.742084943E+00  0.456287742E+01
   H  0.355714573E+02  0.385811741E+01 -0.404502195E+01
     4
 # iter = 69500  time[fs]=69.50000
   C -0.870206601E+01  0.177980982E+00 -0.215608297E+00
   C  0.874657848E+01 -0.446584285E+00  0.204243301E+00
   H -0.369738338E+02 -0.749837146E+00  0.460892383E+01
   H  0.359252451E+02  0.389704188E+01 -0.408524215E+01
     4
 # iter = 70000  time[fs]=70.00000
   C -0.879893024E+01  0.180144858E+00 -0.218044653E+00
   C  0.884335288E+01 -0.451527395E+00  0.207124956E+00
   H -0.373398978E+02 -0.757591225E+00  0.465497967E+01
   H  0.362791001E+02  0.393597515E+01 -0.412547148E+01
     4
 # iter = 70500  time[fs]=70.50000
   C -0.889584715E+01  0.182310688E+00 -0.220482785E+00
   C  0.894017972E+01 -0.456473024E+00  0.210008365E+00
   H -0.377060249E+02 -0.765347147E+00  0.470104474E+01
   H  0.366330209E+02  0.397491707E+01 -0.416570978E+01
     4
 # iter = 71000  time[fs]=71.00000
   C -0.899281560E+01  0.184478430E+00 -0.222922659E+00
   C  0.903705786E+01 -0.461421121E+00  0.212893492E+00
   H -0.380722138E+02 -0.773104878E+00  0.474711889E+01
   H  0.369870063E+02  0.401386747E+01 -0.420595686E+01
     4
 # iter = 71500  time[fs]=71.50000
   C -0.908983447E+01  0.186648043E+00 -0.225364242E+00
   C  0.913398621E+01 -0.466371637E+00  0.215780305E+00
   H -0.384384634E+02 -0.780864385E+00  0.479320195E+01
   H  0.373410550E+02  0.405282620E+01 -0.424621259E+01
     4
 # iter = 72000  time[fs]=72.00000
   C -0.918690269E+01  0.188819489E+00 -0.227807500E+00
   C  0.923096368E+01 -0.471324521E+00  0.218668771E+00
   H -0.388047724E+02 -0.788625638E+00  0.483929375E+01
   H  0.376951659E+02  0.409179312E+01 -0.428647679E+01
     4
 # iter = 72500  time[fs]=72.50000
   C -0.928401921E+01  0.190992730E+00 -0.230252402E+00
   C  0.932798925E+01 -0.476279727E+00  0.221558859E+00
   H -0.391711400E+02 -0.796388606E+00  0.488539414E+01
   H  0.380493378E+02  0.413076807E+01 -0.432674931E+01
     4
 # iter = 73000  time[fs]=73.00000
   C -0.938118303E+01  0.193167729E+00 -0.232698917E+00
   C  0.942506189E+01 -0.481237208E+00  0.224450539E+00
   H -0.395375648E+02 -0.804153259E+00  0.493150296E+01
   H  0.384035696E+02  0.416975091E+01 -0.436703002E+01
     4
 # iter = 73500  time[fs]=73.50000
   C -0.947839318E+01  0.195344451E+00 -0.235147015E+00
   C  0.952218065E+01 -0.486196921E+00  0.227343781E+00
   H -0.399040461E+02 -0.811919567E+00  0.497762007E+01
   H  0.387578603E+02  0.420874151E+01 -0.440731875E+01
     4
 # iter = 74000  time[fs]=74.00000
   C -0.957564869E+01  0.197522862E+00 -0.237596667E+00
   C  0.961934457E+01 -0.491158822E+00  0.230238557E+00
   H -0.402705826E+02 -0.819687503E+00  0.502374531E+01
   H  0.391122088E+02  0.424773973E+01 -0.444761539E+01
     4
 # iter = 74500  time[fs]=74.50000
   C -0.967294865E+01  0.199702927E+00 -0.240047844E+00
   C  0.971655274E+01 -0.496122869E+00  0.233134838E+00
   H -0.406371734E+02 -0.827457038E+00  0.506987855E+01
   H  0.394666140E+02  0.428674543E+01 -0.448791978E+01
     4
 # iter = 75000  time[fs]=75.00000
   C -0.977029217E+01  0.201884616E+00 -0.242500519E+00
   C  0.981380427E+01 -0.501089020E+00  0.236032598E+00
   H -0.410038176E+02 -0.835228147E+00  0.511601965E+01
   H  0.398210749E+02  0.432575850E+01 -0.452823179E+01
     4
 # iter = 75500  time[fs]=75.50000
   C -0.986767838E+01  0.204067895E+00 -0.244954665E+00
   C  0.991109829E+01 -0.506057237E+00  0.238931809E+00
   H -0.413705143E+02 -0.843000801E+00  0.516216847E+01
   H  0.401755907E+02  0.436477881E+01 -0.456855129E+01
     4
 # iter = 76000  time[fs]=76.00000
   C -0.996510644E+01  0.206252735E+00 -0.247410255E+00
   C  0.100084340E+02 -0.511027480E+00  0.241832445E+00
   H -0.417372624E+02 -0.850774977E+00  0.520832488E+01
   H  0.405301603E+02  0.440380623E+01 -0.460887817E+01
     4
 # iter = 76500  time[fs]=76.50000
   C -0.100625755E+02  0.208439105E+00 -0.249867265E+00
   C  0.101058105E+02 -0.515999712E+00  0.244734483E+00
   H -0.421040612E+02 -0.858550649E+00  0.525448876E+01
   H  0.408847828E+02  0.444284065E+01 -0.464921229E+01
     4
 # iter = 77000  time[fs]=77.00000
   C -0.101600849E+02  0.210626977E+00 -0.252325668E+00
   C  0.102032271E+02 -0.520973897E+00  0.247637897E+00
   H -0.424709098E+02 -0.866327793E+00  0.530065998E+01
   H  0.412394573E+02  0.448188194E+01 -0.468955353E+01
     4
 # iter = 77500  time[fs]=77.50000
   C -0.102576336E+02  0.212816323E+00 -0.254785442E+00
   C  0.103006829E+02 -0.525949999E+00  0.250542663E+00
   H -0.428378072E+02 -0.874106384E+00  0.534683842E+01
   H  0.415941830E+02  0.452093001E+01 -0.472990178E+01
     4
 # iter = 78000  time[fs]=78.00000
   C -0.103552211E+02  0.215007115E+00 -0.257246563E+00
   C  0.103981773E+02 -0.530927983E+00  0.253448758E+00
   H -0.432047528E+02 -0.881886400E+00  0.539302396E+01
   H  0.419489589E+02  0.455998474E+01 -0.477025692E+01
     4
 # iter = 78500  time[fs]=78.50000
   C -0.104528466E+02  0.217199326E+00 -0.259709006E+00
   C  0.104957095E+02 -0.535907816E+00  0.256356160E+00
   H -0.435717457E+02 -0.889667818E+00  0.543921649E+01
   H  0.423037843E+02  0.459904601E+01 -0.481061884E+01
     4
 # iter = 79000  time[fs]=79.00000
   C -0.105505094E+02  0.219392932E+00 -0.262172751E+00
   C  0.105932788E+02 -0.540889466E+00  0.259264846E+00
   H -0.439387852E+02 -0.897450616E+00  0.548541588E+01
   H  0.426586583E+02  0.463811374E+01 -0.485098744E+01
     4
 # iter = 79500  time[fs]=79.50000
   C -0.106482088E+02  0.221587906E+00 -0.264637775E+00
   C  0.106908845E+02 -0.545872899E+00  0.262174795E+00
   H -0.443058704E+02 -0.905234773E+00  0.553162204E+01
   H  0.430135802E+02  0.467718781E+01 -0.489136260E+01
     4
 # iter = 80000  time[fs]=80.00000
   C -0.107459440E+02  0.223784224E+00 -0.267104057E+00
   C  0.107885259E+02 -0.550858085E+00  0.265085986E+00
   H -0.446730006E+02 -0.913020266E+00  0.557783485E+01
   H  0.433685491E+02  0.471626812E+01 -0.493174422E+01
