     4
 # iter = 25000  time[fs]=25.00000
   C -0.100792727E+01 -0.472782332E-01  0.423140338E-01
   C  0.989778046E+00  0.628977152E-02  0.324776059E-02
   H -0.532673633E+01 -0.441662142E+00 -0.398977997E+00
   H  0.540497664E+01  0.456803699E+00 -0.287165567E+00
     4
 # iter = 25500  time[fs]=25.50000
   C -0.105604266E+01 -0.476873598E-01  0.456028062E-01
   C  0.103344263E+01  0.493011202E-02  0.553832811E-02
   H -0.566096655E+01 -0.469197647E+00 -0.423230433E+00
   H  0.572352878E+01  0.484217798E+00 -0.301620803E+00
     4
 # iter = 26000  time[fs]=26.00000
   C -0.110864893E+01 -0.482042456E-01  0.489957998E-01
   C  0.108160348E+01  0.367682399E-02  0.775391946E-02
   H -0.599782142E+01 -0.496955489E+00 -0.447697023E+00
   H  0.604464091E+01  0.511870885E+00 -0.316212825E+00
     4
 # iter = 26500  time[fs]=26.50000
   C -0.116534599E+01 -0.488132066E-01  0.524818489E-01
   C  0.113385890E+01  0.251428839E-02  0.990246337E-02
   H -0.633701131E+01 -0.524911339E+00 -0.472353845E+00
   H  0.636804288E+01  0.539737855E+00 -0.330926712E+00
     4
 # iter = 27000  time[fs]=27.00000
   C -0.122575761E+01 -0.495006865E-01  0.560509845E-01
   C  0.118983141E+01  0.142901469E-02  0.119912135E-01
   H -0.667829168E+01 -0.553044694E+00 -0.497180886E+00
   H  0.669350485E+01  0.567797413E+00 -0.345749892E+00
     4
 # iter = 27500  time[fs]=27.50000
   C -0.128953579E+01 -0.502550951E-01  0.596943667E-01
   C  0.124917209E+01  0.409478004E-03  0.140267074E-01
   H -0.702145419E+01 -0.581338113E+00 -0.522161214E+00
   H  0.702082964E+01  0.596031335E+00 -0.360671670E+00
     4
 # iter = 28000  time[fs]=28.00000
   C -0.135636258E+01 -0.510665969E-01  0.634041957E-01
   C  0.131156228E+01 -0.554094317E-03  0.160147754E-01
   H -0.736631998E+01 -0.609776629E+00 -0.547280368E+00
   H  0.734984693E+01  0.624423901E+00 -0.375682873E+00
     4
 # iter = 28500  time[fs]=28.50000
   C -0.142595005E+01 -0.519268836E-01  0.671736101E-01
   C  0.137671349E+01 -0.146995044E-02  0.179605798E-01
   H -0.771273435E+01 -0.638347305E+00 -0.572525893E+00
   H  0.768040855E+01  0.652961452E+00 -0.390775567E+00
     4
 # iter = 29000  time[fs]=29.00000
   C -0.149803905E+01 -0.528289548E-01  0.709965840E-01
   C  0.144436619E+01 -0.234503433E-02  0.198686696E-01
   H -0.806056261E+01 -0.667038876E+00 -0.597886973E+00
   H  0.801238486E+01  0.681632044E+00 -0.405942843E+00
     4
 # iter = 29500  time[fs]=29.50000
   C -0.157239737E+01 -0.537669162E-01  0.748678276E-01
   C  0.151428780E+01 -0.318518688E-02  0.217430425E-01
   H -0.840968681E+01 -0.695841476E+00 -0.623354158E+00
   H  0.834566177E+01  0.710425170E+00 -0.421178649E+00
     4
 # iter = 30000  time[fs]=30.00000
   C -0.164881744E+01 -0.547358029E-01  0.787826955E-01
   C  0.158627053E+01 -0.399532305E-02  0.235872067E-01
   H -0.876000308E+01 -0.724746409E+00 -0.648919135E+00
   H  0.868013841E+01  0.739331537E+00 -0.436477650E+00
     4
 # iter = 30500  time[fs]=30.50000
   C -0.172711397E+01 -0.557314269E-01  0.827371029E-01
   C  0.166012890E+01 -0.477958419E-02  0.254042403E-01
   H -0.911141948E+01 -0.753745974E+00 -0.674574551E+00
   H  0.901572511E+01  0.768342885E+00 -0.451835118E+00
     4
 # iter = 31000  time[fs]=31.00000
   C -0.180712171E+01 -0.567502481E-01  0.867274520E-01
   C  0.173569749E+01 -0.554146689E-02  0.271968455E-01
   H -0.946385427E+01 -0.782833318E+00 -0.700313870E+00
   H  0.935234183E+01  0.797451835E+00 -0.467246844E+00
     4
 # iter = 31500  time[fs]=31.50000
   C -0.188869315E+01 -0.577892661E-01  0.907505673E-01
   C  0.181282871E+01 -0.628393083E-02  0.289673974E-01
   H -0.981723441E+01 -0.812002312E+00 -0.726131250E+00
   H  0.968991688E+01  0.826651772E+00 -0.482709063E+00
     4
 # iter = 32000  time[fs]=32.00000
   C -0.197169659E+01 -0.588459304E-01  0.948036394E-01
   C  0.189139078E+01 -0.700948847E-02  0.307179871E-01
   H -0.101714944E+02 -0.841247454E+00 -0.752021453E+00
   H  0.100283857E+02  0.855936738E+00 -0.498218394E+00
     4
 # iter = 32500  time[fs]=32.50000
   C -0.205601429E+01 -0.599180663E-01  0.988841762E-01
   C  0.197126588E+01 -0.772027929E-02  0.324504592E-01
   H -0.105265754E+02 -0.870563784E+00 -0.777979758E+00
   H  0.103676901E+02  0.885301349E+00 -0.513771789E+00
     4
 # iter = 33000  time[fs]=33.00000
   C -0.214154079E+01 -0.610038127E-01  0.102989961E+00
   C  0.205234853E+01 -0.841813112E-02  0.341664445E-01
   H -0.108824241E+02 -0.899946819E+00 -0.804001898E+00
   H  0.107077773E+02  0.914740723E+00 -0.529366488E+00
     4
 # iter = 33500  time[fs]=33.50000
   C -0.222818152E+01 -0.621015719E-01  0.107119018E+00
   C  0.213454413E+01 -0.910461072E-02  0.358673881E-01
   H -0.112389922E+02 -0.929392487E+00 -0.830083999E+00
   H  0.110485993E+02  0.944250417E+00 -0.544999986E+00
     4
 # iter = 34000  time[fs]=34.00000
   C -0.231585151E+01 -0.632099674E-01  0.111269579E+00
   C  0.221776768E+01 -0.978106565E-02  0.375545741E-01
   H -0.115962359E+02 -0.958897084E+00 -0.856222537E+00
   H  0.113901125E+02  0.973826379E+00 -0.560670003E+00
     4
 # iter = 34500  time[fs]=34.50000
   C -0.240447422E+01 -0.643278093E-01  0.115440059E+00
   C  0.230194266E+01 -0.104486588E-01  0.392291457E-01
   H -0.119541152E+02 -0.988457225E+00 -0.882414293E+00
   H  0.117322769E+02  0.100346490E+01 -0.576374455E+00
     4
 # iter = 35000  time[fs]=35.00000
   C -0.249398063E+01 -0.654540652E-01  0.119629032E+00
   C  0.238700003E+01 -0.111083969E-01  0.408921239E-01
   H -0.123125936E+02 -0.101806981E+01 -0.908656319E+00
   H  0.120750560E+02  0.103316258E+01 -0.592111434E+00
     4
 # iter = 35500  time[fs]=35.50000
   C -0.258430831E+01 -0.665878369E-01  0.123835212E+00
   C  0.247287738E+01 -0.117611546E-01  0.425444227E-01
   H -0.126716376E+02 -0.104773200E+01 -0.934945911E+00
   H  0.124184161E+02  0.106291628E+01 -0.607879186E+00
     4
 # iter = 36000  time[fs]=36.00000
   C -0.267540071E+01 -0.677283397E-01  0.128057438E+00
   C  0.255951817E+01 -0.124076940E-01  0.441868620E-01
   H -0.130312163E+02 -0.107744118E+01 -0.961280577E+00
   H  0.127623265E+02  0.109272313E+01 -0.623676099E+00
     4
 # iter = 36500  time[fs]=36.50000
   C -0.276720649E+01 -0.688748867E-01  0.132294657E+00
   C  0.264687108E+01 -0.130486811E-01  0.458201795E-01
   H -0.133913014E+02 -0.110719493E+01 -0.987658020E+00
   H  0.131067584E+02  0.112258045E+01 -0.639500683E+00
     4
 # iter = 37000  time[fs]=37.00000
   C -0.285967895E+01 -0.700268739E-01  0.136545911E+00
   C  0.273488942E+01 -0.136846999E-01  0.474450406E-01
   H -0.137518668E+02 -0.113699103E+01 -0.101407612E+01
   H  0.134516855E+02  0.115248577E+01 -0.655351562E+00
     4
 # iter = 37500  time[fs]=37.50000
   C -0.295277551E+01 -0.711837695E-01  0.140810330E+00
   C  0.282353062E+01 -0.143162637E-01  0.490620465E-01
   H -0.141128883E+02 -0.116682740E+01 -0.104053290E+01
   H  0.137970835E+02  0.118243681E+01 -0.671227461E+00
     4
 # iter = 38000  time[fs]=38.00000
   C -0.304645727E+01 -0.723451031E-01  0.145087116E+00
   C  0.291275583E+01 -0.149438252E-01  0.506717419E-01
   H -0.144743435E+02 -0.119670212E+01 -0.106702654E+01
   H  0.141429296E+02  0.121243144E+01 -0.687127196E+00
     4
 # iter = 38500  time[fs]=38.50000
   C -0.314068864E+01 -0.735104581E-01  0.149375543E+00
   C  0.300252946E+01 -0.155677843E-01  0.522746215E-01
   H -0.148362114E+02 -0.122661343E+01 -0.109355535E+01
   H  0.144892028E+02  0.124246768E+01 -0.703049664E+00
     4
 # iter = 39000  time[fs]=39.00000
   C -0.323543699E+01 -0.746794642E-01  0.153674943E+00
   C  0.309281890E+01 -0.161884958E-01  0.538711353E-01
   H -0.151984729E+02 -0.125655965E+01 -0.112011773E+01
   H  0.148358834E+02  0.127254367E+01 -0.718993839E+00
     4
 # iter = 39500  time[fs]=39.50000
   C -0.333067234E+01 -0.758517916E-01  0.157984702E+00
   C  0.318359421E+01 -0.168062746E-01  0.554616938E-01
   H -0.155611098E+02 -0.128653923E+01 -0.114671221E+01
   H  0.151829531E+02  0.130265768E+01 -0.734958765E+00
     4
 # iter = 40000  time[fs]=40.00000
   C -0.342636707E+01 -0.770271456E-01  0.162304256E+00
   C  0.327482779E+01 -0.174214012E-01  0.570466721E-01
   H -0.159241054E+02 -0.131655073E+01 -0.117333740E+01
   H  0.155303947E+02  0.133280811E+01 -0.750943545E+00
     4
 # iter = 40500  time[fs]=40.50000
   C -0.352249577E+01 -0.782052625E-01  0.166633084E+00
   C  0.336649425E+01 -0.180341261E-01  0.586264133E-01
   H -0.162874439E+02 -0.134659279E+01 -0.119999203E+01
   H  0.158781924E+02  0.136299344E+01 -0.766947340E+00
     4
 # iter = 41000  time[fs]=41.00000
   C -0.361903493E+01 -0.793859058E-01  0.170970704E+00
   C  0.345857011E+01 -0.186446731E-01  0.602012325E-01
   H -0.166511105E+02 -0.137666415E+01 -0.122667487E+01
   H  0.162263310E+02  0.139321223E+01 -0.782969366E+00
     4
 # iter = 41500  time[fs]=41.50000
   C -0.371596283E+01 -0.805688626E-01  0.175316670E+00
   C  0.355103366E+01 -0.192532431E-01  0.617714190E-01
   H -0.170150916E+02 -0.140676360E+01 -0.125338478E+01
   H  0.165747965E+02  0.142346317E+01 -0.799008883E+00
     4
 # iter = 42000  time[fs]=42.00000
   C -0.381325932E+01 -0.817539414E-01  0.179670570E+00
   C  0.364386479E+01 -0.198600164E-01  0.633372394E-01
   H -0.173793742E+02 -0.143689003E+01 -0.128012069E+01
   H  0.169235756E+02  0.145374499E+01 -0.815065199E+00
     4
 # iter = 42500  time[fs]=42.50000
   C -0.391090573E+01 -0.829409689E-01  0.184032018E+00
   C  0.373704485E+01 -0.204651553E-01  0.648989391E-01
   H -0.177439460E+02 -0.146704239E+01 -0.130688161E+01
   H  0.172726560E+02  0.148405650E+01 -0.831137659E+00
     4
 # iter = 43000  time[fs]=43.00000
   C -0.400888469E+01 -0.841297887E-01  0.188400659E+00
   C  0.383055648E+01 -0.210688059E-01  0.664567453E-01
   H -0.181087957E+02 -0.149721968E+01 -0.133366657E+01
   H  0.176220258E+02  0.151439659E+01 -0.847225649E+00
     4
 # iter = 43500  time[fs]=43.50000
   C -0.410718004E+01 -0.853202587E-01  0.192776157E+00
   C  0.392438357E+01 -0.216711006E-01  0.680108678E-01
   H -0.184739125E+02 -0.152742096E+01 -0.136047468E+01
   H  0.179716741E+02  0.154476421E+01 -0.863328588E+00
     4
 # iter = 44000  time[fs]=44.00000
   C -0.420577672E+01 -0.865122502E-01  0.197158204E+00
   C  0.401851106E+01 -0.222721586E-01  0.695615012E-01
   H -0.188392862E+02 -0.155764535E+01 -0.138730509E+01
   H  0.183215904E+02  0.157515836E+01 -0.879445926E+00
     4
 # iter = 44500  time[fs]=44.50000
   C -0.430466068E+01 -0.877056459E-01  0.201546508E+00
   C  0.411292492E+01 -0.228720885E-01  0.711088261E-01
   H -0.192049072E+02 -0.158789201E+01 -0.141415701E+01
   H  0.186717649E+02  0.160557808E+01 -0.895577145E+00
     4
 # iter = 45000  time[fs]=45.00000
   C -0.440381878E+01 -0.889003390E-01  0.205940797E+00
   C  0.420761204E+01 -0.234709883E-01  0.726530102E-01
   H -0.195707665E+02 -0.161816015E+01 -0.144102967E+01
   H  0.190221881E+02  0.163602250E+01 -0.911721753E+00
     4
 # iter = 45500  time[fs]=45.50000
   C -0.450323873E+01 -0.900962321E-01  0.210340816E+00
   C  0.430256015E+01 -0.240689476E-01  0.741942098E-01
   H -0.199368554E+02 -0.164844902E+01 -0.146792236E+01
   H  0.193728514E+02  0.166649076E+01 -0.927879286E+00
     4
 # iter = 46000  time[fs]=46.00000
   C -0.460290901E+01 -0.912932361E-01  0.214746327E+00
   C  0.439775775E+01 -0.246660475E-01  0.757325703E-01
   H -0.203031658E+02 -0.167875790E+01 -0.149483439E+01
   H  0.197237462E+02  0.169698205E+01 -0.944049300E+00
     4
 # iter = 46500  time[fs]=46.50000
   C -0.470281883E+01 -0.924912696E-01  0.219157105E+00
   C  0.449319407E+01 -0.252623622E-01  0.772682274E-01
   H -0.206696900E+02 -0.170908613E+01 -0.152176512E+01
   H  0.200748647E+02  0.172749561E+01 -0.960231379E+00
     4
 # iter = 47000  time[fs]=47.00000
   C -0.480295805E+01 -0.936902577E-01  0.223572937E+00
   C  0.458885898E+01 -0.258579592E-01  0.788013082E-01
   H -0.210364207E+02 -0.173943306E+01 -0.154871394E+01
   H  0.204261993E+02  0.175803072E+01 -0.976425121E+00
     4
 # iter = 47500  time[fs]=47.50000
   C -0.490331712E+01 -0.948901320E-01  0.227993627E+00
   C  0.468474297E+01 -0.264529004E-01  0.803319313E-01
   H -0.214033510E+02 -0.176979807E+01 -0.157568025E+01
   H  0.207777429E+02  0.178858668E+01 -0.992630150E+00
     4
 # iter = 48000  time[fs]=48.00000
   C -0.500388709E+01 -0.960908294E-01  0.232418984E+00
   C  0.478083709E+01 -0.270472422E-01  0.818602078E-01
   H -0.217704742E+02 -0.180018060E+01 -0.160266350E+01
   H  0.211294886E+02  0.181916284E+01 -0.100884610E+01
     4
 # iter = 48500  time[fs]=48.50000
   C -0.510465948E+01 -0.972922919E-01  0.236848834E+00
   C  0.487713289E+01 -0.276410365E-01  0.833862420E-01
   H -0.221377841E+02 -0.183058008E+01 -0.162966316E+01
   H  0.214814299E+02  0.184975856E+01 -0.102507264E+01
     4
 # iter = 49000  time[fs]=49.00000
   C -0.520562635E+01 -0.984944661E-01  0.241283007E+00
   C  0.497362242E+01 -0.282343306E-01  0.849101317E-01
   H -0.225052746E+02 -0.186099599E+01 -0.165667872E+01
   H  0.218335607E+02  0.188037325E+01 -0.104130943E+01
     4
 # iter = 49500  time[fs]=49.50000
   C -0.530678014E+01 -0.996973027E-01  0.245721347E+00
   C  0.507029818E+01 -0.288271682E-01  0.864319689E-01
   H -0.228729402E+02 -0.189142782E+01 -0.168370971E+01
   H  0.221858751E+02  0.191100633E+01 -0.105755616E+01
     4
 # iter = 50000  time[fs]=50.00000
   C -0.540811377E+01 -0.100900756E+00  0.250163703E+00
   C  0.516715306E+01 -0.294195892E-01  0.879518400E-01
   H -0.232407753E+02 -0.192187510E+01 -0.171075565E+01
   H  0.225383673E+02  0.194165726E+01 -0.107381253E+01
     4
 # iter = 50500  time[fs]=50.50000
   C -0.550962049E+01 -0.102104784E+00  0.254609933E+00
   C  0.526418036E+01 -0.300116304E-01  0.894698264E-01
   H -0.236087747E+02 -0.195233736E+01 -0.173781611E+01
   H  0.228910321E+02  0.197232552E+01 -0.109007826E+01
     4
 # iter = 51000  time[fs]=51.00000
   C -0.561129394E+01 -0.103309348E+00  0.259059903E+00
   C  0.536137372E+01 -0.306033257E-01  0.909860050E-01
   H -0.239769336E+02 -0.198281418E+01 -0.176489067E+01
   H  0.232438643E+02  0.200301060E+01 -0.110635308E+01
     4
 # iter = 51500  time[fs]=51.50000
   C -0.571312810E+01 -0.104514412E+00  0.263513485E+00
   C  0.545872713E+01 -0.311947063E-01  0.925004482E-01
   H -0.243452472E+02 -0.201330512E+01 -0.179197893E+01
   H  0.235968591E+02  0.203371204E+01 -0.112263672E+01
     4
 # iter = 52000  time[fs]=52.00000
   C -0.581511723E+01 -0.105719942E+00  0.267970557E+00
   C  0.555623489E+01 -0.317858009E-01  0.940132243E-01
   H -0.247137109E+02 -0.204380978E+01 -0.181908049E+01
   H  0.239500116E+02  0.206442936E+01 -0.113892893E+01
     4
 # iter = 52500  time[fs]=52.50000
   C -0.591725590E+01 -0.106925907E+00  0.272431005E+00
   C  0.565389156E+01 -0.323766361E-01  0.955243981E-01
   H -0.250823204E+02 -0.207432779E+01 -0.184619499E+01
   H  0.243033174E+02  0.209516214E+01 -0.115522948E+01
     4
 # iter = 53000  time[fs]=53.00000
   C -0.601953897E+01 -0.108132279E+00  0.276894718E+00
   C  0.575169201E+01 -0.329672364E-01  0.970340306E-01
   H -0.254510716E+02 -0.210485878E+01 -0.187332207E+01
   H  0.246567722E+02  0.212590994E+01 -0.117153813E+01
     4
 # iter = 53500  time[fs]=53.50000
   C -0.612196153E+01 -0.109339030E+00  0.281361591E+00
   C  0.584963136E+01 -0.335576243E-01  0.985421798E-01
   H -0.258199605E+02 -0.213540238E+01 -0.190046140E+01
   H  0.250103719E+02  0.215667237E+01 -0.118785467E+01
     4
 # iter = 54000  time[fs]=54.00000
   C -0.622451891E+01 -0.110546136E+00  0.285831526E+00
   C  0.594770494E+01 -0.341478209E-01  0.100048901E+00
   H -0.261889832E+02 -0.216595826E+01 -0.192761264E+01
   H  0.253641125E+02  0.218744904E+01 -0.120417888E+01
     4
 # iter = 54500  time[fs]=54.50000
   C -0.632720667E+01 -0.111753572E+00  0.290304426E+00
   C  0.604590834E+01 -0.347378455E-01  0.101554245E+00
   H -0.265581363E+02 -0.219652610E+01 -0.195477548E+01
   H  0.257179903E+02  0.221823957E+01 -0.122051057E+01
     4
 # iter = 55000  time[fs]=55.00000
   C -0.643002058E+01 -0.112961319E+00  0.294780202E+00
   C  0.614423732E+01 -0.353277160E-01  0.103058262E+00
   H -0.269274160E+02 -0.222710557E+01 -0.198194963E+01
   H  0.260720014E+02  0.224904361E+01 -0.123684953E+01
     4
 # iter = 55500  time[fs]=55.50000
   C -0.653295661E+01 -0.114169354E+00  0.299258766E+00
   C  0.624268788E+01 -0.359174491E-01  0.104560999E+00
   H -0.272968191E+02 -0.225769639E+01 -0.200913479E+01
   H  0.264261425E+02  0.227986081E+01 -0.125319558E+01
     4
 # iter = 56000  time[fs]=56.00000
   C -0.663601092E+01 -0.115377660E+00  0.303740035E+00
   C  0.634125617E+01 -0.365070600E-01  0.106062501E+00
   H -0.276663424E+02 -0.228829826E+01 -0.203633068E+01
   H  0.267804102E+02  0.231069085E+01 -0.126954854E+01
     4
 # iter = 56500  time[fs]=56.50000
   C -0.673917982E+01 -0.116586219E+00  0.308223931E+00
   C  0.643993853E+01 -0.370965631E-01  0.107562810E+00
   H -0.280359827E+02 -0.231891091E+01 -0.206353703E+01
   H  0.271348012E+02  0.234153340E+01 -0.128590823E+01
     4
 # iter = 57000  time[fs]=57.00000
   C -0.684245980E+01 -0.117795014E+00  0.312710378E+00
   C  0.653873147E+01 -0.376859716E-01  0.109061966E+00
   H -0.284057370E+02 -0.234953405E+01 -0.209075359E+01
   H  0.274893124E+02  0.237238815E+01 -0.130227449E+01
     4
 # iter = 57500  time[fs]=57.50000
   C -0.694584753E+01 -0.119004030E+00  0.317199302E+00
   C  0.663763163E+01 -0.382752979E-01  0.110560007E+00
   H -0.287756024E+02 -0.238016745E+01 -0.211798011E+01
   H  0.278439409E+02  0.240325481E+01 -0.131864716E+01
     4
 # iter = 58000  time[fs]=58.00000
   C -0.704933978E+01 -0.120213252E+00  0.321690635E+00
   C  0.673663583E+01 -0.388645532E-01  0.112056972E+00
   H -0.291455762E+02 -0.241081084E+01 -0.214521635E+01
   H  0.281986836E+02  0.243413309E+01 -0.133502608E+01
     4
 # iter = 58500  time[fs]=58.50000
   C -0.715293348E+01 -0.121422667E+00  0.326184310E+00
   C  0.683574099E+01 -0.394537481E-01  0.113552893E+00
   H -0.295156558E+02 -0.244146399E+01 -0.217246207E+01
   H  0.285535379E+02  0.246502272E+01 -0.135141111E+01
     4
 # iter = 59000  time[fs]=59.00000
   C -0.725662570E+01 -0.122632262E+00  0.330680262E+00
   C  0.693494420E+01 -0.400428926E-01  0.115047806E+00
   H -0.298858385E+02 -0.247212667E+01 -0.219971706E+01
   H  0.289085010E+02  0.249592343E+01 -0.136780209E+01
     4
 # iter = 59500  time[fs]=59.50000
   C -0.736041361E+01 -0.123842025E+00  0.335178431E+00
   C  0.703424263E+01 -0.406319957E-01  0.116541741E+00
   H -0.302561218E+02 -0.250279866E+01 -0.222698109E+01
   H  0.292635704E+02  0.252683497E+01 -0.138419890E+01
     4
 # iter = 60000  time[fs]=60.00000
   C -0.746429453E+01 -0.125051945E+00  0.339678757E+00
   C  0.713363361E+01 -0.412210660E-01  0.118034729E+00
   H -0.306265034E+02 -0.253347973E+01 -0.225425396E+01
   H  0.296187435E+02  0.255775709E+01 -0.140060139E+01
     4
 # iter = 60500  time[fs]=60.50000
   C -0.756826584E+01 -0.126262012E+00  0.344181184E+00
   C  0.723311454E+01 -0.418101112E-01  0.119526799E+00
   H -0.309969810E+02 -0.256416969E+01 -0.228153548E+01
   H  0.299740180E+02  0.258868954E+01 -0.141700944E+01
     4
 # iter = 61000  time[fs]=61.00000
   C -0.767232508E+01 -0.127472215E+00  0.348685657E+00
   C  0.733268296E+01 -0.423991389E-01  0.121017979E+00
   H -0.313675523E+02 -0.259486832E+01 -0.230882543E+01
   H  0.303293915E+02  0.261963211E+01 -0.143342291E+01
     4
 # iter = 61500  time[fs]=61.50000
   C -0.777646985E+01 -0.128682545E+00  0.353192124E+00
   C  0.743233647E+01 -0.429881557E-01  0.122508297E+00
   H -0.317382152E+02 -0.262557544E+01 -0.233612365E+01
   H  0.306848617E+02  0.265058456E+01 -0.144984170E+01
     4
 # iter = 62000  time[fs]=62.00000
   C -0.788069786E+01 -0.129892995E+00  0.357700535E+00
   C  0.753207280E+01 -0.435771680E-01  0.123997776E+00
   H -0.321089676E+02 -0.265629086E+01 -0.236342994E+01
   H  0.310404265E+02  0.268154667E+01 -0.146626568E+01
     4
 # iter = 62500  time[fs]=62.50000
   C -0.798500690E+01 -0.131103554E+00  0.362210840E+00
   C  0.763188975E+01 -0.441661818E-01  0.125486442E+00
   H -0.324798075E+02 -0.268701440E+01 -0.239074414E+01
   H  0.313960838E+02  0.271251825E+01 -0.148269474E+01
     4
 # iter = 63000  time[fs]=63.00000
   C -0.808939486E+01 -0.132314216E+00  0.366722994E+00
   C  0.773178521E+01 -0.447552025E-01  0.126974319E+00
   H -0.328507330E+02 -0.271774587E+01 -0.241806606E+01
   H  0.317518316E+02  0.274349908E+01 -0.149912877E+01
     4
 # iter = 63500  time[fs]=63.50000
   C -0.819385969E+01 -0.133524974E+00  0.371236951E+00
   C  0.783175714E+01 -0.453442353E-01  0.128461428E+00
   H -0.332217421E+02 -0.274848512E+01 -0.244539555E+01
   H  0.321076678E+02  0.277448898E+01 -0.151556766E+01
     4
 # iter = 64000  time[fs]=64.00000
   C -0.829839944E+01 -0.134735820E+00  0.375752667E+00
   C  0.793180359E+01 -0.459332848E-01  0.129947791E+00
   H -0.335928331E+02 -0.277923198E+01 -0.247273245E+01
   H  0.324635906E+02  0.280548774E+01 -0.153201132E+01
     4
 # iter = 64500  time[fs]=64.50000
   C -0.840301221E+01 -0.135946749E+00  0.380270102E+00
   C  0.803192268E+01 -0.465223555E-01  0.131433430E+00
   H -0.339640042E+02 -0.280998628E+01 -0.250007660E+01
   H  0.328195981E+02  0.283649520E+01 -0.154845963E+01
     4
 # iter = 65000  time[fs]=65.00000
   C -0.850769617E+01 -0.137157753E+00  0.384789214E+00
   C  0.813211259E+01 -0.471114515E-01  0.132918364E+00
   H -0.343352537E+02 -0.284074788E+01 -0.252742786E+01
   H  0.331756886E+02  0.286751116E+01 -0.156491252E+01
     4
 # iter = 65500  time[fs]=65.50000
   C -0.861244959E+01 -0.138368828E+00  0.389309964E+00
   C  0.823237157E+01 -0.477005766E-01  0.134402612E+00
   H -0.347065800E+02 -0.287151662E+01 -0.255478608E+01
   H  0.335318603E+02  0.289853546E+01 -0.158136987E+01
     4
 # iter = 66000  time[fs]=66.00000
   C -0.871727075E+01 -0.139579967E+00  0.393832315E+00
   C  0.833269794E+01 -0.482897343E-01  0.135886192E+00
   H -0.350779814E+02 -0.290229236E+01 -0.258215112E+01
   H  0.338881115E+02  0.292956792E+01 -0.159783160E+01
     4
 # iter = 66500  time[fs]=66.50000
   C -0.882215804E+01 -0.140791167E+00  0.398356231E+00
   C  0.843309007E+01 -0.488789280E-01  0.137369123E+00
   H -0.354494564E+02 -0.293307496E+01 -0.260952284E+01
   H  0.342444407E+02  0.296060840E+01 -0.161429763E+01
     4
 # iter = 67000  time[fs]=67.00000
   C -0.892710988E+01 -0.142002421E+00  0.402881676E+00
   C  0.853354640E+01 -0.494681606E-01  0.138851421E+00
   H -0.358210035E+02 -0.296386427E+01 -0.263690111E+01
   H  0.346008462E+02  0.299165672E+01 -0.163076787E+01
     4
 # iter = 67500  time[fs]=67.50000
   C -0.903212474E+01 -0.143213726E+00  0.407408616E+00
   C  0.863406541E+01 -0.500574351E-01  0.140333102E+00
   H -0.361926213E+02 -0.299466018E+01 -0.266428580E+01
   H  0.349573264E+02  0.302271273E+01 -0.164724223E+01
     4
 # iter = 68000  time[fs]=68.00000
   C -0.913720115E+01 -0.144425076E+00  0.411937018E+00
   C  0.873464563E+01 -0.506467541E-01  0.141814184E+00
   H -0.365643083E+02 -0.302546255E+01 -0.269167679E+01
   H  0.353138801E+02  0.305377630E+01 -0.166372064E+01
     4
 # iter = 68500  time[fs]=68.50000
   C -0.924233771E+01 -0.145636469E+00  0.416466851E+00
   C  0.883528566E+01 -0.512361199E-01  0.143294680E+00
   H -0.369360631E+02 -0.305627125E+01 -0.271907396E+01
   H  0.356705055E+02  0.308484726E+01 -0.168020301E+01
     4
 # iter = 69000  time[fs]=69.00000
   C -0.934753304E+01 -0.146847900E+00  0.420998084E+00
   C  0.893598412E+01 -0.518255349E-01  0.144774605E+00
   H -0.373078845E+02 -0.308708616E+01 -0.274647719E+01
   H  0.360272015E+02  0.311592549E+01 -0.169668928E+01
     4
 # iter = 69500  time[fs]=69.50000
   C -0.945278580E+01 -0.148059365E+00  0.425530687E+00
   C  0.903673971E+01 -0.524150011E-01  0.146253975E+00
   H -0.376797712E+02 -0.311790717E+01 -0.277388636E+01
   H  0.363839666E+02  0.314701084E+01 -0.171317936E+01
     4
 # iter = 70000  time[fs]=70.00000
   C -0.955809473E+01 -0.149270862E+00  0.430064631E+00
   C  0.913755114E+01 -0.530045205E-01  0.147732801E+00
   H -0.380517218E+02 -0.314873417E+01 -0.280130137E+01
   H  0.367407996E+02  0.317810318E+01 -0.172967319E+01
     4
 # iter = 70500  time[fs]=70.50000
   C -0.966345858E+01 -0.150482386E+00  0.434599888E+00
   C  0.923841717E+01 -0.535940949E-01  0.149211098E+00
   H -0.384237352E+02 -0.317956703E+01 -0.282872210E+01
   H  0.370976990E+02  0.320920239E+01 -0.174617070E+01
     4
 # iter = 71000  time[fs]=71.00000
   C -0.976887615E+01 -0.151693935E+00  0.439136431E+00
   C  0.933933662E+01 -0.541837259E-01  0.150688878E+00
   H -0.387958102E+02 -0.321040566E+01 -0.285614846E+01
   H  0.374546637E+02  0.324030834E+01 -0.176267181E+01
     4
 # iter = 71500  time[fs]=71.50000
   C -0.987434627E+01 -0.152905506E+00  0.443674234E+00
   C  0.944030832E+01 -0.547734150E-01  0.152166154E+00
   H -0.391679456E+02 -0.324124994E+01 -0.288358033E+01
   H  0.378116925E+02  0.327142090E+01 -0.177917647E+01
     4
 # iter = 72000  time[fs]=72.00000
   C -0.997986783E+01 -0.154117097E+00  0.448213271E+00
   C  0.954133115E+01 -0.553631636E-01  0.153642936E+00
   H -0.395401403E+02 -0.327209977E+01 -0.291101763E+01
   H  0.381687842E+02  0.330253996E+01 -0.179568461E+01
     4
 # iter = 72500  time[fs]=72.50000
   C -0.100854397E+02 -0.155328703E+00  0.452753518E+00
   C  0.964240404E+01 -0.559529730E-01  0.155119238E+00
   H -0.399123933E+02 -0.330295506E+01 -0.293846024E+01
   H  0.385259377E+02  0.333366540E+01 -0.181219617E+01
     4
 # iter = 73000  time[fs]=73.00000
   C -0.101910609E+02 -0.156540324E+00  0.457294950E+00
   C  0.974352592E+01 -0.565428445E-01  0.156595070E+00
   H -0.402847034E+02 -0.333381571E+01 -0.296590809E+01
   H  0.388831517E+02  0.336479712E+01 -0.182871108E+01
     4
 # iter = 73500  time[fs]=73.50000
   C -0.102967304E+02 -0.157751956E+00  0.461837545E+00
   C  0.984469578E+01 -0.571327790E-01  0.158070442E+00
   H -0.406570697E+02 -0.336468162E+01 -0.299336108E+01
   H  0.392404254E+02  0.339593499E+01 -0.184522929E+01
     4
 # iter = 74000  time[fs]=74.00000
   C -0.104024471E+02 -0.158963598E+00  0.466381279E+00
   C  0.994591263E+01 -0.577227775E-01  0.159545365E+00
   H -0.410294910E+02 -0.339555271E+01 -0.302081911E+01
   H  0.395977575E+02  0.342707891E+01 -0.186175073E+01
     4
 # iter = 74500  time[fs]=74.50000
   C -0.105082101E+02 -0.160175247E+00  0.470926131E+00
   C  0.100471755E+02 -0.583128410E-01  0.161019850E+00
   H -0.414019666E+02 -0.342642887E+01 -0.304828211E+01
   H  0.399551470E+02  0.345822879E+01 -0.187827537E+01
     4
 # iter = 75000  time[fs]=75.00000
   C -0.106140185E+02 -0.161386901E+00  0.475472079E+00
   C  0.101484835E+02 -0.589029703E-01  0.162493905E+00
   H -0.417744954E+02 -0.345731003E+01 -0.307574998E+01
   H  0.403125930E+02  0.348938452E+01 -0.189480313E+01
     4
 # iter = 75500  time[fs]=75.50000
   C -0.107198714E+02 -0.162598559E+00  0.480019103E+00
   C  0.102498357E+02 -0.594931661E-01  0.163967540E+00
   H -0.421470764E+02 -0.348819610E+01 -0.310322265E+01
   H  0.406700946E+02  0.352054599E+01 -0.191133397E+01
     4
 # iter = 76000  time[fs]=76.00000
   C -0.108257678E+02 -0.163810219E+00  0.484567183E+00
   C  0.103512312E+02 -0.600834291E-01  0.165440765E+00
   H -0.425197088E+02 -0.351908700E+01 -0.313070004E+01
   H  0.410276506E+02  0.355171312E+01 -0.192786783E+01
     4
 # iter = 76500  time[fs]=76.50000
   C -0.109317070E+02 -0.165021879E+00  0.489116299E+00
   C  0.104526692E+02 -0.606737598E-01  0.166913588E+00
   H -0.428923917E+02 -0.354998264E+01 -0.315818205E+01
   H  0.413852602E+02  0.358288581E+01 -0.194440467E+01
     4
 # iter = 77000  time[fs]=77.00000
   C -0.110376881E+02 -0.166233537E+00  0.493666431E+00
   C  0.105541488E+02 -0.612641589E-01  0.168386017E+00
   H -0.432651243E+02 -0.358088294E+01 -0.318566863E+01
   H  0.417429226E+02  0.361406396E+01 -0.196094443E+01
     4
 # iter = 77500  time[fs]=77.50000
   C -0.111437103E+02 -0.167445192E+00  0.498217562E+00
   C  0.106556692E+02 -0.618546267E-01  0.169858062E+00
   H -0.436379056E+02 -0.361178784E+01 -0.321315969E+01
   H  0.421006368E+02  0.364524750E+01 -0.197748706E+01
     4
 # iter = 78000  time[fs]=78.00000
   C -0.112497727E+02 -0.168656843E+00  0.502769673E+00
   C  0.107572297E+02 -0.624451638E-01  0.171329730E+00
   H -0.440107350E+02 -0.364269726E+01 -0.324065517E+01
   H  0.424584019E+02  0.367643632E+01 -0.199403253E+01
     4
 # iter = 78500  time[fs]=78.50000
   C -0.113558748E+02 -0.169868488E+00  0.507322747E+00
   C  0.108588296E+02 -0.630357704E-01  0.172801028E+00
   H -0.443836116E+02 -0.367361111E+01 -0.326815498E+01
   H  0.428162171E+02  0.370763036E+01 -0.201058078E+01
     4
 # iter = 79000  time[fs]=79.00000
   C -0.114620156E+02 -0.171080126E+00  0.511876767E+00
   C  0.109604680E+02 -0.636264469E-01  0.174271965E+00
   H -0.447565345E+02 -0.370452934E+01 -0.329565907E+01
   H  0.431740817E+02  0.373882951E+01 -0.202713177E+01
     4
 # iter = 79500  time[fs]=79.50000
   C -0.115681945E+02 -0.172291755E+00  0.516431716E+00
   C  0.110621442E+02 -0.642171936E-01  0.175742548E+00
   H -0.451295032E+02 -0.373545186E+01 -0.332316735E+01
   H  0.435319948E+02  0.377003371E+01 -0.204368546E+01
     4
 # iter = 80000  time[fs]=80.00000
   C -0.116744108E+02 -0.173503375E+00  0.520987578E+00
   C  0.111638576E+02 -0.648080106E-01  0.177212784E+00
   H -0.455025168E+02 -0.376637862E+01 -0.335067978E+01
   H  0.438899556E+02  0.380124288E+01 -0.206024179E+01
