     4
 # iter = 25000  time[fs]=25.00000
   C -0.946009855E+00  0.193057374E-01 -0.102638325E-03
   C  0.105052052E+01 -0.140521393E-02 -0.547204436E-01
   H -0.517442961E+01 -0.294077077E+00  0.228610282E+00
   H  0.534803249E+01  0.652758903E-01  0.487128634E+00
     4
 # iter = 25500  time[fs]=25.50000
   C -0.988725165E+00  0.205506964E-01 -0.797394256E-03
   C  0.109655419E+01 -0.158858611E-02 -0.575757845E-01
   H -0.550591175E+01 -0.314084541E+00  0.241722124E+00
   H  0.566957694E+01  0.700217838E-01  0.519024150E+00
     4
 # iter = 26000  time[fs]=26.00000
   C -0.103422534E+01  0.218359043E-01 -0.142684233E-02
   C  0.114537859E+01 -0.180130940E-02 -0.605290688E-01
   H -0.584014392E+01 -0.334263528E+00  0.254953218E+00
   H  0.599380083E+01  0.748084267E-01  0.551192043E+00
     4
 # iter = 26500  time[fs]=26.50000
   C -0.108227809E+01  0.231582238E-01 -0.199645979E-02
   C  0.119675969E+01 -0.204151321E-02 -0.635712053E-01
   H -0.617681530E+01 -0.354594726E+00  0.268289258E+00
   H  0.632041460E+01  0.796317087E-01  0.583603247E+00
     4
 # iter = 27000  time[fs]=27.00000
   C -0.113266798E+01  0.245147767E-01 -0.251135223E-02
   C  0.125048072E+01 -0.230737763E-02 -0.666940439E-01
   H -0.651566408E+01 -0.375061919E+00  0.281718345E+00
   H  0.664917233E+01  0.844881116E-01  0.616233130E+00
     4
 # iter = 27500  time[fs]=27.50000
   C -0.118519693E+01  0.259029250E-01 -0.297622624E-02
   C  0.130634259E+01 -0.259715796E-02 -0.698902897E-01
   H -0.685646772E+01 -0.395651353E+00  0.295230476E+00
   H  0.697986350E+01  0.893746007E-01  0.649060634E+00
     4
 # iter = 28000  time[fs]=28.00000
   C -0.123968400E+01  0.273202546E-01 -0.339538623E-02
   C  0.136416361E+01 -0.290920054E-02 -0.731534189E-01
   H -0.719903564E+01 -0.416351265E+00  0.308817167E+00
   H  0.731230657E+01  0.942885403E-01  0.682067609E+00
     4
 # iter = 28500  time[fs]=28.50000
   C -0.129596465E+01  0.287645589E-01 -0.377274677E-02
   C  0.142377866E+01 -0.324195182E-02 -0.764775996E-01
   H -0.754320339E+01 -0.437151516E+00  0.322471162E+00
   H  0.764634403E+01  0.992276269E-01  0.715238306E+00
     4
 # iter = 29000  time[fs]=29.00000
   C -0.135388973E+01  0.302338231E-01 -0.411185421E-02
   C  0.148503816E+01 -0.359396208E-02 -0.798576176E-01
   H -0.788882817E+01 -0.458043301E+00  0.336186206E+00
   H  0.798183832E+01  0.104189835E+00  0.748558965E+00
     4
 # iter = 29500  time[fs]=29.50000
   C -0.141332433E+01  0.317262097E-01 -0.441591332E-02
   C  0.154780687E+01 -0.396388543E-02 -0.832888084E-01
   H -0.823578521E+01 -0.479018928E+00  0.349956872E+00
   H  0.831866869E+01  0.109173376E+00  0.782017495E+00
     4
 # iter = 30000  time[fs]=30.00000
   C -0.147414657E+01  0.332400428E-01 -0.468781590E-02
   C  0.161196264E+01 -0.435047707E-02 -0.867669950E-01
   H -0.858396489E+01 -0.500071637E+00  0.363778420E+00
   H  0.865672858E+01  0.114176659E+00  0.815603214E+00
     4
 # iter = 30500  time[fs]=30.50000
   C -0.153624635E+01  0.347737947E-01 -0.493016959E-02
   C  0.167739519E+01 -0.475258887E-02 -0.902884328E-01
   H -0.893327044E+01 -0.521195454E+00  0.377646690E+00
   H  0.899592350E+01  0.119198266E+00  0.849306639E+00
     4
 # iter = 31000  time[fs]=31.00000
   C -0.159952427E+01  0.363260723E-01 -0.514532571E-02
   C  0.174400496E+01 -0.516916382E-02 -0.938497592E-01
   H -0.928361597E+01 -0.542385077E+00  0.391558007E+00
   H  0.933616931E+01  0.124236928E+00  0.883119310E+00
     4
 # iter = 31500  time[fs]=31.50000
   C -0.166389048E+01  0.378956045E-01 -0.533540526E-02
   C  0.181170202E+01 -0.559922999E-02 -0.974479501E-01
   H -0.963492496E+01 -0.563635772E+00  0.405509111E+00
   H  0.967739077E+01  0.129291502E+00  0.917033648E+00
     4
 # iter = 32000  time[fs]=32.00000
   C -0.172926375E+01  0.394812311E-01 -0.550232302E-02
   C  0.188040503E+01 -0.604189431E-02 -0.101080281E+00
   H -0.998712893E+01 -0.584943302E+00  0.419497097E+00
   H  0.100195203E+02  0.134360956E+00  0.951042840E+00
     4
 # iter = 32500  time[fs]=32.50000
   C -0.179557052E+01  0.410818918E-01 -0.564780942E-02
   C  0.195004041E+01 -0.649633632E-02 -0.104744292E+00
   H -0.103401664E+02 -0.606303855E+00  0.433519365E+00
   H  0.103624971E+02  0.139444357E+00  0.985140734E+00
     4
 # iter = 33000  time[fs]=33.00000
   C -0.186274413E+01  0.426966169E-01 -0.577343026E-02
   C  0.202054144E+01 -0.696180221E-02 -0.108437758E+00
   H -0.106939818E+02 -0.627713992E+00  0.447573581E+00
   H  0.107062662E+02  0.144540855E+00  0.101932176E+01
     4
 # iter = 33500  time[fs]=33.50000
   C -0.193072407E+01  0.443245182E-01 -0.588060437E-02
   C  0.209184758E+01 -0.743759913E-02 -0.112158664E+00
   H -0.110485252E+02 -0.649170596E+00  0.461657638E+00
   H  0.110507776E+02  0.149649679E+00  0.105358086E+01
     4
 # iter = 34000  time[fs]=34.00000
   C -0.199945530E+01  0.459647816E-01 -0.597061941E-02
   C  0.216390380E+01 -0.792308990E-02 -0.115905178E+00
   H -0.114037509E+02 -0.670670838E+00  0.475769630E+00
   H  0.113959860E+02  0.154770119E+00  0.108791342E+01
     4
 # iter = 34500  time[fs]=34.50000
   C -0.206888774E+01  0.476166597E-01 -0.604464586E-02
   C  0.223666001E+01 -0.841768805E-02 -0.119675636E+00
   H -0.117596175E+02 -0.692212137E+00  0.489907829E+00
   H  0.117418500E+02  0.159901531E+00  0.112231523E+01
     4
 # iter = 35000  time[fs]=35.00000
   C -0.213897569E+01  0.492794654E-01 -0.610374942E-02
   C  0.231007051E+01 -0.892085334E-02 -0.123468517E+00
   H -0.121160874E+02 -0.713792136E+00  0.504070661E+00
   H  0.120883318E+02  0.165043317E+00  0.115678241E+01
     4
 # iter = 35500  time[fs]=35.50000
   C -0.220967741E+01  0.509525661E-01 -0.614890209E-02
   C  0.238409359E+01 -0.943208759E-02 -0.127282436E+00
   H -0.124731259E+02 -0.735408676E+00  0.518256687E+00
   H  0.124353966E+02  0.170194931E+00  0.119131144E+01
     4
 # iter = 36000  time[fs]=36.00000
   C -0.228095472E+01  0.526353788E-01 -0.618099188E-02
   C  0.245869104E+01 -0.995093090E-02 -0.131116122E+00
   H -0.128307013E+02 -0.757059773E+00  0.532464593E+00
   H  0.127830127E+02  0.175355868E+00  0.122589904E+01
     4
 # iter = 36500  time[fs]=36.50000
   C -0.235277259E+01  0.543273651E-01 -0.620083145E-02
   C  0.253382790E+01 -0.104769583E-01 -0.134968410E+00
   H -0.131887844E+02 -0.778743601E+00  0.546693171E+00
   H  0.131311507E+02  0.180525659E+00  0.126054219E+01
     4
 # iter = 37000  time[fs]=37.00000
   C -0.242509888E+01  0.560280276E-01 -0.620916578E-02
   C  0.260947202E+01 -0.110097765E-01 -0.138838231E+00
   H -0.135473485E+02 -0.800458474E+00  0.560941312E+00
   H  0.134797834E+02  0.185703872E+00  0.129523811E+01
     4
 # iter = 37500  time[fs]=37.50000
   C -0.249790404E+01  0.577369055E-01 -0.620667895E-02
   C  0.268559387E+01 -0.115490212E-01 -0.142724601E+00
   H -0.139063687E+02 -0.822202834E+00  0.575207991E+00
   H  0.138288859E+02  0.190890106E+00  0.132998423E+01
     4
 # iter = 38000  time[fs]=38.00000
   C -0.257116083E+01  0.594535718E-01 -0.619400015E-02
   C  0.276216624E+01 -0.120943546E-01 -0.146626611E+00
   H -0.142658220E+02 -0.843975238E+00  0.589492263E+00
   H  0.141784348E+02  0.196083985E+00  0.136477813E+01
     4
 # iter = 38500  time[fs]=38.50000
   C -0.264484414E+01  0.611776302E-01 -0.617170901E-02
   C  0.283916403E+01 -0.126454629E-01 -0.150543424E+00
   H -0.146256872E+02 -0.865774344E+00  0.603793253E+00
   H  0.145284087E+02  0.201285162E+00  0.139961760E+01
     4
 # iter = 39000  time[fs]=39.00000
   C -0.271893074E+01  0.629087121E-01 -0.614034040E-02
   C  0.291656406E+01 -0.132020544E-01 -0.154474263E+00
   H -0.149859445E+02 -0.887598907E+00  0.618110149E+00
   H  0.148787874E+02  0.206493313E+00  0.143450055E+01
     4
 # iter = 39500  time[fs]=39.50000
   C -0.279339916E+01  0.646464745E-01 -0.610038861E-02
   C  0.299434487E+01 -0.137638576E-01 -0.158418411E+00
   H -0.153465756E+02 -0.909447765E+00  0.632442196E+00
   H  0.152295524E+02  0.211708132E+00  0.146942505E+01
     4
 # iter = 40000  time[fs]=40.00000
   C -0.286822948E+01  0.663905978E-01 -0.605231112E-02
   C  0.307248657E+01 -0.143306195E-01 -0.162375200E+00
   H -0.157075633E+02 -0.931319836E+00  0.646788693E+00
   H  0.155806863E+02  0.216929336E+00  0.150438928E+01
     4
 # iter = 40500  time[fs]=40.50000
   C -0.294340323E+01  0.681407837E-01 -0.599653203E-02
   C  0.315097071E+01 -0.149021037E-01 -0.166344010E+00
   H -0.160688917E+02 -0.953214106E+00  0.661148985E+00
   H  0.159321726E+02  0.222156659E+00  0.153939156E+01
     4
 # iter = 41000  time[fs]=41.00000
   C -0.301890324E+01  0.698967534E-01 -0.593344498E-02
   C  0.322978013E+01 -0.154780899E-01 -0.170324264E+00
   H -0.164305458E+02 -0.975129628E+00  0.675522461E+00
   H  0.162839963E+02  0.227389850E+00  0.157443029E+01
     4
 # iter = 41500  time[fs]=41.50000
   C -0.309471351E+01  0.716582461E-01 -0.586341593E-02
   C  0.330889887E+01 -0.160583716E-01 -0.174315425E+00
   H -0.167925116E+02 -0.997065513E+00  0.689908549E+00
   H  0.166361430E+02  0.232628673E+00  0.160950398E+01
     4
 # iter = 42000  time[fs]=42.00000
   C -0.317081914E+01  0.734250178E-01 -0.578678551E-02
   C  0.338831206E+01 -0.166427556E-01 -0.178316990E+00
   H -0.171547761E+02 -0.101902093E+01  0.704306714E+00
   H  0.169885993E+02  0.237872909E+00  0.164461122E+01
     4
 # iter = 42500  time[fs]=42.50000
   C -0.324720623E+01  0.751968393E-01 -0.570387124E-02
   C  0.346800581E+01 -0.172310609E-01 -0.182328490E+00
   H -0.175173269E+02 -0.104099509E+01  0.718716454E+00
   H  0.173413527E+02  0.243122349E+00  0.167975071E+01
     4
 # iter = 43000  time[fs]=43.00000
   C -0.332386179E+01  0.769734957E-01 -0.561496947E-02
   C  0.354796716E+01 -0.178231176E-01 -0.186349486E+00
   H -0.178801524E+02 -0.106298726E+01  0.733137297E+00
   H  0.176943913E+02  0.248376795E+00  0.171492119E+01
     4
 # iter = 43500  time[fs]=43.50000
   C -0.340077366E+01  0.787547849E-01 -0.552035711E-02
   C  0.362818397E+01 -0.184187661E-01 -0.190379566E+00
   H -0.182432417E+02 -0.108499675E+01  0.747568801E+00
   H  0.180477040E+02  0.253636062E+00  0.175012150E+01
     4
 # iter = 44000  time[fs]=44.00000
   C -0.347793046E+01  0.805405170E-01 -0.542029327E-02
   C  0.370864487E+01 -0.190178562E-01 -0.194418344E+00
   H -0.186065848E+02 -0.110702289E+01  0.762010546E+00
   H  0.184012803E+02  0.258899975E+00  0.178535052E+01
     4
 # iter = 44500  time[fs]=44.50000
   C -0.355532150E+01  0.823305129E-01 -0.531502065E-02
   C  0.378933922E+01 -0.196202468E-01 -0.198465458E+00
   H -0.189701717E+02 -0.112906508E+01  0.776462141E+00
   H  0.187551102E+02  0.264168367E+00  0.182060722E+01
     4
 # iter = 45000  time[fs]=45.00000
   C -0.363293677E+01  0.841246038E-01 -0.520476687E-02
   C  0.387025700E+01 -0.202258045E-01 -0.202520566E+00
   H -0.193339935E+02 -0.115112272E+01  0.790923214E+00
   H  0.191091844E+02  0.269441082E+00  0.185589059E+01
     4
 # iter = 45500  time[fs]=45.50000
   C -0.371076684E+01  0.859226305E-01 -0.508974563E-02
   C  0.395138882E+01 -0.208344041E-01 -0.206583347E+00
   H -0.196980414E+02 -0.117319526E+01  0.805393413E+00
   H  0.194634940E+02  0.274717969E+00  0.189119971E+01
     4
 # iter = 46000  time[fs]=46.00000
   C -0.378880286E+01  0.877244427E-01 -0.497015778E-02
   C  0.403272583E+01 -0.214459268E-01 -0.210653498E+00
   H -0.200623074E+02 -0.119528218E+01  0.819872409E+00
   H  0.198180306E+02  0.279998888E+00  0.192653367E+01
     4
 # iter = 46500  time[fs]=46.50000
   C -0.386703646E+01  0.895298981E-01 -0.484619230E-02
   C  0.411425970E+01 -0.220602608E-01 -0.214730735E+00
   H -0.204267837E+02 -0.121738298E+01  0.834359885E+00
   H  0.201727862E+02  0.285283704E+00  0.196189165E+01
     4
 # iter = 47000  time[fs]=47.00000
   C -0.394545979E+01  0.913388622E-01 -0.471802720E-02
   C  0.419598258E+01 -0.226773001E-01 -0.218814787E+00
   H -0.207914629E+02 -0.123949719E+01  0.848855546E+00
   H  0.205277533E+02  0.290572288E+00  0.199727283E+01
     4
 # iter = 47500  time[fs]=47.50000
   C -0.402406541E+01  0.931512075E-01 -0.458583027E-02
   C  0.427788706E+01 -0.232969445E-01 -0.222905400E+00
   H -0.211563381E+02 -0.126162436E+01  0.863359108E+00
   H  0.208829248E+02  0.295864520E+00  0.203267645E+01
     4
 # iter = 48000  time[fs]=48.00000
   C -0.410284631E+01  0.949668132E-01 -0.444975988E-02
   C  0.435996614E+01 -0.239190990E-01 -0.227002332E+00
   H -0.215214027E+02 -0.128376407E+01  0.877870304E+00
   H  0.212382937E+02  0.301160282E+00  0.206810180E+01
     4
 # iter = 48500  time[fs]=48.50000
   C -0.418179585E+01  0.967855647E-01 -0.430996562E-02
   C  0.444221321E+01 -0.245436736E-01 -0.231105355E+00
   H -0.218866504E+02 -0.130591590E+01  0.892388880E+00
   H  0.215938537E+02  0.306459466E+00  0.210354816E+01
     4
 # iter = 49000  time[fs]=49.00000
   C -0.426090776E+01  0.986073531E-01 -0.416658892E-02
   C  0.452462201E+01 -0.251705828E-01 -0.235214253E+00
   H -0.222520752E+02 -0.132807948E+01  0.906914593E+00
   H  0.219495986E+02  0.311761965E+00  0.213901490E+01
     4
 # iter = 49500  time[fs]=49.50000
   C -0.434017610E+01  0.100432075E+00 -0.401976362E-02
   C  0.460718659E+01 -0.257997456E-01 -0.239328820E+00
   H -0.226176715E+02 -0.135025443E+01  0.921447213E+00
   H  0.223055224E+02  0.317067679E+00  0.217450138E+01
     4
 # iter = 50000  time[fs]=50.00000
   C -0.441959522E+01  0.102259632E+00 -0.386961646E-02
   C  0.468990135E+01 -0.264310847E-01 -0.243448861E+00
   H -0.229834338E+02 -0.137244041E+01  0.935986521E+00
   H  0.226616196E+02  0.322376512E+00  0.221000699E+01
     4
 # iter = 50500  time[fs]=50.50000
   C -0.449915978E+01  0.104089931E+00 -0.371626760E-02
   C  0.477276095E+01 -0.270645268E-01 -0.247574191E+00
   H -0.233493570E+02 -0.139463708E+01  0.950532308E+00
   H  0.230178849E+02  0.327688372E+00  0.224553118E+01
     4
 # iter = 51000  time[fs]=51.00000
   C -0.457886471E+01  0.105922882E+00 -0.355983103E-02
   C  0.485576034E+01 -0.277000022E-01 -0.251704634E+00
   H -0.237154361E+02 -0.141684412E+01  0.965084373E+00
   H  0.233743131E+02  0.333003171E+00  0.228107338E+01
     4
 # iter = 51500  time[fs]=51.50000
   C -0.465870518E+01  0.107758401E+00 -0.340041498E-02
   C  0.493889469E+01 -0.283374444E-01 -0.255840021E+00
   H -0.240816664E+02 -0.143906122E+01  0.979642527E+00
   H  0.237308993E+02  0.338320825E+00  0.231663309E+01
     4
 # iter = 52000  time[fs]=52.00000
   C -0.473867659E+01  0.109596406E+00 -0.323812229E-02
   C  0.502215943E+01 -0.289767899E-01 -0.259980194E+00
   H -0.244480434E+02 -0.146128809E+01  0.994206587E+00
   H  0.240876390E+02  0.343641253E+00  0.235220978E+01
     4
 # iter = 52500  time[fs]=52.50000
   C -0.481877460E+01  0.111436821E+00 -0.307305073E-02
   C  0.510555022E+01 -0.296179784E-01 -0.264125000E+00
   H -0.248145628E+02 -0.148352446E+01  0.100877638E+01
   H  0.244445276E+02  0.348964379E+00  0.238780300E+01
     4
 # iter = 53000  time[fs]=53.00000
   C -0.489899503E+01  0.113279570E+00 -0.290529336E-02
   C  0.518906290E+01 -0.302609521E-01 -0.268274294E+00
   H -0.251812205E+02 -0.150577005E+01  0.102335174E+01
   H  0.248015609E+02  0.354290129E+00  0.242341227E+01
     4
 # iter = 53500  time[fs]=53.50000
   C -0.497933394E+01  0.115124585E+00 -0.273493880E-02
   C  0.527269353E+01 -0.309056560E-01 -0.272427936E+00
   H -0.255480126E+02 -0.152802461E+01  0.103793251E+01
   H  0.251587348E+02  0.359618431E+00  0.245903716E+01
     4
 # iter = 54000  time[fs]=54.00000
   C -0.505978753E+01  0.116971796E+00 -0.256207148E-02
   C  0.535643834E+01 -0.315520375E-01 -0.276585795E+00
   H -0.259149352E+02 -0.155028788E+01  0.105251853E+01
   H  0.255160453E+02  0.364949218E+00  0.249467724E+01
     4
 # iter = 54500  time[fs]=54.50000
   C -0.514035220E+01  0.118821141E+00 -0.238677193E-02
   C  0.544029374E+01 -0.322000461E-01 -0.280747745E+00
   H -0.262819848E+02 -0.157255964E+01  0.106710966E+01
   H  0.258734887E+02  0.370282424E+00  0.253033210E+01
     4
 # iter = 55000  time[fs]=55.00000
   C -0.522102451E+01  0.120672556E+00 -0.220911697E-02
   C  0.552425629E+01 -0.328496338E-01 -0.284913663E+00
   H -0.266491578E+02 -0.159483966E+01  0.108170575E+01
   H  0.262310615E+02  0.375617985E+00  0.256600137E+01
     4
 # iter = 55500  time[fs]=55.50000
   C -0.530180118E+01  0.122525982E+00 -0.202917999E-02
   C  0.560832272E+01 -0.335007544E-01 -0.289083435E+00
   H -0.270164510E+02 -0.161712772E+01  0.109630669E+01
   H  0.265887601E+02  0.380955842E+00  0.260168465E+01
     4
 # iter = 56000  time[fs]=56.00000
   C -0.538267905E+01  0.124381364E+00 -0.184703107E-02
   C  0.569248989E+01 -0.341533637E-01 -0.293256950E+00
   H -0.273838611E+02 -0.163942361E+01  0.111091232E+01
   H  0.269465812E+02  0.386295937E+00  0.263738160E+01
     4
 # iter = 56500  time[fs]=56.50000
   C -0.546365511E+01  0.126238646E+00 -0.166273722E-02
   C  0.577675480E+01 -0.348074195E-01 -0.297434100E+00
   H -0.277513851E+02 -0.166172713E+01  0.112552254E+01
   H  0.273045216E+02  0.391638213E+00  0.267309186E+01
     4
 # iter = 57000  time[fs]=57.00000
   C -0.554472649E+01  0.128097776E+00 -0.147636255E-02
   C  0.586111457E+01 -0.354628812E-01 -0.301614785E+00
   H -0.281190199E+02 -0.168403808E+01  0.114013721E+01
   H  0.276625783E+02  0.396982617E+00  0.270881510E+01
     4
 # iter = 57500  time[fs]=57.50000
   C -0.562589043E+01  0.129958704E+00 -0.128796842E-02
   C  0.594556647E+01 -0.361197097E-01 -0.305798906E+00
   H -0.284867629E+02 -0.170635629E+01  0.115475624E+01
   H  0.280207483E+02  0.402329096E+00  0.274455100E+01
     4
 # iter = 58000  time[fs]=58.00000
   C -0.570714427E+01  0.131821382E+00 -0.109761359E-02
   C  0.603010785E+01 -0.367778678E-01 -0.309986371E+00
   H -0.288546112E+02 -0.172868156E+01  0.116937950E+01
   H  0.283790287E+02  0.407677601E+00  0.278029925E+01
     4
 # iter = 58500  time[fs]=58.50000
   C -0.578848550E+01  0.133685764E+00 -0.905354354E-03
   C  0.611473619E+01 -0.374373195E-01 -0.314177088E+00
   H -0.292225622E+02 -0.175101373E+01  0.118400689E+01
   H  0.287374169E+02  0.413028083E+00  0.281605956E+01
     4
 # iter = 59000  time[fs]=59.00000
   C -0.586991167E+01  0.135551805E+00 -0.711244708E-03
   C  0.619944907E+01 -0.380980304E-01 -0.318370972E+00
   H -0.295906133E+02 -0.177335263E+01  0.119863831E+01
   H  0.290959101E+02  0.418380496E+00  0.285183163E+01
     4
 # iter = 59500  time[fs]=59.50000
   C -0.595142045E+01  0.137419462E+00 -0.515336433E-03
   C  0.628424416E+01 -0.387599672E-01 -0.322567939E+00
   H -0.299587622E+02 -0.179569811E+01  0.121327366E+01
   H  0.294545058E+02  0.423734794E+00  0.288761518E+01
     4
 # iter = 60000  time[fs]=60.00000
   C -0.603300960E+01  0.139288695E+00 -0.317679227E-03
   C  0.636911923E+01 -0.394230981E-01 -0.326767910E+00
   H -0.303270064E+02 -0.181804999E+01  0.122791284E+01
   H  0.298132016E+02  0.429090935E+00  0.292340996E+01
     4
 # iter = 60500  time[fs]=60.50000
   C -0.611467697E+01  0.141159462E+00 -0.118320813E-03
   C  0.645407212E+01 -0.400873924E-01 -0.330970807E+00
   H -0.306953437E+02 -0.184040814E+01  0.124255576E+01
   H  0.301719951E+02  0.434448877E+00  0.295921570E+01
     4
 # iter = 61000  time[fs]=61.00000
   C -0.619642048E+01  0.143031727E+00  0.826929614E-04
   C  0.653910079E+01 -0.407528206E-01 -0.335176557E+00
   H -0.310637719E+02 -0.186277242E+01  0.125720235E+01
   H  0.305308840E+02  0.439808578E+00  0.299503214E+01
     4
 # iter = 61500  time[fs]=61.50000
   C -0.627823814E+01  0.144905453E+00  0.285318028E-03
   C  0.662420324E+01 -0.414193541E-01 -0.339385088E+00
   H -0.314322889E+02 -0.188514267E+01  0.127185250E+01
   H  0.308898662E+02  0.445170000E+00  0.303085906E+01
     4
 # iter = 62000  time[fs]=62.00000
   C -0.636012804E+01  0.146780603E+00  0.489512012E-03
   C  0.670937756E+01 -0.420869656E-01 -0.343596332E+00
   H -0.318008926E+02 -0.190751877E+01  0.128650613E+01
   H  0.312489394E+02  0.450533105E+00  0.306669622E+01
     4
 # iter = 62500  time[fs]=62.50000
   C -0.644208833E+01  0.148657145E+00  0.695234142E-03
   C  0.679462192E+01 -0.427556286E-01 -0.347810222E+00
   H -0.321695811E+02 -0.192990059E+01  0.130116318E+01
   H  0.316081016E+02  0.455897857E+00  0.310254338E+01
     4
 # iter = 63000  time[fs]=63.00000
   C -0.652411725E+01  0.150535044E+00  0.902445179E-03
   C  0.687993455E+01 -0.434253177E-01 -0.352026694E+00
   H -0.325383524E+02 -0.195228800E+01  0.131582355E+01
   H  0.319673509E+02  0.461264219E+00  0.313840034E+01
     4
 # iter = 63500  time[fs]=63.50000
   C -0.660621306E+01  0.152414268E+00  0.111110734E-02
   C  0.696531375E+01 -0.440960082E-01 -0.356245688E+00
   H -0.329072048E+02 -0.197468088E+01  0.133048719E+01
   H  0.323266853E+02  0.466632158E+00  0.317426688E+01
     4
 # iter = 64000  time[fs]=64.00000
   C -0.668837414E+01  0.154294788E+00  0.132118421E-02
   C  0.705075787E+01 -0.447676765E-01 -0.360467143E+00
   H -0.332761364E+02 -0.199707911E+01  0.134515401E+01
   H  0.326861029E+02  0.472001640E+00  0.321014280E+01
     4
 # iter = 64500  time[fs]=64.50000
   C -0.677059888E+01  0.156176573E+00  0.153264073E-02
   C  0.713626532E+01 -0.454402995E-01 -0.364691002E+00
   H -0.336451455E+02 -0.201948257E+01  0.135982394E+01
   H  0.330456020E+02  0.477372634E+00  0.324602790E+01
     4
 # iter = 65000  time[fs]=65.00000
   C -0.685288575E+01  0.158059595E+00  0.174544306E-02
   C  0.722183459E+01 -0.461138553E-01 -0.368917211E+00
   H -0.340142304E+02 -0.204189116E+01  0.137449692E+01
   H  0.334051808E+02  0.482745107E+00  0.328192199E+01
     4
 # iter = 65500  time[fs]=65.50000
   C -0.693523328E+01  0.159943825E+00  0.195955859E-02
   C  0.730746419E+01 -0.467883223E-01 -0.373145714E+00
   H -0.343833895E+02 -0.206430478E+01  0.138917289E+01
   H  0.337648376E+02  0.488119030E+00  0.331782487E+01
     4
 # iter = 66000  time[fs]=66.00000
   C -0.701764002E+01  0.161829237E+00  0.217495583E-02
   C  0.739315270E+01 -0.474636800E-01 -0.377376461E+00
   H -0.347526213E+02 -0.208672330E+01  0.140385177E+01
   H  0.341245708E+02  0.493494374E+00  0.335373638E+01
     4
 # iter = 66500  time[fs]=66.50000
   C -0.710010461E+01  0.163715806E+00  0.239160439E-02
   C  0.747889875E+01 -0.481399083E-01 -0.381609402E+00
   H -0.351219243E+02 -0.210914665E+01  0.141853352E+01
   H  0.344843788E+02  0.498871109E+00  0.338965634E+01
     4
 # iter = 67000  time[fs]=67.00000
   C -0.718262571E+01  0.165603505E+00  0.260947493E-02
   C  0.756470101E+01 -0.488169879E-01 -0.385844488E+00
   H -0.354912969E+02 -0.213157471E+01  0.143321806E+01
   H  0.348442600E+02  0.504249209E+00  0.342558458E+01
     4
 # iter = 67500  time[fs]=67.50000
   C -0.726520203E+01  0.167492310E+00  0.282853910E-02
   C  0.765055819E+01 -0.494949002E-01 -0.390081672E+00
   H -0.358607377E+02 -0.215400739E+01  0.144790535E+01
   H  0.352042131E+02  0.509628647E+00  0.346152093E+01
     4
 # iter = 68000  time[fs]=68.00000
   C -0.734783232E+01  0.169382198E+00  0.304876951E-02
   C  0.773646906E+01 -0.501736270E-01 -0.394320910E+00
   H -0.362302454E+02 -0.217644460E+01  0.146259533E+01
   H  0.355642364E+02  0.515009396E+00  0.349746523E+01
     4
 # iter = 68500  time[fs]=68.50000
   C -0.743051538E+01  0.171273146E+00  0.327013969E-02
   C  0.782243241E+01 -0.508531507E-01 -0.398562156E+00
   H -0.365998186E+02 -0.219888626E+01  0.147728794E+01
   H  0.359243287E+02  0.520391432E+00  0.353341734E+01
     4
 # iter = 69000  time[fs]=69.00000
   C -0.751325004E+01  0.173165132E+00  0.349262400E-02
   C  0.790844709E+01 -0.515334545E-01 -0.402805370E+00
   H -0.369694561E+02 -0.222133227E+01  0.149198313E+01
   H  0.362844885E+02  0.525774729E+00  0.356937709E+01
     4
 # iter = 69500  time[fs]=69.50000
   C -0.759603517E+01  0.175058135E+00  0.371619769E-02
   C  0.799451196E+01 -0.522145218E-01 -0.407050508E+00
   H -0.373391565E+02 -0.224378256E+01  0.150668085E+01
   H  0.366447146E+02  0.531159265E+00  0.360534435E+01
     4
 # iter = 70000  time[fs]=70.00000
   C -0.767886968E+01  0.176952133E+00  0.394083678E-02
   C  0.808062594E+01 -0.528963367E-01 -0.411297533E+00
   H -0.377089186E+02 -0.226623703E+01  0.152138105E+01
   H  0.370050056E+02  0.536545015E+00  0.364131897E+01
     4
 # iter = 70500  time[fs]=70.50000
   C -0.776175252E+01  0.178847106E+00  0.416651805E-02
   C  0.816678799E+01 -0.535788838E-01 -0.415546404E+00
   H -0.380787413E+02 -0.228869562E+01  0.153608368E+01
   H  0.373653604E+02  0.541931958E+00  0.367730081E+01
     4
 # iter = 71000  time[fs]=71.00000
   C -0.784468265E+01  0.180743035E+00  0.439321904E-02
   C  0.825299707E+01 -0.542621480E-01 -0.419797084E+00
   H -0.384486233E+02 -0.231115824E+01  0.155078870E+01
   H  0.377257776E+02  0.547320071E+00  0.371328974E+01
     4
 # iter = 71500  time[fs]=71.50000
   C -0.792765908E+01  0.182639901E+00  0.462091797E-02
   C  0.833925219E+01 -0.549461149E-01 -0.424049538E+00
   H -0.388185637E+02 -0.233362482E+01  0.156549607E+01
   H  0.380862562E+02  0.552709333E+00  0.374928563E+01
     4
 # iter = 72000  time[fs]=72.00000
   C -0.801068086E+01  0.184537685E+00  0.484959374E-02
   C  0.842555241E+01 -0.556307703E-01 -0.428303729E+00
   H -0.391885611E+02 -0.235609528E+01  0.158020573E+01
   H  0.384467950E+02  0.558099724E+00  0.378528835E+01
     4
 # iter = 72500  time[fs]=72.50000
   C -0.809374704E+01  0.186436370E+00  0.507922592E-02
   C  0.851189678E+01 -0.563161006E-01 -0.432559623E+00
   H -0.395586147E+02 -0.237856957E+01  0.159491764E+01
   H  0.388073928E+02  0.563491223E+00  0.382129778E+01
     4
 # iter = 73000  time[fs]=73.00000
   C -0.817685672E+01  0.188335938E+00  0.530979467E-02
   C  0.859828442E+01 -0.570020924E-01 -0.436817188E+00
   H -0.399287234E+02 -0.240104759E+01  0.160963177E+01
   H  0.391680487E+02  0.568883810E+00  0.385731380E+01
     4
 # iter = 73500  time[fs]=73.50000
   C -0.826000903E+01  0.190236372E+00  0.554128078E-02
   C  0.868471443E+01 -0.576887328E-01 -0.441076390E+00
   H -0.402988861E+02 -0.242352930E+01  0.162434807E+01
   H  0.395287615E+02  0.574277467E+00  0.389333629E+01
     4
 # iter = 74000  time[fs]=74.00000
   C -0.834320310E+01  0.192137655E+00  0.577366558E-02
   C  0.877118598E+01 -0.583760094E-01 -0.445337199E+00
   H -0.406691020E+02 -0.244601462E+01  0.163906651E+01
   H  0.398895302E+02  0.579672175E+00  0.392936514E+01
     4
 # iter = 74500  time[fs]=74.50000
   C -0.842643812E+01  0.194039773E+00  0.600693099E-02
   C  0.885769824E+01 -0.590639098E-01 -0.449599583E+00
   H -0.410393699E+02 -0.246850349E+01  0.165378704E+01
   H  0.402503538E+02  0.585067916E+00  0.396540023E+01
     4
 # iter = 75000  time[fs]=75.00000
   C -0.850971327E+01  0.195942708E+00  0.624105942E-02
   C  0.894425040E+01 -0.597524223E-01 -0.453863514E+00
   H -0.414096891E+02 -0.249099586E+01  0.166850962E+01
   H  0.406112313E+02  0.590464671E+00  0.400144147E+01
     4
 # iter = 75500  time[fs]=75.50000
   C -0.859302777E+01  0.197846447E+00  0.647603383E-02
   C  0.903084170E+01 -0.604415353E-01 -0.458128962E+00
   H -0.417800586E+02 -0.251349165E+01  0.168323423E+01
   H  0.409721619E+02  0.595862424E+00  0.403748873E+01
     4
 # iter = 76000  time[fs]=76.00000
   C -0.867638088E+01  0.199750974E+00  0.671183765E-02
   C  0.911747138E+01 -0.611312377E-01 -0.462395899E+00
   H -0.421504775E+02 -0.253599080E+01  0.169796083E+01
   H  0.413331445E+02  0.601261159E+00  0.407354193E+01
     4
 # iter = 76500  time[fs]=76.50000
   C -0.875977184E+01  0.201656275E+00  0.694845477E-02
   C  0.920413869E+01 -0.618215186E-01 -0.466664298E+00
   H -0.425209450E+02 -0.255849328E+01  0.171268938E+01
   H  0.416941784E+02  0.606660858E+00  0.410960096E+01
     4
 # iter = 77000  time[fs]=77.00000
   C -0.884319995E+01  0.203562337E+00  0.718586957E-02
   C  0.929084294E+01 -0.625123673E-01 -0.470934132E+00
   H -0.428914603E+02 -0.258099901E+01  0.172741985E+01
   H  0.420552625E+02  0.612061506E+00  0.414566572E+01
     4
 # iter = 77500  time[fs]=77.50000
   C -0.892666450E+01  0.205469145E+00  0.742406685E-02
   C  0.937758342E+01 -0.632037736E-01 -0.475205376E+00
   H -0.432620224E+02 -0.260350794E+01  0.174215220E+01
   H  0.424163961E+02  0.617463086E+00  0.418173613E+01
     4
 # iter = 78000  time[fs]=78.00000
   C -0.901016482E+01  0.207376686E+00  0.766303182E-02
   C  0.946435946E+01 -0.638957274E-01 -0.479478004E+00
   H -0.436326308E+02 -0.262602002E+01  0.175688641E+01
   H  0.427775783E+02  0.622865585E+00  0.421781208E+01
     4
 # iter = 78500  time[fs]=78.50000
   C -0.909370025E+01  0.209284949E+00  0.790275012E-02
   C  0.955117041E+01 -0.645882190E-01 -0.483751992E+00
   H -0.440032845E+02 -0.264853520E+01  0.177162244E+01
   H  0.431388084E+02  0.628268987E+00  0.425389348E+01
     4
 # iter = 79000  time[fs]=79.00000
   C -0.917727014E+01  0.211193919E+00  0.814320776E-02
   C  0.963801562E+01 -0.652812388E-01 -0.488027317E+00
   H -0.443739828E+02 -0.267105342E+01  0.178636027E+01
   H  0.435000855E+02  0.633673278E+00  0.428998025E+01
     4
 # iter = 79500  time[fs]=79.50000
   C -0.926087388E+01  0.213103585E+00  0.838439116E-02
   C  0.972489448E+01 -0.659747776E-01 -0.492303954E+00
   H -0.447447250E+02 -0.269357464E+01  0.180109986E+01
   H  0.438614088E+02  0.639078443E+00  0.432607230E+01
     4
 # iter = 80000  time[fs]=80.00000
   C -0.934451086E+01  0.215013936E+00  0.862628707E-02
   C  0.981180638E+01 -0.666688264E-01 -0.496581881E+00
   H -0.451155104E+02 -0.271609882E+01  0.181584118E+01
   H  0.442227777E+02  0.644484469E+00  0.436216955E+01
