     4
 # iter = 25000  time[fs]=25.00000
   C -0.978027426E+00 -0.364785225E-01 -0.629709982E-01
   C  0.100091634E+01 -0.113881208E-01  0.374935087E-01
   H -0.529167256E+01  0.537716916E+00 -0.278567686E+00
   H  0.535926269E+01 -0.334596315E+00 -0.368167995E-02
     4
 # iter = 25500  time[fs]=25.50000
   C -0.102337363E+01 -0.399687224E-01 -0.637018815E-01
   C  0.104411579E+01 -0.109847126E-01  0.390913460E-01
   H -0.562331395E+01  0.570592428E+00 -0.292997360E+00
   H  0.567757745E+01 -0.357205032E+00 -0.419172403E-02
     4
 # iter = 26000  time[fs]=26.00000
   C -0.107258377E+01 -0.435285275E-01 -0.646223245E-01
   C  0.109117792E+01 -0.105218789E-01  0.408892410E-01
   H -0.595758862E+01  0.603768822E+00 -0.307551738E+00
   H  0.599854071E+01 -0.379992475E+00 -0.470303779E-02
     4
 # iter = 26500  time[fs]=26.50000
   C -0.112532504E+01 -0.471558735E-01 -0.657125952E-01
   C  0.114176923E+01 -0.100003809E-01  0.428662776E-01
   H -0.629420593E+01  0.637212326E+00 -0.322216552E+00
   H  0.632187001E+01 -0.402940512E+00 -0.521568510E-02
     4
 # iter = 27000  time[fs]=27.00000
   C -0.118128506E+01 -0.508481969E-01 -0.669548368E-01
   C  0.119557688E+01 -0.942171153E-02  0.450036079E-01
   H -0.663292032E+01  0.670894631E+00 -0.336979822E+00
   H  0.664732528E+01 -0.426033674E+00 -0.572975024E-02
     4
 # iter = 27500  time[fs]=27.50000
   C -0.124017471E+01 -0.546025949E-01 -0.683330499E-01
   C  0.125231146E+01 -0.878788454E-02  0.472843938E-01
   H -0.697352245E+01  0.704791758E+00 -0.351831395E+00
   H  0.697470075E+01 -0.449258654E+00 -0.624531907E-02
     4
 # iter = 28000  time[fs]=28.00000
   C -0.130172924E+01 -0.584159659E-01 -0.698330000E-01
   C  0.131170802E+01 -0.810125498E-02  0.496936844E-01
   H -0.731583255E+01  0.738883214E+00 -0.366762599E+00
   H  0.730381882E+01 -0.472603920E+00 -0.676246961E-02
     4
 # iter = 28500  time[fs]=28.50000
   C -0.136570801E+01 -0.622851233E-01 -0.714420824E-01
   C  0.137352584E+01 -0.736437646E-02  0.522182581E-01
   H -0.765969507E+01  0.773151344E+00 -0.381765967E+00
   H  0.763452517E+01 -0.496059409E+00 -0.728126785E-02
     4
 # iter = 29000  time[fs]=29.00000
   C -0.143189354E+01 -0.662068841E-01 -0.731491683E-01
   C  0.143754739E+01 -0.657989128E-02  0.548464514E-01
   H -0.800497460E+01  0.807580823E+00 -0.396835027E+00
   H  0.796668491E+01 -0.519616286E+00 -0.780176647E-02
     4
 # iter = 29500  time[fs]=29.50000
   C -0.150008998E+01 -0.701781323E-01 -0.749444473E-01
   C  0.150357682E+01 -0.575044955E-02  0.575679868E-01
   H -0.835155251E+01  0.842158260E+00 -0.411964134E+00
   H  0.830017944E+01 -0.543266753E+00 -0.832400508E-02
     4
 # iter = 30000  time[fs]=30.00000
   C -0.157012139E+01 -0.741958633E-01 -0.768192752E-01
   C  0.157143820E+01 -0.487865184E-02  0.603738094E-01
   H -0.869932436E+01  0.876871887E+00 -0.427148335E+00
   H  0.863490398E+01 -0.567003887E+00 -0.884801127E-02
     4
 # iter = 30500  time[fs]=30.50000
   C -0.164182990E+01 -0.782572124E-01 -0.787660322E-01
   C  0.164097374E+01 -0.396701028E-02  0.632559370E-01
   H -0.904819770E+01  0.911711301E+00 -0.442383261E+00
   H  0.897076550E+01 -0.590821516E+00 -0.937380185E-02
     4
 # iter = 31000  time[fs]=31.00000
   C -0.171507396E+01 -0.823594711E-01 -0.807779950E-01
   C  0.171204193E+01 -0.301792386E-02  0.662073244E-01
   H -0.939809034E+01  0.946667261E+00 -0.457665043E+00
   H  0.930768107E+01 -0.614714114E+00 -0.990138434E-02
     4
 # iter = 31500  time[fs]=31.50000
   C -0.178972660E+01 -0.865000948E-01 -0.828492226E-01
   C  0.178451587E+01 -0.203366420E-02  0.692217431E-01
   H -0.974892887E+01  0.981731519E+00 -0.472990232E+00
   H  0.964557640E+01 -0.638676710E+00 -0.104307583E-01
     4
 # iter = 32000  time[fs]=32.00000
   C -0.186567387E+01 -0.906767035E-01 -0.849744554E-01
   C  0.185828169E+01 -0.101636880E-02  0.722936762E-01
   H -0.101006475E+02  0.101689668E+01 -0.488355746E+00
   H  0.998438475E+01 -0.662704819E+00 -0.109619167E-01
     4
 # iter = 32500  time[fs]=32.50000
   C -0.194281339E+01 -0.948870796E-01 -0.871490278E-01
   C  0.193323710E+01  0.319602410E-04  0.754182264E-01
   H -0.104531869E+02  0.105215610E+01 -0.503758819E+00
   H  0.103240459E+02 -0.686794377E+00 -0.114948467E-01
     4
 # iter = 33000  time[fs]=33.00000
   C -0.202105307E+01 -0.991291609E-01 -0.893687914E-01
   C  0.200929010E+01  0.110945396E-02  0.785910361E-01
   H -0.108064938E+02  0.108750376E+01 -0.519196957E+00
   H  0.106645054E+02 -0.710941691E+00 -0.120295313E-01
     4
 # iter = 33500  time[fs]=33.50000
   C -0.210030993E+01 -0.103401033E+00 -0.916300492E-01
   C  0.208635779E+01  0.221437183E-02  0.818082188E-01
   H -0.111605195E+02  0.112293421E+01 -0.534667907E+00
   H  0.110057137E+02 -0.735143394E+00 -0.125659494E-01
     4
 # iter = 34000  time[fs]=34.00000
   C -0.218050912E+01 -0.107700923E+00 -0.939294984E-01
   C  0.216436538E+01  0.334509553E-02  0.850662994E-01
   H -0.115152201E+02  0.115844251E+01 -0.550169626E+00
   H  0.113476258E+02 -0.759396411E+00 -0.131040772E-01
     4
 # iter = 34500  time[fs]=34.50000
   C -0.226158294E+01 -0.112027184E+00 -0.962641812E-01
   C  0.224324528E+01  0.450012200E-02  0.883621628E-01
   H -0.118705554E+02  0.119402413E+01 -0.565700252E+00
   H  0.116902006E+02 -0.783697920E+00 -0.136438885E-01
     4
 # iter = 35000  time[fs]=35.00000
   C -0.234347008E+01 -0.116378294E+00 -0.986314419E-01
   C  0.232293625E+01  0.567805596E-02  0.916930098E-01
   H -0.122264887E+02  0.122967495E+01 -0.581258089E+00
   H  0.120334004E+02 -0.808045328E+00 -0.141853553E-01
     4
 # iter = 35500  time[fs]=35.50000
   C -0.242611492E+01 -0.120752842E+00 -0.101028891E+00
   C  0.240338275E+01  0.687760250E-02  0.950563186E-01
   H -0.125829864E+02  0.126539117E+01 -0.596841586E+00
   H  0.123771907E+02 -0.832436248E+00 -0.147284481E-01
     4
 # iter = 36000  time[fs]=36.00000
   C -0.250946689E+01 -0.125149517E+00 -0.103454371E+00
   C  0.248453428E+01  0.809755976E-02  0.984498119E-01
   H -0.129400177E+02  0.130116931E+01 -0.612449318E+00
   H  0.127215396E+02 -0.856868475E+00 -0.152731368E-01
     4
 # iter = 36500  time[fs]=36.50000
   C -0.259347994E+01 -0.129567108E+00 -0.105905934E+00
   C  0.256634486E+01  0.933681190E-02  0.101871428E+00
   H -0.132975541E+02  0.133700616E+01 -0.628079977E+00
   H  0.130664180E+02 -0.881339969E+00 -0.158193901E-01
     4
 # iter = 37000  time[fs]=37.00000
   C -0.267811201E+01 -0.134004488E+00 -0.108381812E+00
   C  0.264877252E+01  0.105943225E-01  0.105319297E+00
   H -0.136555693E+02  0.137289876E+01 -0.643732358E+00
   H  0.134117987E+02 -0.905848839E+00 -0.163671767E-01
     4
 # iter = 37500  time[fs]=37.50000
   C -0.276332469E+01 -0.138460612E+00 -0.110880399E+00
   C  0.273177890E+01  0.118691281E-01  0.108791718E+00
   H -0.140140391E+02  0.140884436E+01 -0.659405345E+00
   H  0.137576566E+02 -0.930393328E+00 -0.169164651E-01
     4
 # iter = 38000  time[fs]=38.00000
   C -0.284908278E+01 -0.142934507E+00 -0.113400234E+00
   C  0.281532885E+01  0.131603328E-01  0.112287141E+00
   H -0.143729411E+02  0.144484042E+01 -0.675097910E+00
   H  0.141039685E+02 -0.954971801E+00 -0.174672235E-01
     4
 # iter = 38500  time[fs]=38.50000
   C -0.293535396E+01 -0.147425270E+00 -0.115939982E+00
   C  0.289939015E+01  0.144671025E-01  0.115804148E+00
   H -0.147322544E+02  0.148088456E+01 -0.690809096E+00
   H  0.144507129E+02 -0.979582734E+00 -0.180194205E-01
     4
 # iter = 39000  time[fs]=39.00000
   C -0.302210855E+01 -0.151932059E+00 -0.118498424E+00
   C  0.298393316E+01  0.157886601E-01  0.119341446E+00
   H -0.150919597E+02  0.151697459E+01 -0.706538018E+00
   H  0.147978696E+02 -0.100422470E+01 -0.185730248E-01
     4
 # iter = 39500  time[fs]=39.50000
   C -0.310931920E+01 -0.156454088E+00 -0.121074444E+00
   C  0.306893059E+01  0.171242810E-01  0.122897843E+00
   H -0.154520388E+02  0.155310847E+01 -0.722283849E+00
   H  0.151454198E+02 -0.102889638E+01 -0.191280057E-01
     4
 # iter = 40000  time[fs]=40.00000
   C -0.319696070E+01 -0.160990626E+00 -0.123667014E+00
   C  0.315435727E+01  0.184732886E-01  0.126472250E+00
   H -0.158124749E+02  0.158928426E+01 -0.738045819E+00
   H  0.154933462E+02 -0.105359651E+01 -0.196843326E-01
     4
 # iter = 40500  time[fs]=40.50000
   C -0.328500975E+01 -0.165540988E+00 -0.126275193E+00
   C  0.324018996E+01  0.198350511E-01  0.130063659E+00
   H -0.161732523E+02  0.162550017E+01 -0.753823212E+00
   H  0.158416323E+02 -0.107832394E+01 -0.202419757E-01
     4
 # iter = 41000  time[fs]=41.00000
   C -0.337344477E+01 -0.170104535E+00 -0.128898110E+00
   C  0.332640715E+01  0.212089772E-01  0.133671143E+00
   H -0.165343563E+02  0.166175453E+01 -0.769615355E+00
   H  0.161902628E+02 -0.110307756E+01 -0.208009055E-01
     4
 # iter = 41500  time[fs]=41.50000
   C -0.346224579E+01 -0.174680668E+00 -0.131534965E+00
   C  0.341298889E+01  0.225945136E-01  0.137293847E+00
   H -0.168957731E+02  0.169804576E+01 -0.785421620E+00
   H  0.165392233E+02 -0.112785633E+01 -0.213610933E-01
     4
 # iter = 42000  time[fs]=42.00000
   C -0.355139426E+01 -0.179268827E+00 -0.134185014E+00
   C  0.349991669E+01  0.239911418E-01  0.140930975E+00
   H -0.172574897E+02  0.173437239E+01 -0.801241418E+00
   H  0.168885003E+02 -0.115265929E+01 -0.219225107E-01
     4
 # iter = 42500  time[fs]=42.50000
   C -0.364087293E+01 -0.183868485E+00 -0.136847572E+00
   C  0.358717335E+01  0.253983752E-01  0.144581794E+00
   H -0.176194940E+02  0.177073300E+01 -0.817074194E+00
   H  0.172380813E+02 -0.117748553E+01 -0.224851303E-01
     4
 # iter = 43000  time[fs]=43.00000
   C -0.373066575E+01 -0.188479148E+00 -0.139522002E+00
   C  0.367474284E+01  0.268157570E-01  0.148245620E+00
   H -0.179817746E+02  0.180712630E+01 -0.832919430E+00
   H  0.175879541E+02 -0.120233416E+01 -0.230489252E-01
     4
 # iter = 43500  time[fs]=43.50000
   C -0.382075776E+01 -0.193100351E+00 -0.142207711E+00
   C  0.376261026E+01  0.282428580E-01  0.151921818E+00
   H -0.183443206E+02  0.184355105E+01 -0.848776634E+00
   H  0.179381076E+02 -0.122720438E+01 -0.236138689E-01
     4
 # iter = 44000  time[fs]=44.00000
   C -0.391113499E+01 -0.197731660E+00 -0.144904148E+00
   C  0.385076168E+01  0.296792742E-01  0.155609798E+00
   H -0.187071219E+02  0.188000608E+01 -0.864645346E+00
   H  0.182885311E+02 -0.125209541E+01 -0.241799360E-01
     4
 # iter = 44500  time[fs]=44.50000
   C -0.400178439E+01 -0.202372661E+00 -0.147610802E+00
   C  0.393918407E+01  0.311246252E-01  0.159309009E+00
   H -0.190701689E+02  0.191649029E+01 -0.880525131E+00
   H  0.186392146E+02 -0.127700652E+01 -0.247471013E-01
     4
 # iter = 45000  time[fs]=45.00000
   C -0.409269373E+01 -0.207022967E+00 -0.150327193E+00
   C  0.402786525E+01  0.325785525E-01  0.163018935E+00
   H -0.194334526E+02  0.195300263E+01 -0.896415578E+00
   H  0.189901487E+02 -0.130193702E+01 -0.253153407E-01
     4
 # iter = 45500  time[fs]=45.50000
   C -0.418385159E+01 -0.211682213E+00 -0.153052874E+00
   C  0.411679383E+01  0.340407178E-01  0.166739094E+00
   H -0.197969643E+02  0.198954211E+01 -0.912316297E+00
   H  0.193413243E+02 -0.132688624E+01 -0.258846303E-01
     4
 # iter = 46000  time[fs]=46.00000
   C -0.427524721E+01 -0.216350053E+00 -0.155787427E+00
   C  0.420595908E+01  0.355108017E-01  0.170469036E+00
   H -0.201606961E+02  0.202610780E+01 -0.928226920E+00
   H  0.196927329E+02 -0.135185356E+01 -0.264549471E-01
     4
 # iter = 46500  time[fs]=46.50000
   C -0.436687052E+01 -0.221026161E+00 -0.158530461E+00
   C  0.429535097E+01  0.369885022E-01  0.174208339E+00
   H -0.205246401E+02  0.206269880E+01 -0.944147100E+00
   H  0.200443664E+02 -0.137683838E+01 -0.270262687E-01
     4
 # iter = 47000  time[fs]=47.00000
   C -0.445871204E+01 -0.225710228E+00 -0.161281607E+00
   C  0.438496003E+01  0.384735339E-01  0.177956605E+00
   H -0.208887891E+02  0.209931428E+01 -0.960076506E+00
   H  0.203962173E+02 -0.140184015E+01 -0.275985733E-01
     4
 # iter = 47500  time[fs]=47.50000
   C -0.455076285E+01 -0.230401961E+00 -0.164040521E+00
   C  0.447477739E+01  0.399656263E-01  0.181713463E+00
   H -0.212531362E+02  0.213595343E+01 -0.976014823E+00
   H  0.207482782E+02 -0.142685831E+01 -0.281718396E-01
     4
 # iter = 48000  time[fs]=48.00000
   C -0.464301454E+01 -0.235101084E+00 -0.166806879E+00
   C  0.456479466E+01  0.414645232E-01  0.185478560E+00
   H -0.216176747E+02  0.217261548E+01 -0.991961755E+00
   H  0.211005422E+02 -0.145189236E+01 -0.287460469E-01
     4
 # iter = 48500  time[fs]=48.50000
   C -0.473545918E+01 -0.239807333E+00 -0.169580376E+00
   C  0.465500394E+01  0.429699816E-01  0.189251567E+00
   H -0.219823984E+02  0.220929971E+01 -0.100791702E+01
   H  0.214530027E+02 -0.147694180E+01 -0.293211752E-01
     4
 # iter = 49000  time[fs]=49.00000
   C -0.482808930E+01 -0.244520459E+00 -0.172360725E+00
   C  0.474539777E+01  0.444817710E-01  0.193032172E+00
   H -0.223473014E+02  0.224600542E+01 -0.102388034E+01
   H  0.218056535E+02 -0.150200618E+01 -0.298972049E-01
     4
 # iter = 49500  time[fs]=49.50000
   C -0.492089782E+01 -0.249240226E+00 -0.175147654E+00
   C  0.483596911E+01  0.459996724E-01  0.196820082E+00
   H -0.227123779E+02  0.228273196E+01 -0.103985147E+01
   H  0.221584886E+02 -0.152708504E+01 -0.304741171E-01
     4
 # iter = 50000  time[fs]=50.00000
   C -0.501387805E+01 -0.253966407E+00 -0.177940908E+00
   C  0.492671130E+01  0.475234776E-01  0.200615019E+00
   H -0.230776225E+02  0.231947868E+01 -0.105583015E+01
   H  0.225115022E+02 -0.155217795E+01 -0.310518933E-01
     4
 # iter = 50500  time[fs]=50.50000
   C -0.510702366E+01 -0.258698790E+00 -0.180740245E+00
   C  0.501761802E+01  0.490529885E-01  0.204416720E+00
   H -0.234430302E+02  0.235624500E+01 -0.107181617E+01
   H  0.228646890E+02 -0.157728452E+01 -0.316305156E-01
     4
 # iter = 51000  time[fs]=51.00000
   C -0.520032866E+01 -0.263437169E+00 -0.183545437E+00
   C  0.510868330E+01  0.505880168E-01  0.208224937E+00
   H -0.238085959E+02  0.239303033E+01 -0.108780928E+01
   H  0.232180437E+02 -0.160240434E+01 -0.322099664E-01
     4
 # iter = 51500  time[fs]=51.50000
   C -0.529378735E+01 -0.268181351E+00 -0.186356268E+00
   C  0.519990147E+01  0.521283828E-01  0.212039434E+00
   H -0.241743149E+02  0.242983412E+01 -0.110380929E+01
   H  0.235715614E+02 -0.162753705E+01 -0.327902290E-01
     4
 # iter = 52000  time[fs]=52.00000
   C -0.538739434E+01 -0.272931150E+00 -0.189172533E+00
   C  0.529126716E+01  0.536739153E-01  0.215859989E+00
   H -0.245401827E+02  0.246665585E+01 -0.111981598E+01
   H  0.239252374E+02 -0.165268229E+01 -0.333712866E-01
     4
 # iter = 52500  time[fs]=52.50000
   C -0.548114451E+01 -0.277686390E+00 -0.191994037E+00
   C  0.538277525E+01  0.552244512E-01  0.219686390E+00
   H -0.249061950E+02  0.250349501E+01 -0.113582917E+01
   H  0.242790670E+02 -0.167783970E+01 -0.339531234E-01
     4
 # iter = 53000  time[fs]=53.00000
   C -0.557503296E+01 -0.282446902E+00 -0.194820597E+00
   C  0.547442090E+01  0.567798346E-01  0.223518435E+00
   H -0.252723478E+02  0.254035112E+01 -0.115184866E+01
   H  0.246330459E+02 -0.170300897E+01 -0.345357237E-01
     4
 # iter = 53500  time[fs]=53.50000
   C -0.566905508E+01 -0.287212524E+00 -0.197652037E+00
   C  0.556619947E+01  0.583399166E-01  0.227355933E+00
   H -0.256386369E+02  0.257722370E+01 -0.116787428E+01
   H  0.249871699E+02 -0.172818978E+01 -0.351190724E-01
     4
 # iter = 54000  time[fs]=54.00000
   C -0.576320645E+01 -0.291983103E+00 -0.200488192E+00
   C  0.565810659E+01  0.599045551E-01  0.231198703E+00
   H -0.260050587E+02  0.261411233E+01 -0.118390585E+01
   H  0.253414352E+02 -0.175338183E+01 -0.357031546E-01
     4
 # iter = 54500  time[fs]=54.50000
   C -0.585748285E+01 -0.296758492E+00 -0.203328901E+00
   C  0.575013805E+01  0.614736139E-01  0.235046571E+00
   H -0.263716095E+02  0.265101656E+01 -0.119994322E+01
   H  0.256958377E+02 -0.177858481E+01 -0.362879560E-01
     4
 # iter = 55000  time[fs]=55.00000
   C -0.595188029E+01 -0.301538549E+00 -0.206174016E+00
   C  0.584228988E+01  0.630469630E-01  0.238899373E+00
   H -0.267382858E+02  0.268793599E+01 -0.121598623E+01
   H  0.260503738E+02 -0.180379846E+01 -0.368734627E-01
     4
 # iter = 55500  time[fs]=55.50000
   C -0.604639494E+01 -0.306323139E+00 -0.209023393E+00
   C  0.593455825E+01  0.646244776E-01  0.242756951E+00
   H -0.271050843E+02  0.272487023E+01 -0.123203472E+01
   H  0.264050400E+02 -0.182902249E+01 -0.374596611E-01
     4
 # iter = 56000  time[fs]=56.00000
   C -0.614102314E+01 -0.311112133E+00 -0.211876894E+00
   C  0.602693953E+01  0.662060386E-01  0.246619156E+00
   H -0.274720017E+02  0.276181890E+01 -0.124808855E+01
   H  0.267598330E+02 -0.185425666E+01 -0.380465379E-01
     4
 # iter = 56500  time[fs]=56.50000
   C -0.623576142E+01 -0.315905408E+00 -0.214734390E+00
   C  0.611943025E+01  0.677915313E-01  0.250485843E+00
   H -0.278390350E+02  0.279878162E+01 -0.126414758E+01
   H  0.271147493E+02 -0.187950071E+01 -0.386340803E-01
     4
 # iter = 57000  time[fs]=57.00000
   C -0.633060643E+01 -0.320702844E+00 -0.217595755E+00
   C  0.621202710E+01  0.693808461E-01  0.254356877E+00
   H -0.282061811E+02  0.283575806E+01 -0.128021167E+01
   H  0.274697859E+02 -0.190475440E+01 -0.392222756E-01
     4
 # iter = 57500  time[fs]=57.50000
   C -0.642555500E+01 -0.325504327E+00 -0.220460872E+00
   C  0.630472690E+01  0.709738778E-01  0.258232127E+00
   H -0.285734373E+02  0.287274787E+01 -0.129628071E+01
   H  0.278249397E+02 -0.193001750E+01 -0.398111119E-01
     4
 # iter = 58000  time[fs]=58.00000
   C -0.652060406E+01 -0.330309747E+00 -0.223329625E+00
   C  0.639752660E+01  0.725705251E-01  0.262111467E+00
   H -0.289408007E+02  0.290975072E+01 -0.131235456E+01
   H  0.281802078E+02 -0.195528978E+01 -0.404005770E-01
     4
 # iter = 58500  time[fs]=58.50000
   C -0.661575070E+01 -0.335119000E+00 -0.226201907E+00
   C  0.649042331E+01  0.741706911E-01  0.265994779E+00
   H -0.293082688E+02  0.294676630E+01 -0.132843310E+01
   H  0.285355875E+02 -0.198057103E+01 -0.409906596E-01
     4
 # iter = 59000  time[fs]=59.00000
   C -0.671099212E+01 -0.339931984E+00 -0.229077613E+00
   C  0.658341424E+01  0.757742825E-01  0.269881947E+00
   H -0.296758389E+02  0.298379432E+01 -0.134451622E+01
   H  0.288910759E+02 -0.200586104E+01 -0.415813482E-01
     4
 # iter = 59500  time[fs]=59.50000
   C -0.680632564E+01 -0.344748602E+00 -0.231956644E+00
   C  0.667649671E+01  0.773812095E-01  0.273772861E+00
   H -0.300435086E+02  0.302083447E+01 -0.136060381E+01
   H  0.292466706E+02 -0.203115961E+01 -0.421726320E-01
     4
 # iter = 60000  time[fs]=60.00000
   C -0.690174868E+01 -0.349568760E+00 -0.234838903E+00
   C  0.676966817E+01  0.789913858E-01  0.277667417E+00
   H -0.304112756E+02  0.305788648E+01 -0.137669576E+01
   H  0.296023690E+02 -0.205646654E+01 -0.427645002E-01
     4
 # iter = 60500  time[fs]=60.50000
   C -0.699725878E+01 -0.354392369E+00 -0.237724301E+00
   C  0.686292616E+01  0.806047285E-01  0.281565513E+00
   H -0.307791374E+02  0.309495007E+01 -0.139279198E+01
   H  0.299581686E+02 -0.208178164E+01 -0.433569424E-01
     4
 # iter = 61000  time[fs]=61.00000
   C -0.709285356E+01 -0.359219341E+00 -0.240612749E+00
   C  0.695626831E+01  0.822211575E-01  0.285467053E+00
   H -0.311470920E+02  0.313202498E+01 -0.140889235E+01
   H  0.303140671E+02 -0.210710474E+01 -0.439499485E-01
     4
 # iter = 61500  time[fs]=61.50000
   C -0.718853074E+01 -0.364049593E+00 -0.243504162E+00
   C  0.704969237E+01  0.838405959E-01  0.289371943E+00
   H -0.315151371E+02  0.316911096E+01 -0.142499678E+01
   H  0.306700623E+02 -0.213243566E+01 -0.445435085E-01
     4
 # iter = 62000  time[fs]=62.00000
   C -0.728428815E+01 -0.368883045E+00 -0.246398460E+00
   C  0.714319615E+01  0.854629695E-01  0.293280095E+00
   H -0.318832708E+02  0.320620776E+01 -0.144110518E+01
   H  0.310261519E+02 -0.215777423E+01 -0.451376128E-01
     4
 # iter = 62500  time[fs]=62.50000
   C -0.738012366E+01 -0.373719619E+00 -0.249295566E+00
   C  0.723677755E+01  0.870882067E-01  0.297191421E+00
   H -0.322514910E+02  0.324331514E+01 -0.145721747E+01
   H  0.313823338E+02 -0.218312028E+01 -0.457322520E-01
     4
 # iter = 63000  time[fs]=63.00000
   C -0.747603527E+01 -0.378559239E+00 -0.252195404E+00
   C  0.733043457E+01  0.887162386E-01  0.301105840E+00
   H -0.326197958E+02  0.328043288E+01 -0.147333354E+01
   H  0.317386061E+02 -0.220847366E+01 -0.463274169E-01
     4
 # iter = 63500  time[fs]=63.50000
   C -0.757202101E+01 -0.383401835E+00 -0.255097903E+00
   C  0.742416526E+01  0.903469986E-01  0.305023272E+00
   H -0.329881833E+02  0.331756075E+01 -0.148945333E+01
   H  0.320949667E+02 -0.223383421E+01 -0.469230986E-01
     4
 # iter = 64000  time[fs]=64.00000
   C -0.766807902E+01 -0.388247335E+00 -0.258002993E+00
   C  0.751796776E+01  0.919804224E-01  0.308943641E+00
   H -0.333566518E+02  0.335469853E+01 -0.150557675E+01
   H  0.324514137E+02 -0.225920178E+01 -0.475192882E-01
     4
 # iter = 64500  time[fs]=64.50000
   C -0.776420748E+01 -0.393095674E+00 -0.260910609E+00
   C  0.761184026E+01  0.936164480E-01  0.312866873E+00
   H -0.337251994E+02  0.339184602E+01 -0.152170371E+01
   H  0.328079452E+02 -0.228457622E+01 -0.481159773E-01
     4
 # iter = 65000  time[fs]=65.00000
   C -0.786040466E+01 -0.397946785E+00 -0.263820687E+00
   C  0.770578104E+01  0.952550155E-01  0.316792896E+00
   H -0.340938245E+02  0.342900302E+01 -0.153783416E+01
   H  0.331645595E+02 -0.230995741E+01 -0.487131576E-01
     4
 # iter = 65500  time[fs]=65.50000
   C -0.795666887E+01 -0.402800605E+00 -0.266733164E+00
   C  0.779978843E+01  0.968960669E-01  0.320721643E+00
   H -0.344625255E+02  0.346616933E+01 -0.155396800E+01
   H  0.335212548E+02 -0.233534519E+01 -0.493108210E-01
     4
 # iter = 66000  time[fs]=66.00000
   C -0.805299849E+01 -0.407657075E+00 -0.269647981E+00
   C  0.789386080E+01  0.985395463E-01  0.324653047E+00
   H -0.348313008E+02  0.350334476E+01 -0.157010517E+01
   H  0.338780295E+02 -0.236073944E+01 -0.499089595E-01
     4
 # iter = 66500  time[fs]=66.50000
   C -0.814939197E+01 -0.412516135E+00 -0.272565082E+00
   C  0.798799662E+01  0.100185400E+00  0.328587045E+00
   H -0.352001488E+02  0.354052912E+01 -0.158624561E+01
   H  0.342348819E+02 -0.238614003E+01 -0.505075653E-01
     4
 # iter = 67000  time[fs]=67.00000
   C -0.824584779E+01 -0.417377728E+00 -0.275484410E+00
   C  0.808219437E+01  0.101833574E+00  0.332523576E+00
   H -0.355690680E+02  0.357772225E+01 -0.160238924E+01
   H  0.345918104E+02 -0.241154684E+01 -0.511066310E-01
     4
 # iter = 67500  time[fs]=67.50000
   C -0.834236449E+01 -0.422241800E+00 -0.278405913E+00
   C  0.817645261E+01  0.103484020E+00  0.336462579E+00
   H -0.359380570E+02  0.361492395E+01 -0.161853599E+01
   H  0.349488135E+02 -0.243695975E+01 -0.517061491E-01
     4
 # iter = 68000  time[fs]=68.00000
   C -0.843894068E+01 -0.427108296E+00 -0.281329539E+00
   C  0.827076993E+01  0.105136687E+00  0.340403999E+00
   H -0.363071145E+02  0.365213408E+01 -0.163468582E+01
   H  0.353058896E+02 -0.246237863E+01 -0.523061125E-01
     4
 # iter = 68500  time[fs]=68.50000
   C -0.853557498E+01 -0.431977166E+00 -0.284255239E+00
   C  0.836514499E+01  0.106791529E+00  0.344347778E+00
   H -0.366762390E+02  0.368935246E+01 -0.165083865E+01
   H  0.356630375E+02 -0.248780337E+01 -0.529065140E-01
     4
 # iter = 69000  time[fs]=69.00000
   C -0.863226609E+01 -0.436848359E+00 -0.287182964E+00
   C  0.845957648E+01  0.108448499E+00  0.348293865E+00
   H -0.370454292E+02  0.372657893E+01 -0.166699442E+01
   H  0.360202556E+02 -0.251323388E+01 -0.535073469E-01
     4
 # iter = 69500  time[fs]=69.50000
   C -0.872901273E+01 -0.441721827E+00 -0.290112668E+00
   C  0.855406313E+01  0.110107553E+00  0.352242207E+00
   H -0.374146839E+02  0.376381335E+01 -0.168315309E+01
   H  0.363775426E+02 -0.253867002E+01 -0.541086044E-01
     4
 # iter = 70000  time[fs]=70.00000
   C -0.882581367E+01 -0.446597523E+00 -0.293044307E+00
   C  0.864860372E+01  0.111768647E+00  0.356192754E+00
   H -0.377840017E+02  0.380105556E+01 -0.169931458E+01
   H  0.367348971E+02 -0.256411171E+01 -0.547102799E-01
     4
 # iter = 70500  time[fs]=70.50000
   C -0.892266773E+01 -0.451475402E+00 -0.295977837E+00
   C  0.874319706E+01  0.113431739E+00  0.360145459E+00
   H -0.381533816E+02  0.383830541E+01 -0.171547886E+01
   H  0.370923180E+02 -0.258955884E+01 -0.553123670E-01
     4
 # iter = 71000  time[fs]=71.00000
   C -0.901957374E+01 -0.456355418E+00 -0.298913215E+00
   C  0.883784202E+01  0.115096790E+00  0.364100273E+00
   H -0.385228223E+02  0.387556277E+01 -0.173164586E+01
   H  0.374498039E+02 -0.261501131E+01 -0.559148595E-01
     4
 # iter = 71500  time[fs]=71.50000
   C -0.911653060E+01 -0.461237530E+00 -0.301850403E+00
   C  0.893253747E+01  0.116763759E+00  0.368057151E+00
   H -0.388923227E+02  0.391282749E+01 -0.174781554E+01
   H  0.378073536E+02 -0.264046903E+01 -0.565177511E-01
     4
 # iter = 72000  time[fs]=72.00000
   C -0.921353723E+01 -0.466121696E+00 -0.304789359E+00
   C  0.902728234E+01  0.118432608E+00  0.372016051E+00
   H -0.392618816E+02  0.395009945E+01 -0.176398784E+01
   H  0.381649659E+02 -0.266593190E+01 -0.571210358E-01
     4
 # iter = 72500  time[fs]=72.50000
   C -0.931059257E+01 -0.471007875E+00 -0.307730047E+00
   C  0.912207560E+01  0.120103300E+00  0.375976929E+00
   H -0.396314980E+02  0.398737852E+01 -0.178016272E+01
   H  0.385226398E+02 -0.269139983E+01 -0.577247079E-01
     4
 # iter = 73000  time[fs]=73.00000
   C -0.940769561E+01 -0.475896029E+00 -0.310672429E+00
   C  0.921691623E+01  0.121775800E+00  0.379939743E+00
   H -0.400011709E+02  0.402466456E+01 -0.179634012E+01
   H  0.388803740E+02 -0.271687273E+01 -0.583287616E-01
     4
 # iter = 73500  time[fs]=73.50000
   C -0.950484537E+01 -0.480786118E+00 -0.313616470E+00
   C  0.931180326E+01  0.123450071E+00  0.383904455E+00
   H -0.403708992E+02  0.406195745E+01 -0.181252001E+01
   H  0.392381675E+02 -0.274235052E+01 -0.589331911E-01
     4
 # iter = 74000  time[fs]=74.00000
   C -0.960204089E+01 -0.485678106E+00 -0.316562134E+00
   C  0.940673573E+01  0.125126081E+00  0.387871024E+00
   H -0.407406819E+02  0.409925708E+01 -0.182870234E+01
   H  0.395960192E+02 -0.276783310E+01 -0.595379911E-01
     4
 # iter = 74500  time[fs]=74.50000
   C -0.969928124E+01 -0.490571958E+00 -0.319509390E+00
   C  0.950171272E+01  0.126803795E+00  0.391839415E+00
   H -0.411105180E+02  0.413656333E+01 -0.184488707E+01
   H  0.399539281E+02 -0.279332041E+01 -0.601431562E-01
     4
 # iter = 75000  time[fs]=75.00000
   C -0.979656554E+01 -0.495467637E+00 -0.322458203E+00
   C  0.959673335E+01  0.128483182E+00  0.395809589E+00
   H -0.414804067E+02  0.417387608E+01 -0.186107414E+01
   H  0.403118933E+02 -0.281881236E+01 -0.607486810E-01
     4
 # iter = 75500  time[fs]=75.50000
   C -0.989389289E+01 -0.500365111E+00 -0.325408542E+00
   C  0.969179674E+01  0.130164211E+00  0.399781512E+00
   H -0.418503470E+02  0.421119522E+01 -0.187726353E+01
   H  0.406699136E+02 -0.284430886E+01 -0.613545605E-01
     4
 # iter = 76000  time[fs]=76.00000
   C -0.999126247E+01 -0.505264346E+00 -0.328360378E+00
   C  0.978690205E+01  0.131846851E+00  0.403755149E+00
   H -0.422203380E+02  0.424852064E+01 -0.189345520E+01
   H  0.410279882E+02 -0.286980986E+01 -0.619607895E-01
     4
 # iter = 76500  time[fs]=76.50000
   C -0.100886734E+02 -0.510165309E+00 -0.331313679E+00
   C  0.988204846E+01  0.133531073E+00  0.407730467E+00
   H -0.425903789E+02  0.428585224E+01 -0.190964909E+01
   H  0.413861162E+02 -0.289531526E+01 -0.625673631E-01
     4
 # iter = 77000  time[fs]=77.00000
   C -0.101861250E+02 -0.515067970E+00 -0.334268418E+00
   C  0.997723518E+01  0.135216847E+00  0.411707434E+00
   H -0.429604687E+02  0.432318992E+01 -0.192584518E+01
   H  0.417442966E+02 -0.292082500E+01 -0.631742766E-01
     4
 # iter = 77500  time[fs]=77.50000
   C -0.102836164E+02 -0.519972298E+00 -0.337224566E+00
   C  0.100724614E+02  0.136904146E+00  0.415686017E+00
   H -0.433306067E+02  0.436053357E+01 -0.194204343E+01
   H  0.421025286E+02 -0.294633902E+01 -0.637815251E-01
     4
 # iter = 78000  time[fs]=78.00000
   C -0.103811468E+02 -0.524878264E+00 -0.340182095E+00
   C  0.101677265E+02  0.138592943E+00  0.419666187E+00
   H -0.437007921E+02  0.439788310E+01 -0.195824380E+01
   H  0.424608112E+02 -0.297185723E+01 -0.643891039E-01
     4
 # iter = 78500  time[fs]=78.50000
   C -0.104787156E+02 -0.529785838E+00 -0.343140980E+00
   C  0.102630296E+02  0.140283211E+00  0.423647913E+00
   H -0.440710240E+02  0.443523842E+01 -0.197444626E+01
   H  0.428191437E+02 -0.299737957E+01 -0.649970087E-01
     4
 # iter = 79000  time[fs]=79.00000
   C -0.105763220E+02 -0.534694993E+00 -0.346101195E+00
   C  0.103583700E+02  0.141974924E+00  0.427631166E+00
   H -0.444413017E+02  0.447259942E+01 -0.199065076E+01
   H  0.431775253E+02 -0.302290598E+01 -0.656052348E-01
     4
 # iter = 79500  time[fs]=79.50000
   C -0.106739653E+02 -0.539605700E+00 -0.349062715E+00
   C  0.104537471E+02  0.143668057E+00  0.431615919E+00
   H -0.448116245E+02  0.450996602E+01 -0.200685729E+01
   H  0.435359551E+02 -0.304843639E+01 -0.662137779E-01
     4
 # iter = 80000  time[fs]=80.00000
   C -0.107716449E+02 -0.544517934E+00 -0.352025514E+00
   C  0.105491602E+02  0.145362586E+00  0.435602144E+00
   H -0.451819916E+02  0.454733813E+01 -0.202306580E+01
   H  0.438944324E+02 -0.307397075E+01 -0.668226337E-01
