     4
 # iter = 25000  time[fs]=25.00000
   C -0.967300144E+00 -0.327677184E-01 -0.256340314E-01
   C  0.106899338E+01  0.377575639E-01  0.173510781E-02
   H -0.527557267E+01  0.495098121E+00 -0.356193350E+00
   H  0.542875462E+01 -0.815804044E-01  0.134031616E+00
     4
 # iter = 25500  time[fs]=25.50000
   C -0.101278264E+01 -0.351544892E-01 -0.242513712E-01
   C  0.111696635E+01  0.393452896E-01  0.212879610E-02
   H -0.560601192E+01  0.527108462E+00 -0.377295792E+00
   H  0.575440266E+01 -0.887455942E-01  0.143670886E+00
     4
 # iter = 26000  time[fs]=26.00000
   C -0.106136895E+01 -0.376680446E-01 -0.228994374E-01
   C  0.116804172E+01  0.410431359E-01  0.256133450E-02
   H -0.593907449E+01  0.559383845E+00 -0.398576068E+00
   H  0.608269090E+01 -0.959758573E-01  0.153390507E+00
     4
 # iter = 26500  time[fs]=26.50000
   C -0.111279053E+01 -0.402978228E-01 -0.215729607E-01
   C  0.122195047E+01  0.428424380E-01  0.302653550E-02
   H -0.627447053E+01  0.591895049E+00 -0.420014662E+00
   H  0.641333534E+01 -0.103264737E+00  0.163181978E+00
     4
 # iter = 27000  time[fs]=27.00000
   C -0.116679914E+01 -0.430341111E-01 -0.202674911E-01
   C  0.127844404E+01  0.447350725E-01  0.351917891E-02
   H -0.661195499E+01  0.624617481E+00 -0.441595099E+00
   H  0.674609478E+01 -0.110606712E+00  0.173038070E+00
     4
 # iter = 27500  time[fs]=27.50000
   C -0.122316738E+01 -0.458680243E-01 -0.189792989E-01
   C  0.133729481E+01  0.467134995E-01  0.403488236E-02
   H -0.695131890E+01  0.657530238E+00 -0.463303350E+00
   H  0.708076264E+01 -0.117997024E+00  0.182952584E+00
     4
 # iter = 28000  time[fs]=28.00000
   C -0.128168831E+01 -0.487914677E-01 -0.177052744E-01
   C  0.139829575E+01  0.487707729E-01  0.456997821E-02
   H -0.729238273E+01  0.690615402E+00 -0.485127365E+00
   H  0.741716078E+01 -0.125431538E+00  0.192920165E+00
     4
 # iter = 28500  time[fs]=28.50000
   C -0.134217457E+01 -0.517970897E-01 -0.164428337E-01
   C  0.146125944E+01  0.509005299E-01  0.512140188E-02
   H -0.763499115E+01  0.723857492E+00 -0.507056723E+00
   H  0.775513452E+01 -0.132906638E+00  0.202936161E+00
     4
 # iter = 29000  time[fs]=29.00000
   C -0.140445701E+01 -0.548782281E-01 -0.151898344E-01
   C  0.152601670E+01  0.530969657E-01  0.568659393E-02
   H -0.797900891E+01  0.757243038E+00 -0.529082350E+00
   H  0.809454876E+01 -0.140419141E+00  0.212996502E+00
     4
 # iter = 29500  time[fs]=29.50000
   C -0.146838325E+01 -0.580288539E-01 -0.139445022E-01
   C  0.159241519E+01  0.553547992E-01  0.626341583E-02
   H -0.832431755E+01  0.790760247E+00 -0.551196296E+00
   H  0.843528486E+01 -0.147966232E+00  0.223097609E+00
     4
 # iter = 30000  time[fs]=30.00000
   C -0.153381618E+01 -0.612435145E-01 -0.127053683E-01
   C  0.166031783E+01  0.576692347E-01  0.685007878E-02
   H -0.867081277E+01  0.824398732E+00 -0.573391557E+00
   H  0.877723804E+01 -0.155545406E+00  0.233236318E+00
     4
 # iter = 30500  time[fs]=30.50000
   C -0.160063246E+01 -0.645172797E-01 -0.114712167E-01
   C  0.172960133E+01  0.600359220E-01  0.744508410E-02
   H -0.901840226E+01  0.858149299E+00 -0.595661931E+00
   H  0.912031538E+01 -0.163154427E+00  0.243409820E+00
     4
 # iter = 31000  time[fs]=31.00000
   C -0.166872112E+01 -0.678456901E-01 -0.102410403E-01
   C  0.180015477E+01  0.624509158E-01  0.804717364E-02
   H -0.936700398E+01  0.892003766E+00 -0.618001901E+00
   H  0.946443408E+01 -0.170791284E+00  0.253615608E+00
     4
 # iter = 31500  time[fs]=31.50000
   C -0.173798223E+01 -0.712247096E-01 -0.901400410E-02
   C  0.187187831E+01  0.649106385E-01  0.865528884E-02
   H -0.971654466E+01  0.925954822E+00 -0.640406535E+00
   H  0.980952007E+01 -0.178454169E+00  0.263851436E+00
     4
 # iter = 32000  time[fs]=32.00000
   C -0.180832576E+01 -0.746506815E-01 -0.778941582E-02
   C  0.194468197E+01  0.674118440E-01  0.926853687E-02
   H -0.100669586E+02  0.959995907E+00 -0.662871409E+00
   H  0.101555068E+02 -0.186141445E+00  0.274115285E+00
     4
 # iter = 32500  time[fs]=32.50000
   C -0.187967045E+01 -0.781202892E-01 -0.656670067E-02
   C  0.201848460E+01  0.699515843E-01  0.988616280E-02
   H -0.104181869E+02  0.994121109E+00 -0.685392538E+00
   H  0.105023343E+02 -0.193851628E+00  0.284405332E+00
     4
 # iter = 33000  time[fs]=33.00000
   C -0.195194290E+01 -0.816305207E-01 -0.534538126E-02
   C  0.209321283E+01  0.725271801E-01  0.105075266E-01
   H -0.107701759E+02  0.102832509E+01 -0.707966320E+00
   H  0.108499484E+02 -0.201583366E+00  0.294719926E+00
     4
 # iter = 33500  time[fs]=33.50000
   C -0.202507666E+01 -0.851786361E-01 -0.412506088E-02
   C  0.216880031E+01  0.751361928E-01  0.111320844E-01
   H -0.111228776E+02  0.106260299E+01 -0.730589490E+00
   H  0.111982999E+02 -0.209335424E+00  0.305057568E+00
     4
 # iter = 34000  time[fs]=34.00000
   C -0.209901149E+01 -0.887621399E-01 -0.290540974E-02
   C  0.224518687E+01  0.777764001E-01  0.117593725E-01
   H -0.114762479E+02  0.109695040E+01 -0.753259075E+00
   H  0.115473439E+02 -0.217106673E+00  0.315416893E+00
     4
 # iter = 34500  time[fs]=34.50000
   C -0.217369270E+01 -0.923787548E-01 -0.168615375E-02
   C  0.232231787E+01  0.804457739E-01  0.123889950E-01
   H -0.118302469E+02  0.113136331E+01 -0.775972365E+00
   H  0.118970397E+02 -0.224896076E+00  0.325796651E+00
     4
 # iter = 35000  time[fs]=35.00000
   C -0.224907051E+01 -0.960263999E-01 -0.467065140E-03
   C  0.240014363E+01  0.831424607E-01  0.130206128E-01
   H -0.121848380E+02  0.116583802E+01 -0.798726880E+00
   H  0.122473499E+02 -0.232702677E+00  0.336195700E+00
     4
 # iter = 35500  time[fs]=35.50000
   C -0.232509958E+01 -0.997031700E-01  0.752045158E-03
   C  0.247861886E+01  0.858647638E-01  0.136539348E-01
   H -0.125399878E+02  0.120037115E+01 -0.821520346E+00
   H  0.125982402E+02 -0.240525595E+00  0.346612989E+00
     4
 # iter = 36000  time[fs]=36.00000
   C -0.240173850E+01 -0.103407318E+00  0.197133388E-02
   C  0.255770222E+01  0.886111276E-01  0.142887105E-01
   H -0.128956654E+02  0.123495960E+01 -0.844350672E+00
   H  0.129496790E+02 -0.248364018E+00  0.357047552E+00
     4
 # iter = 36500  time[fs]=36.50000
   C -0.247894940E+01 -0.107137240E+00  0.319093071E-02
   C  0.263735589E+01  0.913801237E-01  0.149247239E-01
   H -0.132518427E+02  0.126960050E+01 -0.867215930E+00
   H  0.133016375E+02 -0.256217191E+00  0.367498497E+00
     4
 # iter = 37000  time[fs]=37.00000
   C -0.255669758E+01 -0.110891460E+00  0.441094259E-02
   C  0.271754523E+01  0.941704382E-01  0.155617886E-01
   H -0.136084936E+02  0.130429119E+01 -0.890114341E+00
   H  0.136540887E+02 -0.264084413E+00  0.377965000E+00
     4
 # iter = 37500  time[fs]=37.50000
   C -0.263495118E+01 -0.114668617E+00  0.563145742E-02
   C  0.279823846E+01  0.969808611E-01  0.161997430E-01
   H -0.139655938E+02  0.133902923E+01 -0.913044258E+00
   H  0.140070079E+02 -0.271965035E+00  0.388446297E+00
     4
 # iter = 38000  time[fs]=38.00000
   C -0.271368092E+01 -0.118467456E+00  0.685254706E-02
   C  0.287940633E+01  0.998102758E-01  0.168384471E-01
   H -0.143231211E+02  0.137381235E+01 -0.936004155E+00
   H  0.143603721E+02 -0.279858449E+00  0.398941679E+00
     4
 # iter = 38500  time[fs]=38.50000
   C -0.279285983E+01 -0.122286816E+00  0.807426984E-02
   C  0.296102193E+01  0.102657651E+00  0.174777792E-01
   H -0.146810548E+02  0.140863842E+01 -0.958992612E+00
   H  0.147141600E+02 -0.287764089E+00  0.409450487E+00
     4
 # iter = 39000  time[fs]=39.00000
   C -0.287246303E+01 -0.126125622E+00  0.929667272E-02
   C  0.304306043E+01  0.105522031E+00  0.181176336E-01
   H -0.150393756E+02  0.144350548E+01 -0.982008309E+00
   H  0.150683516E+02 -0.295681428E+00  0.419972108E+00
     4
 # iter = 39500  time[fs]=39.50000
   C -0.295246753E+01 -0.129982878E+00  0.105197930E-01
   C  0.312549888E+01  0.108402532E+00  0.187579180E-01
   H -0.153980655E+02  0.147841169E+01 -0.100505002E+01
   H  0.154229285E+02 -0.303609969E+00  0.430505968E+00
     4
 # iter = 40000  time[fs]=40.00000
   C -0.303285205E+01 -0.133857659E+00  0.117436601E-01
   C  0.320831606E+01  0.111298333E+00  0.193985521E-01
   H -0.157571079E+02  0.151335534E+01 -0.102811658E+01
   H  0.157778734E+02 -0.311549250E+00  0.441051533E+00
     4
 # iter = 40500  time[fs]=40.50000
   C -0.311359687E+01 -0.137749104E+00  0.129682961E-01
   C  0.329149228E+01  0.114208671E+00  0.200394655E-01
   H -0.161164871E+02  0.154833483E+01 -0.105120693E+01
   H  0.161331702E+02 -0.319498833E+00  0.451608301E+00
     4
 # iter = 41000  time[fs]=41.00000
   C -0.319468369E+01 -0.141656412E+00  0.141937179E-01
   C  0.337500929E+01  0.117132834E+00  0.206805971E-01
   H -0.164761885E+02  0.158334864E+01 -0.107432007E+01
   H  0.164888038E+02 -0.327458309E+00  0.462175804E+00
     4
 # iter = 41500  time[fs]=41.50000
   C -0.327609549E+01 -0.145578835E+00  0.154199370E-01
   C  0.345885011E+01  0.120070162E+00  0.213218931E-01
   H -0.168361984E+02  0.161839538E+01 -0.109745503E+01
   H  0.168447599E+02 -0.335427294E+00  0.472753600E+00
     4
 # iter = 42000  time[fs]=42.00000
   C -0.335781644E+01 -0.149515676E+00  0.166469611E-01
   C  0.354299893E+01  0.123020036E+00  0.219633065E-01
   H -0.171965040E+02  0.165347372E+01 -0.112061095E+01
   H  0.172010254E+02 -0.343405424E+00  0.483341277E+00
     4
 # iter = 42500  time[fs]=42.50000
   C -0.343983176E+01 -0.153466282E+00  0.178747943E-01
   C  0.362744104E+01  0.125981880E+00  0.226047963E-01
   H -0.175570933E+02  0.168858240E+01 -0.114378698E+01
   H  0.175575876E+02 -0.351392355E+00  0.493938444E+00
     4
 # iter = 43000  time[fs]=43.00000
   C -0.352212768E+01 -0.157430042E+00  0.191034378E-01
   C  0.371216268E+01  0.128955154E+00  0.232463265E-01
   H -0.179179548E+02  0.172372027E+01 -0.116698235E+01
   H  0.179144350E+02 -0.359387766E+00  0.504544736E+00
     4
 # iter = 43500  time[fs]=43.50000
   C -0.360469132E+01 -0.161406384E+00  0.203328903E-01
   C  0.379715101E+01  0.131939351E+00  0.238878654E-01
   H -0.182790780E+02  0.175888620E+01 -0.119019630E+01
   H  0.182715563E+02 -0.367391348E+00  0.515159805E+00
     4
 # iter = 44000  time[fs]=44.00000
   C -0.368751062E+01 -0.165394771E+00  0.215631485E-01
   C  0.388239401E+01  0.134933998E+00  0.245293856E-01
   H -0.186404526E+02  0.179407916E+01 -0.121342815E+01
   H  0.186289411E+02 -0.375402813E+00  0.525783325E+00
     4
 # iter = 44500  time[fs]=44.50000
   C -0.377057431E+01 -0.169394698E+00  0.227942072E-01
   C  0.396788041E+01  0.137938649E+00  0.251708628E-01
   H -0.190020694E+02  0.182929815E+01 -0.123667724E+01
   H  0.189865796E+02 -0.383421886E+00  0.536414988E+00
     4
 # iter = 45000  time[fs]=45.00000
   C -0.385387178E+01 -0.173405691E+00  0.240260601E-01
   C  0.405359967E+01  0.140952887E+00  0.258122759E-01
   H -0.193639192E+02  0.186454225E+01 -0.125994293E+01
   H  0.193444624E+02 -0.391448306E+00  0.547054501E+00
     4
 # iter = 45500  time[fs]=45.50000
   C -0.393739310E+01 -0.177427303E+00  0.252586995E-01
   C  0.413954186E+01  0.143976317E+00  0.264536065E-01
   H -0.197259936E+02  0.189981056E+01 -0.128322465E+01
   H  0.197025808E+02 -0.399481827E+00  0.557701588E+00
     4
 # iter = 46000  time[fs]=46.00000
   C -0.402112891E+01 -0.181459113E+00  0.264921166E-01
   C  0.422569766E+01  0.147008568E+00  0.270948384E-01
   H -0.200882845E+02  0.193510226E+01 -0.130652183E+01
   H  0.200609263E+02 -0.407522213E+00  0.568355986E+00
     4
 # iter = 46500  time[fs]=46.50000
   C -0.410507042E+01 -0.185500723E+00  0.277263021E-01
   C  0.431205830E+01  0.150049292E+00  0.277359577E-01
   H -0.204507844E+02  0.197041654E+01 -0.132983393E+01
   H  0.204194911E+02 -0.415569242E+00  0.579017446E+00
     4
 # iter = 47000  time[fs]=47.00000
   C -0.418920934E+01 -0.189551759E+00  0.289612459E-01
   C  0.439861551E+01  0.153098157E+00  0.283769521E-01
   H -0.208134860E+02  0.200575265E+01 -0.135316047E+01
   H  0.207782676E+02 -0.423622700E+00  0.589685733E+00
     4
 # iter = 47500  time[fs]=47.50000
   C -0.427353786E+01 -0.193611865E+00  0.301969373E-01
   C  0.448536152E+01  0.156154854E+00  0.290178110E-01
   H -0.211763824E+02  0.204110986E+01 -0.137650095E+01
   H  0.211372486E+02 -0.431682385E+00  0.600360620E+00
     4
 # iter = 48000  time[fs]=48.00000
   C -0.435804860E+01 -0.197680707E+00  0.314333653E-01
   C  0.457228895E+01  0.159219087E+00  0.296585254E-01
   H -0.215394673E+02  0.207648751E+01 -0.139985492E+01
   H  0.214964275E+02 -0.439748104E+00  0.611041895E+00
     4
 # iter = 48500  time[fs]=48.50000
   C -0.444273459E+01 -0.201757967E+00  0.326705188E-01
   C  0.465939088E+01  0.162290576E+00  0.302990873E-01
   H -0.219027342E+02  0.211188492E+01 -0.142322195E+01
   H  0.218557977E+02 -0.447819673E+00  0.621729354E+00
     4
 # iter = 49000  time[fs]=49.00000
   C -0.452758924E+01 -0.205843343E+00  0.339083861E-01
   C  0.474666071E+01  0.165369059E+00  0.309394902E-01
   H -0.222661775E+02  0.214730150E+01 -0.144660163E+01
   H  0.222153532E+02 -0.455896916E+00  0.632422802E+00
     4
 # iter = 49500  time[fs]=49.50000
   C -0.461260631E+01 -0.209936551E+00  0.351469557E-01
   C  0.483409224E+01  0.168454285E+00  0.315797281E-01
   H -0.226297913E+02  0.218273663E+01 -0.146999357E+01
   H  0.225750879E+02 -0.463979664E+00  0.643122055E+00
     4
 # iter = 50000  time[fs]=50.00000
   C -0.469777989E+01 -0.214037317E+00  0.363862158E-01
   C  0.492167958E+01  0.171546016E+00  0.322197964E-01
   H -0.229935705E+02  0.221818977E+01 -0.149339738E+01
   H  0.229349965E+02 -0.472067758E+00  0.653826936E+00
     4
 # iter = 50500  time[fs]=50.50000
   C -0.478310438E+01 -0.218145387E+00  0.376261545E-01
   C  0.500941714E+01  0.174644027E+00  0.328596909E-01
   H -0.233575099E+02  0.225366036E+01 -0.151681271E+01
   H  0.232950734E+02 -0.480161043E+00  0.664537276E+00
     4
 # iter = 51000  time[fs]=51.00000
   C -0.486857446E+01 -0.222260513E+00  0.388667602E-01
   C  0.509729961E+01  0.177748103E+00  0.334994084E-01
   H -0.237216045E+02  0.228914791E+01 -0.154023921E+01
   H  0.236553137E+02 -0.488259372E+00  0.675252914E+00
     4
 # iter = 51500  time[fs]=51.50000
   C -0.495418507E+01 -0.226382463E+00  0.401080212E-01
   C  0.518532198E+01  0.180858040E+00  0.341389460E-01
   H -0.240858499E+02  0.232465190E+01 -0.156367657E+01
   H  0.240157125E+02 -0.496362605E+00  0.685973696E+00
     4
 # iter = 52000  time[fs]=52.00000
   C -0.503993143E+01 -0.230511015E+00  0.413499256E-01
   C  0.527347944E+01  0.183973645E+00  0.347783018E-01
   H -0.244502414E+02  0.236017187E+01 -0.158712446E+01
   H  0.243762652E+02 -0.504470606E+00  0.696699475E+00
     4
 # iter = 52500  time[fs]=52.50000
   C -0.512580895E+01 -0.234645957E+00  0.425924621E-01
   C  0.536176746E+01  0.187094733E+00  0.354174739E-01
   H -0.248147749E+02  0.239570738E+01 -0.161058258E+01
   H  0.247369671E+02 -0.512583246E+00  0.707430108E+00
     4
 # iter = 53000  time[fs]=53.00000
   C -0.521181331E+01 -0.238787088E+00  0.438356192E-01
   C  0.545018171E+01  0.190221128E+00  0.360564612E-01
   H -0.251794463E+02  0.243125798E+01 -0.163405066E+01
   H  0.250978143E+02 -0.520700400E+00  0.718165461E+00
     4
 # iter = 53500  time[fs]=53.50000
   C -0.529794035E+01 -0.242934215E+00  0.450793856E-01
   C  0.553871805E+01  0.193352661E+00  0.366952627E-01
   H -0.255442517E+02  0.246682326E+01 -0.165752841E+01
   H  0.254588024E+02 -0.528821948E+00  0.728905405E+00
     4
 # iter = 54000  time[fs]=54.00000
   C -0.538418613E+01 -0.247087154E+00  0.463237502E-01
   C  0.562737256E+01  0.196489172E+00  0.373338782E-01
   H -0.259091873E+02  0.250240283E+01 -0.168101557E+01
   H  0.258199277E+02 -0.536947777E+00  0.739649813E+00
     4
 # iter = 54500  time[fs]=54.50000
   C -0.547054689E+01 -0.251245729E+00  0.475687019E-01
   C  0.571614149E+01  0.199630509E+00  0.379723072E-01
   H -0.262742495E+02  0.253799630E+01 -0.170451188E+01
   H  0.261811864E+02 -0.545077775E+00  0.750398568E+00
     4
 # iter = 55000  time[fs]=55.00000
   C -0.555701903E+01 -0.255409772E+00  0.488142301E-01
   C  0.580502125E+01  0.202776525E+00  0.386105500E-01
   H -0.266394350E+02  0.257360331E+01 -0.172801710E+01
   H  0.265425748E+02 -0.553211837E+00  0.761151553E+00
     4
 # iter = 55500  time[fs]=55.50000
   C -0.564359912E+01 -0.259579123E+00  0.500603240E-01
   C  0.589400843E+01  0.205927079E+00  0.392486068E-01
   H -0.270047404E+02  0.260922349E+01 -0.175153101E+01
   H  0.269040896E+02 -0.561349861E+00  0.771908660E+00
     4
 # iter = 56000  time[fs]=56.00000
   C -0.573028389E+01 -0.263753628E+00  0.513069733E-01
   C  0.598309976E+01  0.209082039E+00  0.398864782E-01
   H -0.273701625E+02  0.264485653E+01 -0.177505337E+01
   H  0.272657273E+02 -0.569491748E+00  0.782669781E+00
     4
 # iter = 56500  time[fs]=56.50000
   C -0.581707020E+01 -0.267933138E+00  0.525541678E-01
   C  0.607229213E+01  0.212241276E+00  0.405241649E-01
   H -0.277356983E+02  0.268050208E+01 -0.179858397E+01
   H  0.276274849E+02 -0.577637403E+00  0.793434814E+00
     4
 # iter = 57000  time[fs]=57.00000
   C -0.590395504E+01 -0.272117514E+00  0.538018973E-01
   C  0.616158253E+01  0.215404667E+00  0.411616677E-01
   H -0.281013448E+02  0.271615983E+01 -0.182212259E+01
   H  0.279893592E+02 -0.585786736E+00  0.804203663E+00
     4
 # iter = 57500  time[fs]=57.50000
   C -0.599093555E+01 -0.276306619E+00  0.550501522E-01
   C  0.625096810E+01  0.218572095E+00  0.417989878E-01
   H -0.284670993E+02  0.275182949E+01 -0.184566905E+01
   H  0.283513473E+02 -0.593939659E+00  0.814976231E+00
     4
 # iter = 58000  time[fs]=58.00000
   C -0.607800896E+01 -0.280500323E+00  0.562989226E-01
   C  0.634044611E+01  0.221743446E+00  0.424361263E-01
   H -0.288329590E+02  0.278751076E+01 -0.186922314E+01
   H  0.287134463E+02 -0.602096086E+00  0.825752428E+00
     4
 # iter = 58500  time[fs]=58.50000
   C -0.616517265E+01 -0.284698501E+00  0.575481993E-01
   C  0.643001393E+01  0.224918613E+00  0.430730845E-01
   H -0.291989213E+02  0.282320337E+01 -0.189278469E+01
   H  0.290756534E+02 -0.610255936E+00  0.836532166E+00
     4
 # iter = 59000  time[fs]=59.00000
   C -0.625242408E+01 -0.288901035E+00  0.587979729E-01
   C  0.651966903E+01  0.228097492E+00  0.437098637E-01
   H -0.295649837E+02  0.285890703E+01 -0.191635351E+01
   H  0.294379662E+02 -0.618419129E+00  0.847315361E+00
     4
 # iter = 59500  time[fs]=59.50000
   C -0.633976082E+01 -0.293107808E+00  0.600482344E-01
   C  0.660940901E+01  0.231279982E+00  0.443464654E-01
   H -0.299311438E+02  0.289462149E+01 -0.193992942E+01
   H  0.298003819E+02 -0.626585590E+00  0.858101931E+00
     4
 # iter = 60000  time[fs]=60.00000
   C -0.642718055E+01 -0.297318709E+00  0.612989750E-01
   C  0.669923153E+01  0.234465988E+00  0.449828911E-01
   H -0.302973992E+02  0.293034650E+01 -0.196351228E+01
   H  0.301628982E+02 -0.634755246E+00  0.868891797E+00
     4
 # iter = 60500  time[fs]=60.50000
   C -0.651468102E+01 -0.301533633E+00  0.625501859E-01
   C  0.678913437E+01  0.237655418E+00  0.456191424E-01
   H -0.306637477E+02  0.296608182E+01 -0.198710190E+01
   H  0.305255127E+02 -0.642928023E+00  0.879684883E+00
     4
 # iter = 61000  time[fs]=61.00000
   C -0.660226009E+01 -0.305752476E+00  0.638018589E-01
   C  0.687911538E+01  0.240848182E+00  0.462552210E-01
   H -0.310301870E+02  0.300182721E+01 -0.201069814E+01
   H  0.308882231E+02 -0.651103855E+00  0.890481116E+00
     4
 # iter = 61500  time[fs]=61.50000
   C -0.668991568E+01 -0.309975140E+00  0.650539855E-01
   C  0.696917252E+01  0.244044196E+00  0.468911285E-01
   H -0.313967152E+02  0.303758244E+01 -0.203430085E+01
   H  0.312510272E+02 -0.659282673E+00  0.901280424E+00
     4
 # iter = 62000  time[fs]=62.00000
   C -0.677764581E+01 -0.314201530E+00  0.663065577E-01
   C  0.705930378E+01  0.247243377E+00  0.475268667E-01
   H -0.317633301E+02  0.307334729E+01 -0.205790988E+01
   H  0.316139228E+02 -0.667464414E+00  0.912082740E+00
     4
 # iter = 62500  time[fs]=62.50000
   C -0.686544855E+01 -0.318431554E+00  0.675595675E-01
   C  0.714950728E+01  0.250445646E+00  0.481624373E-01
   H -0.321300298E+02  0.310912156E+01 -0.208152509E+01
   H  0.319769079E+02 -0.675649015E+00  0.922887996E+00
     4
 # iter = 63000  time[fs]=63.00000
   C -0.695332208E+01 -0.322665124E+00  0.688130073E-01
   C  0.723978117E+01  0.253650928E+00  0.487978422E-01
   H -0.324968123E+02  0.314490504E+01 -0.210514635E+01
   H  0.323399806E+02 -0.683836417E+00  0.933696130E+00
     4
 # iter = 63500  time[fs]=63.50000
   C -0.704126460E+01 -0.326902154E+00  0.700668695E-01
   C  0.733012368E+01  0.256859147E+00  0.494330831E-01
   H -0.328636760E+02  0.318069752E+01 -0.212877352E+01
   H  0.327031388E+02 -0.692026559E+00  0.944507077E+00
     4
 # iter = 64000  time[fs]=64.00000
   C -0.712927442E+01 -0.331142563E+00  0.713211466E-01
   C  0.742053311E+01  0.260070234E+00  0.500681618E-01
   H -0.332306189E+02  0.321649883E+01 -0.215240648E+01
   H  0.330663807E+02 -0.700219386E+00  0.955320779E+00
     4
 # iter = 64500  time[fs]=64.50000
   C -0.721734987E+01 -0.335386271E+00  0.725758316E-01
   C  0.751100783E+01  0.263284119E+00  0.507030801E-01
   H -0.335976394E+02  0.325230876E+01 -0.217604511E+01
   H  0.334297046E+02 -0.708414843E+00  0.966137178E+00
     4
 # iter = 65000  time[fs]=65.00000
   C -0.730548938E+01 -0.339633201E+00  0.738309172E-01
   C  0.760154624E+01  0.266500738E+00  0.513378400E-01
   H -0.339647359E+02  0.328812715E+01 -0.219968929E+01
   H  0.337931086E+02 -0.716612876E+00  0.976956216E+00
     4
 # iter = 65500  time[fs]=65.50000
   C -0.739369140E+01 -0.343883280E+00  0.750863967E-01
   C  0.769214681E+01  0.269720025E+00  0.519724432E-01
   H -0.343319066E+02  0.332395381E+01 -0.222333889E+01
   H  0.341565911E+02 -0.724813433E+00  0.987777840E+00
     4
 # iter = 66000  time[fs]=66.00000
   C -0.748195445E+01 -0.348136435E+00  0.763422633E-01
   C  0.778280808E+01  0.272941920E+00  0.526068916E-01
   H -0.346991501E+02  0.335978858E+01 -0.224699382E+01
   H  0.345201504E+02 -0.733016465E+00  0.998601996E+00
     4
 # iter = 66500  time[fs]=66.50000
   C -0.757027711E+01 -0.352392599E+00  0.775985104E-01
   C  0.787352862E+01  0.276166363E+00  0.532411870E-01
   H -0.350664648E+02  0.339563129E+01 -0.227065395E+01
   H  0.348837850E+02 -0.741221923E+00  0.100942863E+01
     4
 # iter = 67000  time[fs]=67.00000
   C -0.765865799E+01 -0.356651703E+00  0.788551316E-01
   C  0.796430704E+01  0.279393297E+00  0.538753312E-01
   H -0.354338492E+02  0.343148179E+01 -0.229431920E+01
   H  0.352474933E+02 -0.749429760E+00  0.102025770E+01
     4
 # iter = 67500  time[fs]=67.50000
   C -0.774709575E+01 -0.360913683E+00  0.801121206E-01
   C  0.805514204E+01  0.282622665E+00  0.545093261E-01
   H -0.358013021E+02  0.346733992E+01 -0.231798944E+01
   H  0.356112738E+02 -0.757639929E+00  0.103108915E+01
     4
 # iter = 68000  time[fs]=68.00000
   C -0.783558911E+01 -0.365178477E+00  0.813694712E-01
   C  0.814603231E+01  0.285854413E+00  0.551431734E-01
   H -0.361688219E+02  0.350320552E+01 -0.234166459E+01
   H  0.359751251E+02 -0.765852387E+00  0.104192294E+01
     4
 # iter = 68500  time[fs]=68.50000
   C -0.792413682E+01 -0.369446024E+00  0.826271775E-01
   C  0.823697662E+01  0.289088491E+00  0.557768750E-01
   H -0.365364073E+02  0.353907847E+01 -0.236534456E+01
   H  0.363390457E+02 -0.774067089E+00  0.105275902E+01
     4
 # iter = 69000  time[fs]=69.00000
   C -0.801273767E+01 -0.373716265E+00  0.838852335E-01
   C  0.832797377E+01  0.292324847E+00  0.564104326E-01
   H -0.369040571E+02  0.357495860E+01 -0.238902923E+01
   H  0.367030343E+02 -0.782283994E+00  0.106359734E+01
     4
 # iter = 69500  time[fs]=69.50000
   C -0.810139049E+01 -0.377989143E+00  0.851436336E-01
   C  0.841902259E+01  0.295563433E+00  0.570438480E-01
   H -0.372717699E+02  0.361084579E+01 -0.241271854E+01
   H  0.370670896E+02 -0.790503062E+00  0.107443787E+01
     4
 # iter = 70000  time[fs]=70.00000
   C -0.819009415E+01 -0.382264604E+00  0.864023721E-01
   C  0.851012195E+01  0.298804201E+00  0.576771230E-01
   H -0.376395446E+02  0.364673991E+01 -0.243641238E+01
   H  0.374312103E+02 -0.798724251E+00  0.108528056E+01
     4
 # iter = 70500  time[fs]=70.50000
   C -0.827884756E+01 -0.386542593E+00  0.876614436E-01
   C  0.860127078E+01  0.302047105E+00  0.583102593E-01
   H -0.380073800E+02  0.368264081E+01 -0.246011067E+01
   H  0.377953952E+02 -0.806947524E+00  0.109612537E+01
     4
 # iter = 71000  time[fs]=71.00000
   C -0.836764966E+01 -0.390823060E+00  0.889208426E-01
   C  0.869246800E+01  0.305292101E+00  0.589432587E-01
   H -0.383752750E+02  0.371854838E+01 -0.248381333E+01
   H  0.381596429E+02 -0.815172842E+00  0.110697226E+01
     4
 # iter = 71500  time[fs]=71.50000
   C -0.845649941E+01 -0.395105953E+00  0.901805640E-01
   C  0.878371261E+01  0.308539146E+00  0.595761227E-01
   H -0.387432283E+02  0.375446250E+01 -0.250752029E+01
   H  0.385239525E+02 -0.823400170E+00  0.111782120E+01
     4
 # iter = 72000  time[fs]=72.00000
   C -0.854539583E+01 -0.399391225E+00  0.914406026E-01
   C  0.887500361E+01  0.311788199E+00  0.602088533E-01
   H -0.391112389E+02  0.379038305E+01 -0.253123145E+01
   H  0.388883226E+02 -0.831629472E+00  0.112867214E+01
     4
 # iter = 72500  time[fs]=72.50000
   C -0.863433794E+01 -0.403678827E+00  0.927009534E-01
   C  0.896634003E+01  0.315039218E+00  0.608414518E-01
   H -0.394793058E+02  0.382630990E+01 -0.255494674E+01
   H  0.392527522E+02 -0.839860712E+00  0.113952505E+01
     4
 # iter = 73000  time[fs]=73.00000
   C -0.872332482E+01 -0.407968715E+00  0.939616116E-01
   C  0.905772095E+01  0.318292164E+00  0.614739202E-01
   H -0.398474279E+02  0.386224295E+01 -0.257866609E+01
   H  0.396172402E+02 -0.848093857E+00  0.115037990E+01
     4
 # iter = 73500  time[fs]=73.50000
   C -0.881235554E+01 -0.412260842E+00  0.952225722E-01
   C  0.914914546E+01  0.321546999E+00  0.621062599E-01
   H -0.402156042E+02  0.389818208E+01 -0.260238943E+01
   H  0.399817855E+02 -0.856328875E+00  0.116123664E+01
     4
 # iter = 74000  time[fs]=74.00000
   C -0.890142924E+01 -0.416555167E+00  0.964838306E-01
   C  0.924061269E+01  0.324803686E+00  0.627384725E-01
   H -0.405838338E+02  0.393412720E+01 -0.262611669E+01
   H  0.403463871E+02 -0.864565732E+00  0.117209526E+01
     4
 # iter = 74500  time[fs]=74.50000
   C -0.899054506E+01 -0.420851646E+00  0.977453823E-01
   C  0.933212178E+01  0.328062190E+00  0.633705598E-01
   H -0.409521156E+02  0.397007819E+01 -0.264984779E+01
   H  0.407110441E+02 -0.872804399E+00  0.118295570E+01
     4
 # iter = 75000  time[fs]=75.00000
   C -0.907970215E+01 -0.425150240E+00  0.990072227E-01
   C  0.942367190E+01  0.331322474E+00  0.640025231E-01
   H -0.413204489E+02  0.400603495E+01 -0.267358268E+01
   H  0.410757554E+02 -0.881044843E+00  0.119381795E+01
     4
 # iter = 75500  time[fs]=75.50000
   C -0.916889973E+01 -0.429450908E+00  0.100269347E+00
   C  0.951526227E+01  0.334584506E+00  0.646343641E-01
   H -0.416888326E+02  0.404199739E+01 -0.269732128E+01
   H  0.414405201E+02 -0.889287037E+00  0.120468198E+01
     4
 # iter = 76000  time[fs]=76.00000
   C -0.925813700E+01 -0.433753611E+00  0.101531752E+00
   C  0.960689208E+01  0.337848251E+00  0.652660843E-01
   H -0.420572659E+02  0.407796541E+01 -0.272106353E+01
   H  0.418053373E+02 -0.897530950E+00  0.121554774E+01
     4
 # iter = 76500  time[fs]=76.50000
   C -0.934741320E+01 -0.438058313E+00  0.102794433E+00
   C  0.969856059E+01  0.341113679E+00  0.658976852E-01
   H -0.424257479E+02  0.411393891E+01 -0.274480937E+01
   H  0.421702060E+02 -0.905776554E+00  0.122641521E+01
     4
 # iter = 77000  time[fs]=77.00000
   C -0.943672759E+01 -0.442364976E+00  0.104057385E+00
   C  0.979026707E+01  0.344380757E+00  0.665291683E-01
   H -0.427942778E+02  0.414991781E+01 -0.276855875E+01
   H  0.425351255E+02 -0.914023823E+00  0.123728437E+01
     4
 # iter = 77500  time[fs]=77.50000
   C -0.952607946E+01 -0.446673565E+00  0.105320605E+00
   C  0.988201078E+01  0.347649456E+00  0.671605350E-01
   H -0.431628549E+02  0.418590201E+01 -0.279231159E+01
   H  0.429000947E+02 -0.922272728E+00  0.124815519E+01
     4
 # iter = 78000  time[fs]=78.00000
   C -0.961546810E+01 -0.450984045E+00  0.106584089E+00
   C  0.997379105E+01  0.350919745E+00  0.677917868E-01
   H -0.435314782E+02  0.422189143E+01 -0.281606785E+01
   H  0.432651130E+02 -0.930523244E+00  0.125902763E+01
     4
 # iter = 78500  time[fs]=78.50000
   C -0.970489283E+01 -0.455296383E+00  0.107847833E+00
   C  0.100656072E+02  0.354191596E+00  0.684229251E-01
   H -0.439001471E+02  0.425788598E+01 -0.283982747E+01
   H  0.436301794E+02 -0.938775345E+00  0.126990167E+01
     4
 # iter = 79000  time[fs]=79.00000
   C -0.979435300E+01 -0.459610545E+00  0.109111833E+00
   C  0.101574585E+02  0.357464982E+00  0.690539512E-01
   H -0.442688608E+02  0.429388558E+01 -0.286359039E+01
   H  0.439952933E+02 -0.947029007E+00  0.128077729E+01
     4
 # iter = 79500  time[fs]=79.50000
   C -0.988384795E+01 -0.463926501E+00  0.110376085E+00
   C  0.102493445E+02  0.360739874E+00  0.696848667E-01
   H -0.446376185E+02  0.432989014E+01 -0.288735656E+01
   H  0.443604538E+02 -0.955284203E+00  0.129165446E+01
     4
 # iter = 80000  time[fs]=80.00000
   C -0.997337705E+01 -0.468244218E+00  0.111640586E+00
   C  0.103412643E+02  0.364016246E+00  0.703156727E-01
   H -0.450064195E+02  0.436589960E+01 -0.291112593E+01
   H  0.447256601E+02 -0.963540912E+00  0.130253316E+01
