     4
 # iter = 25000  time[fs]=25.00000
   C -0.100605717E+01 -0.163742927E-01 -0.262291468E-01
   C  0.989192798E+00  0.111084851E-01 -0.769944137E-02
   H -0.522371550E+01 -0.379264044E+00  0.427704714E+00
   H  0.528471414E+01 -0.214346278E+00 -0.441268025E+00
     4
 # iter = 25500  time[fs]=25.50000
   C -0.105298143E+01 -0.144927668E-01 -0.273184053E-01
   C  0.103198126E+01  0.123239638E-01 -0.515102698E-02
   H -0.555804295E+01 -0.399920982E+00  0.458257907E+00
   H  0.560425295E+01 -0.227361577E+00 -0.466886660E+00
     4
 # iter = 26000  time[fs]=26.00000
   C -0.110321038E+01 -0.126408217E-01 -0.284541519E-01
   C  0.107807793E+01  0.135942120E-01 -0.255767460E-02
   H -0.589510013E+01 -0.420773986E+00  0.489068873E+00
   H  0.592647913E+01 -0.240483077E+00 -0.492744468E+00
     4
 # iter = 26500  time[fs]=26.50000
   C -0.115646195E+01 -0.108137380E-01 -0.296358575E-01
   C  0.112719937E+01  0.149116451E-01  0.803325521E-04
   H -0.623457902E+01 -0.441799935E+00  0.520108808E+00
   H  0.625110123E+01 -0.253699511E+00 -0.518815594E+00
     4
 # iter = 27000  time[fs]=27.00000
   C -0.121247342E+01 -0.900745415E-02 -0.308624953E-01
   C  0.117908186E+01  0.162698019E-01  0.276216354E-02
   H -0.657622018E+01 -0.462979575E+00  0.551353507E+00
   H  0.657787202E+01 -0.267001342E+00 -0.545078183E+00
     4
 # iter = 27500  time[fs]=27.50000
   C -0.127100280E+01 -0.721851235E-02 -0.321326701E-01
   C  0.123348262E+01  0.176631956E-01  0.548658131E-02
   H -0.691980316E+01 -0.484296702E+00  0.582782430E+00
   H  0.690658009E+01 -0.280380423E+00 -0.571513594E+00
     4
 # iter = 28000  time[fs]=28.00000
   C -0.133182897E+01 -0.544399170E-02 -0.334447327E-01
   C  0.129017999E+01  0.190871732E-01  0.825206585E-02
   H -0.726513914E+01 -0.505737552E+00  0.614377999E+00
   H  0.723704328E+01 -0.293829735E+00 -0.598105798E+00
     4
 # iter = 28500  time[fs]=28.50000
   C -0.139475111E+01 -0.368143767E-02 -0.347968746E-01
   C  0.134897276E+01  0.205377895E-01  0.110569155E-01
   H -0.761206520E+01 -0.527290330E+00  0.646125048E+00
   H  0.756910364E+01 -0.307343183E+00 -0.624840913E+00
     4
 # iter = 29000  time[fs]=29.00000
   C -0.145958760E+01 -0.192879458E-02 -0.361872039E-01
   C  0.140967897E+01  0.220116968E-01  0.138993272E-01
   H -0.796043984E+01 -0.548944859E+00  0.678010404E+00
   H  0.790262333E+01 -0.320915442E+00 -0.651706829E+00
     4
 # iter = 29500  time[fs]=29.50000
   C -0.152617460E+01 -0.184344284E-03 -0.376138023E-01
   C  0.147213457E+01  0.235060495E-01  0.167774573E-01
   H -0.831013943E+01 -0.570692289E+00  0.710022548E+00
   H  0.823748139E+01 -0.334541829E+00 -0.678692925E+00
     4
 # iter = 30000  time[fs]=30.00000
   C -0.159436457E+01  0.155334785E-02 -0.390747676E-01
   C  0.153619187E+01  0.250184229E-01  0.196894667E-01
   H -0.866105532E+01 -0.592524883E+00  0.742151351E+00
   H  0.857357110E+01 -0.348218206E+00 -0.705789831E+00
     4
 # iter = 30500  time[fs]=30.50000
   C -0.166402477E+01  0.328547947E-02 -0.405682436E-01
   C  0.160171800E+01  0.265467455E-01  0.226335534E-01
   H -0.901309157E+01 -0.614435830E+00  0.774387857E+00
   H  0.891079789E+01 -0.361940891E+00 -0.732989236E+00
     4
 # iter = 31000  time[fs]=31.00000
   C -0.173503578E+01  0.501305071E-02 -0.420924409E-01
   C  0.166859347E+01  0.280892417E-01  0.256079738E-01
   H -0.936616302E+01 -0.636419111E+00  0.806724108E+00
   H  0.924907753E+01 -0.375706603E+00 -0.760283737E+00
     4
 # iter = 31500  time[fs]=31.50000
   C -0.180729012E+01  0.673689738E-02 -0.436456491E-01
   C  0.173671075E+01  0.296443844E-01  0.286110577E-01
   H -0.972019378E+01 -0.658469373E+00  0.839153000E+00
   H  0.958833473E+01 -0.389512395E+00 -0.787666709E+00
     4
 # iter = 32000  time[fs]=32.00000
   C -0.188069098E+01  0.845771859E-02 -0.452262448E-01
   C  0.180597300E+01  0.312108555E-01  0.316412161E-01
   H -0.100751159E+02 -0.680581841E+00  0.871668168E+00
   H  0.992850190E+01 -0.403355617E+00 -0.815132201E+00
     4
 # iter = 32500  time[fs]=32.50000
   C -0.195515108E+01  0.101760998E-01 -0.468326947E-01
   C  0.187629293E+01  0.327875132E-01  0.346969460E-01
   H -0.104308684E+02 -0.702752233E+00  0.904263881E+00
   H  0.102695182E+02 -0.417233876E+00 -0.842674846E+00
     4
 # iter = 33000  time[fs]=33.00000
   C -0.203059162E+01  0.118925318E-01 -0.484635561E-01
   C  0.194759173E+01  0.343733647E-01  0.377768310E-01
   H -0.107873962E+02 -0.724976694E+00  0.936934965E+00
   H  0.106113285E+02 -0.431144999E+00 -0.870289785E+00
     4
 # iter = 33500  time[fs]=33.50000
   C -0.210694134E+01  0.136074266E-01 -0.501174753E-01
   C  0.201979816E+01  0.359675433E-01  0.408795406E-01
   H -0.111446496E+02 -0.747251744E+00  0.969676730E+00
   H  0.109538830E+02 -0.445087013E+00 -0.897972608E+00
     4
 # iter = 34000  time[fs]=34.00000
   C -0.218413572E+01  0.153211303E-01 -0.517931845E-01
   C  0.209284772E+01  0.375692902E-01  0.440038276E-01
   H -0.115025833E+02 -0.769574230E+00  0.100248491E+01
   H  0.112971363E+02 -0.459058116E+00 -0.925719299E+00
     4
 # iter = 34500  time[fs]=34.50000
   C -0.226211621E+01  0.170339339E-01 -0.534894983E-01
   C  0.216668187E+01  0.391779381E-01  0.471485249E-01
   H -0.118611562E+02 -0.791941284E+00  0.103535563E+01
   H  0.116410470E+02 -0.473056663E+00 -0.953526188E+00
     4
 # iter = 35000  time[fs]=35.00000
   C -0.234082962E+01  0.187460825E-01 -0.552053092E-01
   C  0.224124747E+01  0.407928983E-01  0.503125410E-01
   H -0.122203308E+02 -0.814350293E+00  0.106828532E+01
   H  0.119855772E+02 -0.487081141E+00 -0.981389916E+00
     4
 # iter = 35500  time[fs]=35.50000
   C -0.242022753E+01  0.204577822E-01 -0.569395830E-01
   C  0.231649610E+01  0.424136495E-01  0.534948563E-01
   H -0.125800728E+02 -0.836798865E+00  0.110127074E+01
   H  0.123306922E+02 -0.501130163E+00 -0.100930740E+01
     4
 # iter = 36000  time[fs]=36.00000
   C -0.250026576E+01  0.221692070E-01 -0.586913544E-01
   C  0.239238363E+01  0.440397288E-01  0.566945183E-01
   H -0.129403507E+02 -0.859284810E+00  0.113430887E+01
   H  0.126763602E+02 -0.515202449E+00 -0.103727579E+01
     4
 # iter = 36500  time[fs]=36.50000
   C -0.258090397E+01  0.238805030E-01 -0.604597220E-01
   C  0.246886974E+01  0.456707235E-01  0.599106374E-01
   H -0.133011354E+02 -0.881806114E+00  0.116739697E+01
   H  0.130225518E+02 -0.529296816E+00 -0.106529248E+01
     4
 # iter = 37000  time[fs]=37.00000
   C -0.266210522E+01  0.255917934E-01 -0.622438443E-01
   C  0.254591754E+01  0.473062648E-01  0.631423824E-01
   H -0.136624002E+02 -0.904360923E+00  0.120053249E+01
   H  0.133692398E+02 -0.543412171E+00 -0.109335505E+01
     4
 # iter = 37500  time[fs]=37.50000
   C -0.274383565E+01  0.273031819E-01 -0.640429352E-01
   C  0.262349319E+01  0.489460219E-01  0.663889768E-01
   H -0.140241206E+02 -0.926947524E+00  0.123371307E+01
   H  0.137163992E+02 -0.557547500E+00 -0.112146124E+01
     4
 # iter = 38000  time[fs]=38.00000
   C -0.282606416E+01  0.290147554E-01 -0.658562602E-01
   C  0.270156563E+01  0.505896972E-01  0.696496945E-01
   H -0.143862736E+02 -0.949564333E+00  0.126693653E+01
   H  0.140640067E+02 -0.571701859E+00 -0.114960898E+01
     4
 # iter = 38500  time[fs]=38.50000
   C -0.290876213E+01  0.307265869E-01 -0.676831323E-01
   C  0.278010627E+01  0.522370223E-01  0.729238564E-01
   H -0.147488381E+02 -0.972209881E+00  0.130020083E+01
   H  0.144120408E+02 -0.585874372E+00 -0.117779633E+01
     4
 # iter = 39000  time[fs]=39.00000
   C -0.299190319E+01  0.324387374E-01 -0.695229089E-01
   C  0.285908878E+01  0.538877544E-01  0.762108268E-01
   H -0.151117944E+02 -0.994882806E+00  0.133350409E+01
   H  0.147604815E+02 -0.600064221E+00 -0.120602150E+01
     4
 # iter = 39500  time[fs]=39.50000
   C -0.307546300E+01  0.341512576E-01 -0.713749881E-01
   C  0.293848885E+01  0.555416736E-01  0.795100104E-01
   H -0.154751242E+02 -0.101758184E+01  0.136684456E+01
   H  0.151093099E+02 -0.614270643E+00 -0.123428279E+01
     4
 # iter = 40000  time[fs]=40.00000
   C -0.315941905E+01  0.358641896E-01 -0.732388059E-01
   C  0.301828401E+01  0.571985794E-01  0.828208492E-01
   H -0.158388106E+02 -0.104030580E+01  0.140022058E+01
   H  0.154585087E+02 -0.628492923E+00 -0.126257863E+01
     4
 # iter = 40500  time[fs]=40.50000
   C -0.324375051E+01  0.375775682E-01 -0.751138336E-01
   C  0.309845344E+01  0.588582897E-01  0.861428196E-01
   H -0.162028375E+02 -0.106305358E+01  0.143363062E+01
   H  0.158080616E+02 -0.642730393E+00 -0.129090756E+01
     4
 # iter = 41000  time[fs]=41.00000
   C -0.332843804E+01  0.392914217E-01 -0.769995748E-01
   C  0.317897786E+01  0.605206378E-01  0.894754302E-01
   H -0.165671902E+02 -0.108582415E+01  0.146707325E+01
   H  0.161579534E+02 -0.656982424E+00 -0.131926819E+01
     4
 # iter = 41500  time[fs]=41.50000
   C -0.341346370E+01  0.410057730E-01 -0.788955632E-01
   C  0.325983933E+01  0.621854711E-01  0.928182193E-01
   H -0.169318546E+02 -0.110861654E+01  0.150054711E+01
   H  0.165081696E+02 -0.671248428E+00 -0.134765923E+01
     4
 # iter = 42000  time[fs]=42.00000
   C -0.349881079E+01  0.427206404E-01 -0.808013605E-01
   C  0.334102121E+01  0.638526495E-01  0.961707527E-01
   H -0.172968177E+02 -0.113142985E+01  0.153405094E+01
   H  0.168586970E+02 -0.685527851E+00 -0.137607946E+01
     4
 # iter = 42500  time[fs]=42.50000
   C -0.358446376E+01  0.444360384E-01 -0.827165540E-01
   C  0.342250797E+01  0.655220445E-01  0.995326217E-01
   H -0.176620672E+02 -0.115426323E+01  0.156758354E+01
   H  0.172095229E+02 -0.699820170E+00 -0.140452774E+01
     4
 # iter = 43000  time[fs]=43.00000
   C -0.367040812E+01  0.461519779E-01 -0.846407555E-01
   C  0.350428513E+01  0.671935373E-01  0.102903441E+00
   H -0.180275917E+02 -0.117711588E+01  0.160114380E+01
   H  0.175606355E+02 -0.714124894E+00 -0.143300300E+01
     4
 # iter = 43500  time[fs]=43.50000
   C -0.375663033E+01  0.478684669E-01 -0.865735987E-01
   C  0.358633918E+01  0.688670186E-01  0.106282849E+00
   H -0.183933802E+02 -0.119998704E+01  0.163473066E+01
   H  0.179120235E+02 -0.728441558E+00 -0.146150420E+01
     4
 # iter = 44000  time[fs]=44.00000
   C -0.384311772E+01  0.495855111E-01 -0.885147383E-01
   C  0.366865749E+01  0.705423870E-01  0.109670502E+00
   H -0.187594225E+02 -0.122287600E+01  0.166834312E+01
   H  0.182636766E+02 -0.742769725E+00 -0.149003039E+01
     4
 # iter = 44500  time[fs]=44.50000
   C -0.392985844E+01  0.513031138E-01 -0.904638480E-01
   C  0.375122824E+01  0.722195487E-01  0.113066078E+00
   H -0.191257091E+02 -0.124578211E+01  0.170198023E+01
   H  0.186155846E+02 -0.757108978E+00 -0.151858067E+01
     4
 # iter = 45000  time[fs]=45.00000
   C -0.401684139E+01  0.530212768E-01 -0.924206198E-01
   C  0.383404033E+01  0.738984168E-01  0.116469270E+00
   H -0.194922307E+02 -0.126870472E+01  0.173564112E+01
   H  0.189677382E+02 -0.771458924E+00 -0.154715417E+01
     4
 # iter = 45500  time[fs]=45.50000
   C -0.410405613E+01  0.547400000E-01 -0.943847622E-01
   C  0.391708336E+01  0.755789102E-01  0.119879789E+00
   H -0.198589788E+02 -0.129164323E+01  0.176932493E+01
   H  0.193201285E+02 -0.785819193E+00 -0.157575008E+01
     4
 # iter = 46000  time[fs]=46.00000
   C -0.419149288E+01  0.564592823E-01 -0.963559995E-01
   C  0.400034757E+01  0.772609536E-01  0.123297363E+00
   H -0.202259452E+02 -0.131459708E+01  0.180303087E+01
   H  0.196727472E+02 -0.800189430E+00 -0.160436763E+01
     4
 # iter = 46500  time[fs]=46.50000
   C -0.427914243E+01  0.581791213E-01 -0.983340702E-01
   C  0.408382377E+01  0.789444767E-01  0.126721732E+00
   H -0.205931223E+02 -0.133756574E+01  0.183675817E+01
   H  0.200255861E+02 -0.814569299E+00 -0.163300608E+01
     4
 # iter = 47000  time[fs]=47.00000
   C -0.436699610E+01  0.598995137E-01 -0.100318727E+00
   C  0.416750330E+01  0.806294139E-01  0.130152650E+00
   H -0.209605026E+02 -0.136054870E+01  0.187050612E+01
   H  0.203786378E+02 -0.828958483E+00 -0.166166474E+01
     4
 # iter = 47500  time[fs]=47.50000
   C -0.445504573E+01  0.616204554E-01 -0.102309734E+00
   C  0.425137803E+01  0.823157039E-01  0.133589884E+00
   H -0.213280793E+02 -0.138354546E+01  0.190427404E+01
   H  0.207318951E+02 -0.843356678E+00 -0.169034294E+01
     4
 # iter = 48000  time[fs]=48.00000
   C -0.454328361E+01  0.633419415E-01 -0.104306869E+00
   C  0.433544025E+01  0.840032890E-01  0.137033212E+00
   H -0.216958457E+02 -0.140655558E+01  0.193806127E+01
   H  0.210853511E+02 -0.857763595E+00 -0.171904007E+01
     4
 # iter = 48500  time[fs]=48.50000
   C -0.463170246E+01  0.650639668E-01 -0.106309920E+00
   C  0.441968272E+01  0.856921154E-01  0.140482425E+00
   H -0.220637956E+02 -0.142957862E+01  0.197186719E+01
   H  0.214389993E+02 -0.872178959E+00 -0.174775550E+01
     4
 # iter = 49000  time[fs]=49.00000
   C -0.472029540E+01  0.667865254E-01 -0.108318686E+00
   C  0.450409857E+01  0.873821326E-01  0.143937323E+00
   H -0.224319230E+02 -0.145261416E+01  0.200569122E+01
   H  0.217928335E+02 -0.886602509E+00 -0.177648869E+01
     4
 # iter = 49500  time[fs]=49.50000
   C -0.480905593E+01  0.685096110E-01 -0.110332974E+00
   C  0.458868131E+01  0.890732928E-01  0.147397714E+00
   H -0.228002222E+02 -0.147566181E+01  0.203953278E+01
   H  0.221468479E+02 -0.901033994E+00 -0.180523907E+01
     4
 # iter = 50000  time[fs]=50.00000
   C -0.489797788E+01  0.702332172E-01 -0.112352602E+00
   C  0.467342479E+01  0.907655513E-01  0.150863419E+00
   H -0.231686879E+02 -0.149872119E+01  0.207339136E+01
   H  0.225010368E+02 -0.915473175E+00 -0.183400613E+01
     4
 # iter = 50500  time[fs]=50.50000
   C -0.498705541E+01  0.719573372E-01 -0.114377396E+00
   C  0.475832321E+01  0.924588659E-01  0.154334263E+00
   H -0.235373147E+02 -0.152179194E+01  0.210726642E+01
   H  0.228553948E+02 -0.929919824E+00 -0.186278937E+01
     4
 # iter = 51000  time[fs]=51.00000
   C -0.507628299E+01  0.736819640E-01 -0.116407190E+00
   C  0.484337102E+01  0.941531968E-01  0.157810083E+00
   H -0.239060979E+02 -0.154487372E+01  0.214115749E+01
   H  0.232099169E+02 -0.944373722E+00 -0.189158832E+01
     4
 # iter = 51500  time[fs]=51.50000
   C -0.516565536E+01  0.754070904E-01 -0.118441827E+00
   C  0.492856300E+01  0.958485063E-01  0.161290721E+00
   H -0.242750327E+02 -0.156796619E+01  0.217506410E+01
   H  0.235645981E+02 -0.958834662E+00 -0.192040252E+01
     4
 # iter = 52000  time[fs]=52.00000
   C -0.525516752E+01  0.771327093E-01 -0.120481154E+00
   C  0.501389416E+01  0.975447590E-01  0.164776028E+00
   H -0.246441146E+02 -0.159106905E+01  0.220898579E+01
   H  0.239194337E+02 -0.973302442E+00 -0.194923154E+01
     4
 # iter = 52500  time[fs]=52.50000
   C -0.534481473E+01  0.788588133E-01 -0.122525028E+00
   C  0.509935977E+01  0.992419211E-01  0.168265860E+00
   H -0.250133394E+02 -0.161418200E+01  0.224292215E+01
   H  0.242744194E+02 -0.987776872E+00 -0.197807496E+01
     4
 # iter = 53000  time[fs]=53.00000
   C -0.543459247E+01  0.805853951E-01 -0.124573311E+00
   C  0.518495532E+01  0.100939961E+00  0.171760080E+00
   H -0.253827028E+02 -0.163730474E+01  0.227687275E+01
   H  0.246295507E+02 -0.100225777E+01 -0.200693238E+01
     4
 # iter = 53500  time[fs]=53.50000
   C -0.552449644E+01  0.823124472E-01 -0.126625871E+00
   C  0.527067654E+01  0.102638848E+00  0.175258557E+00
   H -0.257522009E+02 -0.166043701E+01  0.231083721E+01
   H  0.249848236E+02 -0.101674495E+01 -0.203580341E+01
     4
 # iter = 54000  time[fs]=54.00000
   C -0.561452254E+01  0.840399624E-01 -0.128682582E+00
   C  0.535651932E+01  0.104338554E+00  0.178761166E+00
   H -0.261218300E+02 -0.168357854E+01  0.234481514E+01
   H  0.253402342E+02 -0.103123826E+01 -0.206468769E+01
     4
 # iter = 54500  time[fs]=54.50000
   C -0.570466686E+01  0.857679332E-01 -0.130743323E+00
   C  0.544247979E+01  0.106039051E+00  0.182267786E+00
   H -0.264915865E+02 -0.170672907E+01  0.237880619E+01
   H  0.256957786E+02 -0.104573752E+01 -0.209358488E+01
     4
 # iter = 55000  time[fs]=55.00000
   C -0.579492568E+01  0.874963523E-01 -0.132807978E+00
   C  0.552855422E+01  0.107740314E+00  0.185778303E+00
   H -0.268614668E+02 -0.172988837E+01  0.241281001E+01
   H  0.260514534E+02 -0.106024259E+01 -0.212249462E+01
     4
 # iter = 55500  time[fs]=55.50000
   C -0.588529544E+01  0.892252125E-01 -0.134876436E+00
   C  0.561473907E+01  0.109442317E+00  0.189292607E+00
   H -0.272314677E+02 -0.175305620E+01  0.244682626E+01
   H  0.264072548E+02 -0.107475331E+01 -0.215141659E+01
     4
 # iter = 56000  time[fs]=56.00000
   C -0.597577273E+01  0.909545066E-01 -0.136948591E+00
   C  0.570103094E+01  0.111145038E+00  0.192810591E+00
   H -0.276015859E+02 -0.177623233E+01  0.248085463E+01
   H  0.267631798E+02 -0.108926954E+01 -0.218035048E+01
     4
 # iter = 56500  time[fs]=56.50000
   C -0.606635431E+01  0.926842274E-01 -0.139024340E+00
   C  0.578742661E+01  0.112848454E+00  0.196332155E+00
   H -0.279718184E+02 -0.179941656E+01  0.251489480E+01
   H  0.271192249E+02 -0.110379114E+01 -0.220929598E+01
     4
 # iter = 57000  time[fs]=57.00000
   C -0.615703707E+01  0.944143679E-01 -0.141103587E+00
   C  0.587392296E+01  0.114552544E+00  0.199857201E+00
   H -0.283421621E+02 -0.182260868E+01  0.254894647E+01
   H  0.274753872E+02 -0.111831797E+01 -0.223825282E+01
     4
 # iter = 57500  time[fs]=57.50000
   C -0.624781802E+01  0.961449212E-01 -0.143186236E+00
   C  0.596051704E+01  0.116257288E+00  0.203385634E+00
   H -0.287126144E+02 -0.184580848E+01  0.258300937E+01
   H  0.278316637E+02 -0.113284991E+01 -0.226722070E+01
     4
 # iter = 58000  time[fs]=58.00000
   C -0.633869433E+01  0.978758803E-01 -0.145272196E+00
   C  0.604720601E+01  0.117962665E+00  0.206917366E+00
   H -0.290831723E+02 -0.186901577E+01  0.261708321E+01
   H  0.281880515E+02 -0.114738684E+01 -0.229619937E+01
     4
 # iter = 58500  time[fs]=58.50000
   C -0.642966327E+01  0.996072386E-01 -0.147361382E+00
   C  0.613398714E+01  0.119668658E+00  0.210452310E+00
   H -0.294538333E+02 -0.189223038E+01  0.265116772E+01
   H  0.285445478E+02 -0.116192863E+01 -0.232518855E+01
     4
 # iter = 59000  time[fs]=59.00000
   C -0.652072220E+01  0.101338989E+00 -0.149453710E+00
   C  0.622085783E+01  0.121375248E+00  0.213990382E+00
   H -0.298245949E+02 -0.191545211E+01  0.268526267E+01
   H  0.289011501E+02 -0.117647517E+01 -0.235418800E+01
     4
 # iter = 59500  time[fs]=59.50000
   C -0.661186863E+01  0.103071126E+00 -0.151549098E+00
   C  0.630781558E+01  0.123082419E+00  0.217531503E+00
   H -0.301954546E+02 -0.193868081E+01  0.271936778E+01
   H  0.292578557E+02 -0.119102634E+01 -0.238319749E+01
     4
 # iter = 60000  time[fs]=60.00000
   C -0.670310015E+01  0.104803642E+00 -0.153647469E+00
   C  0.639485798E+01  0.124790155E+00  0.221075595E+00
   H -0.305664100E+02 -0.196191631E+01  0.275348284E+01
   H  0.296146621E+02 -0.120558205E+01 -0.241221676E+01
     4
 # iter = 60500  time[fs]=60.50000
   C -0.679441443E+01  0.106536532E+00 -0.155748749E+00
   C  0.648198273E+01  0.126498439E+00  0.224622585E+00
   H -0.309374589E+02 -0.198515844E+01  0.278760760E+01
   H  0.299715671E+02 -0.122014218E+01 -0.244124561E+01
     4
 # iter = 61000  time[fs]=61.00000
   C -0.688580926E+01  0.108269788E+00 -0.157852866E+00
   C  0.656918762E+01  0.128207257E+00  0.228172400E+00
   H -0.313085990E+02 -0.200840705E+01  0.282174185E+01
   H  0.303285683E+02 -0.123470664E+01 -0.247028381E+01
     4
 # iter = 61500  time[fs]=61.50000
   C -0.697728250E+01  0.110003405E+00 -0.159959750E+00
   C  0.665647052E+01  0.129916594E+00  0.231724972E+00
   H -0.316798283E+02 -0.203166200E+01  0.285588537E+01
   H  0.306856634E+02 -0.124927533E+01 -0.249933116E+01
     4
 # iter = 62000  time[fs]=62.00000
   C -0.706883210E+01  0.111737377E+00 -0.162069335E+00
   C  0.674382938E+01  0.131626437E+00  0.235280234E+00
   H -0.320511447E+02 -0.205492313E+01  0.289003795E+01
   H  0.310428504E+02 -0.126384816E+01 -0.252838744E+01
     4
 # iter = 62500  time[fs]=62.50000
   C -0.716045608E+01  0.113471698E+00 -0.164181555E+00
   C  0.683126223E+01  0.133336772E+00  0.238838122E+00
   H -0.324225462E+02 -0.207819032E+01  0.292419940E+01
   H  0.314001272E+02 -0.127842503E+01 -0.255745247E+01
     4
 # iter = 63000  time[fs]=63.00000
   C -0.725215253E+01  0.115206363E+00 -0.166296349E+00
   C  0.691876717E+01  0.135047587E+00  0.242398573E+00
   H -0.327940310E+02 -0.210146343E+01  0.295836952E+01
   H  0.317574917E+02 -0.129300586E+01 -0.258652606E+01
     4
 # iter = 63500  time[fs]=63.50000
   C -0.734391963E+01  0.116941364E+00 -0.168413657E+00
   C  0.700634239E+01  0.136758870E+00  0.245961530E+00
   H -0.331655971E+02 -0.212474232E+01  0.299254812E+01
   H  0.321149421E+02 -0.130759056E+01 -0.261560801E+01
     4
 # iter = 64000  time[fs]=64.00000
   C -0.743575561E+01  0.118676698E+00 -0.170533419E+00
   C  0.709398613E+01  0.138470608E+00  0.249526932E+00
   H -0.335372428E+02 -0.214802688E+01  0.302673502E+01
   H  0.324724764E+02 -0.132217906E+01 -0.264469816E+01
     4
 # iter = 64500  time[fs]=64.50000
   C -0.752765877E+01  0.120412359E+00 -0.172655581E+00
   C  0.718169669E+01  0.140182791E+00  0.253094725E+00
   H -0.339089664E+02 -0.217131698E+01  0.306093004E+01
   H  0.328300929E+02 -0.133677126E+01 -0.267379633E+01
     4
 # iter = 65000  time[fs]=65.00000
   C -0.761962747E+01  0.122148341E+00 -0.174780088E+00
   C  0.726947243E+01  0.141895408E+00  0.256664855E+00
   H -0.342807661E+02 -0.219461250E+01  0.309513302E+01
   H  0.331877898E+02 -0.135136710E+01 -0.270290235E+01
     4
 # iter = 65500  time[fs]=65.50000
   C -0.771166012E+01  0.123884639E+00 -0.176906887E+00
   C  0.735731179E+01  0.143608447E+00  0.260237268E+00
   H -0.346526404E+02 -0.221791333E+01  0.312934379E+01
   H  0.335455654E+02 -0.136596651E+01 -0.273201607E+01
     4
 # iter = 66000  time[fs]=66.00000
   C -0.780375521E+01  0.125621248E+00 -0.179035928E+00
   C  0.744521324E+01  0.145321899E+00  0.263811916E+00
   H -0.350245877E+02 -0.224121936E+01  0.316356219E+01
   H  0.339034180E+02 -0.138056939E+01 -0.276113732E+01
     4
 # iter = 66500  time[fs]=66.50000
   C -0.789591125E+01  0.127358163E+00 -0.181167162E+00
   C  0.753317532E+01  0.147035755E+00  0.267388749E+00
   H -0.353966064E+02 -0.226453048E+01  0.319778806E+01
   H  0.342613461E+02 -0.139517570E+01 -0.279026595E+01
     4
 # iter = 67000  time[fs]=67.00000
   C -0.798812683E+01  0.129095378E+00 -0.183300541E+00
   C  0.762119661E+01  0.148750004E+00  0.270967719E+00
   H -0.357686952E+02 -0.228784658E+01  0.323202125E+01
   H  0.346193481E+02 -0.140978535E+01 -0.281940182E+01
     4
 # iter = 67500  time[fs]=67.50000
   C -0.808040057E+01  0.130832891E+00 -0.185436018E+00
   C  0.770927573E+01  0.150464638E+00  0.274548782E+00
   H -0.361408525E+02 -0.231116758E+01  0.326626163E+01
   H  0.349774225E+02 -0.142439829E+01 -0.284854478E+01
     4
 # iter = 68000  time[fs]=68.00000
   C -0.817273114E+01  0.132570694E+00 -0.187573551E+00
   C  0.779741137E+01  0.152179647E+00  0.278131892E+00
   H -0.365130771E+02 -0.233449337E+01  0.330050904E+01
   H  0.353355679E+02 -0.143901445E+01 -0.287769470E+01
     4
 # iter = 68500  time[fs]=68.50000
   C -0.826511726E+01  0.134308785E+00 -0.189713094E+00
   C  0.788560225E+01  0.153895024E+00  0.281717006E+00
   H -0.368853674E+02 -0.235782385E+01  0.333476335E+01
   H  0.356937828E+02 -0.145363377E+01 -0.290685144E+01
     4
 # iter = 69000  time[fs]=69.00000
   C -0.835755768E+01  0.136047158E+00 -0.191854607E+00
   C  0.797384714E+01  0.155610761E+00  0.285304083E+00
   H -0.372577223E+02 -0.238115894E+01  0.336902443E+01
   H  0.360520659E+02 -0.146825618E+01 -0.293601486E+01
     4
 # iter = 69500  time[fs]=69.50000
   C -0.845005121E+01  0.137785809E+00 -0.193998048E+00
   C  0.806214482E+01  0.157326849E+00  0.288893083E+00
   H -0.376301405E+02 -0.240449854E+01  0.340329214E+01
   H  0.364104158E+02 -0.148288163E+01 -0.296518484E+01
     4
 # iter = 70000  time[fs]=70.00000
   C -0.854259667E+01  0.139524734E+00 -0.196143379E+00
   C  0.815049416E+01  0.159043280E+00  0.292483966E+00
   H -0.380026207E+02 -0.242784256E+01  0.343756636E+01
   H  0.367688313E+02 -0.149751005E+01 -0.299436126E+01
     4
 # iter = 70500  time[fs]=70.50000
   C -0.863519295E+01  0.141263929E+00 -0.198290561E+00
   C  0.823889402E+01  0.160760048E+00  0.296076694E+00
   H -0.383751618E+02 -0.245119094E+01  0.347184697E+01
   H  0.371273111E+02 -0.151214141E+01 -0.302354400E+01
     4
 # iter = 71000  time[fs]=71.00000
   C -0.872783895E+01  0.143003388E+00 -0.200439557E+00
   C  0.832734332E+01  0.162477144E+00  0.299671231E+00
   H -0.387477625E+02 -0.247454357E+01  0.350613385E+01
   H  0.374858540E+02 -0.152677563E+01 -0.305273294E+01
     4
 # iter = 71500  time[fs]=71.50000
   C -0.882053362E+01  0.144743109E+00 -0.202590332E+00
   C  0.841584101E+01  0.164194563E+00  0.303267540E+00
   H -0.391204219E+02 -0.249790039E+01  0.354042689E+01
   H  0.378444588E+02 -0.154141268E+01 -0.308192796E+01
     4
 # iter = 72000  time[fs]=72.00000
   C -0.891327594E+01  0.146483087E+00 -0.204742849E+00
   C  0.850438608E+01  0.165912297E+00  0.306865587E+00
   H -0.394931386E+02 -0.252126131E+01  0.357472596E+01
   H  0.382031243E+02 -0.155605249E+01 -0.311112896E+01
     4
 # iter = 72500  time[fs]=72.50000
   C -0.900606491E+01  0.148223319E+00 -0.206897076E+00
   C  0.859297752E+01  0.167630341E+00  0.310465338E+00
   H -0.398659118E+02 -0.254462626E+01  0.360903097E+01
   H  0.385618494E+02 -0.157069502E+01 -0.314033583E+01
     4
 # iter = 73000  time[fs]=73.00000
   C -0.909889957E+01  0.149963800E+00 -0.209052980E+00
   C  0.868161439E+01  0.169348687E+00  0.314066760E+00
   H -0.402387404E+02 -0.256799517E+01  0.364334180E+01
   H  0.389206331E+02 -0.158534021E+01 -0.316954846E+01
     4
 # iter = 73500  time[fs]=73.50000
   C -0.919177898E+01  0.151704527E+00 -0.211210527E+00
   C  0.877029576E+01  0.171067329E+00  0.317669822E+00
   H -0.406116233E+02 -0.259136796E+01  0.367765835E+01
   H  0.392794743E+02 -0.159998803E+01 -0.319876675E+01
     4
 # iter = 74000  time[fs]=74.00000
   C -0.928470225E+01  0.153445496E+00 -0.213369688E+00
   C  0.885902073E+01  0.172786262E+00  0.321274492E+00
   H -0.409845596E+02 -0.261474457E+01  0.371198053E+01
   H  0.396383719E+02 -0.161463843E+01 -0.322799061E+01
     4
 # iter = 74500  time[fs]=74.50000
   C -0.937766849E+01  0.155186703E+00 -0.215530432E+00
   C  0.894778842E+01  0.174505480E+00  0.324880741E+00
   H -0.413575483E+02 -0.263812493E+01  0.374630822E+01
   H  0.399973250E+02 -0.162929136E+01 -0.325721993E+01
     4
 # iter = 75000  time[fs]=75.00000
   C -0.947067685E+01  0.156928146E+00 -0.217692730E+00
   C  0.903659798E+01  0.176224977E+00  0.328488538E+00
   H -0.417305885E+02 -0.266150897E+01  0.378064135E+01
   H  0.403563325E+02 -0.164394677E+01 -0.328645462E+01
     4
 # iter = 75500  time[fs]=75.50000
   C -0.956372651E+01  0.158669820E+00 -0.219856552E+00
   C  0.912544859E+01  0.177944748E+00  0.332097856E+00
   H -0.421036793E+02 -0.268489664E+01  0.381497980E+01
   H  0.407153936E+02 -0.165860463E+01 -0.331569459E+01
     4
 # iter = 76000  time[fs]=76.00000
   C -0.965681665E+01  0.160411722E+00 -0.222021872E+00
   C  0.921433945E+01  0.179664788E+00  0.335708666E+00
   H -0.424768198E+02 -0.270828786E+01  0.384932350E+01
   H  0.410745072E+02 -0.167326490E+01 -0.334493976E+01
     4
 # iter = 76500  time[fs]=76.50000
   C -0.974994650E+01  0.162153849E+00 -0.224188662E+00
   C  0.930326978E+01  0.181385091E+00  0.339320943E+00
   H -0.428500092E+02 -0.273168257E+01  0.388367235E+01
   H  0.414336726E+02 -0.168792753E+01 -0.337419002E+01
     4
 # iter = 77000  time[fs]=77.00000
   C -0.984311530E+01  0.163896198E+00 -0.226356895E+00
   C  0.939223883E+01  0.183105652E+00  0.342934659E+00
   H -0.432232466E+02 -0.275508072E+01  0.391802628E+01
   H  0.417928887E+02 -0.170259248E+01 -0.340344531E+01
     4
 # iter = 77500  time[fs]=77.50000
   C -0.993632231E+01  0.165638765E+00 -0.228526546E+00
   C  0.948124585E+01  0.184826468E+00  0.346549789E+00
   H -0.435965311E+02 -0.277848226E+01  0.395238518E+01
   H  0.421521547E+02 -0.171725972E+01 -0.343270553E+01
     4
 # iter = 78000  time[fs]=78.00000
   C -0.100295668E+02  0.167381548E+00 -0.230697590E+00
   C  0.957029015E+01  0.186547532E+00  0.350166308E+00
   H -0.439698621E+02 -0.280188711E+01  0.398674899E+01
   H  0.425114699E+02 -0.173192921E+01 -0.346197060E+01
     4
 # iter = 78500  time[fs]=78.50000
   C -0.101228481E+02  0.169124543E+00 -0.232870003E+00
   C  0.965937101E+01  0.188268841E+00  0.353784191E+00
   H -0.443432387E+02 -0.282529524E+01  0.402111761E+01
   H  0.428708334E+02 -0.174660092E+01 -0.349124045E+01
     4
 # iter = 79000  time[fs]=79.00000
   C -0.102161655E+02  0.170867747E+00 -0.235043761E+00
   C  0.974848778E+01  0.189990389E+00  0.357403416E+00
   H -0.447166602E+02 -0.284870658E+01  0.405549099E+01
   H  0.432302443E+02 -0.176127480E+01 -0.352051500E+01
     4
 # iter = 79500  time[fs]=79.50000
   C -0.103095184E+02  0.172611158E+00 -0.237218840E+00
   C  0.983763978E+01  0.191712174E+00  0.361023959E+00
   H -0.450901259E+02 -0.287212108E+01  0.408986902E+01
   H  0.435897020E+02 -0.177595082E+01 -0.354979418E+01
     4
 # iter = 80000  time[fs]=80.00000
   C -0.104029061E+02  0.174354772E+00 -0.239395219E+00
   C  0.992682639E+01  0.193434190E+00  0.364645798E+00
   H -0.454636349E+02 -0.289553869E+01  0.412425166E+01
   H  0.439492057E+02 -0.179062895E+01 -0.357907790E+01
