     4
 # iter = 25000  time[fs]=25.00000
   C -0.104035545E+01 -0.376980038E-01  0.188639370E-01
   C  0.102485057E+01  0.386963142E-02 -0.217186139E-01
   H -0.529830537E+01  0.732866734E+00  0.126487616E+00
   H  0.536787868E+01 -0.661564855E+00  0.473079375E+00
     4
 # iter = 25500  time[fs]=25.50000
   C -0.109226814E+01 -0.413280220E-01  0.191285673E-01
   C  0.107184392E+01  0.616509017E-02 -0.237397149E-01
   H -0.563295517E+01  0.779851898E+00  0.133568419E+00
   H  0.568798086E+01 -0.703829068E+00  0.502875413E+00
     4
 # iter = 26000  time[fs]=26.00000
   C -0.114757375E+01 -0.450520680E-01  0.194540520E-01
   C  0.112223618E+01  0.854899952E-02 -0.258456239E-01
   H -0.597022838E+01  0.827248865E+00  0.140698750E+00
   H  0.601063456E+01 -0.746438158E+00  0.532909365E+00
     4
 # iter = 26500  time[fs]=26.50000
   C -0.120596588E+01 -0.488663627E-01  0.198354390E-01
   C  0.117571942E+01  0.110184076E-01 -0.280288352E-01
   H -0.630983379E+01  0.875011783E+00  0.147872949E+00
   H  0.633556680E+01 -0.789356200E+00  0.563156249E+00
     4
 # iter = 27000  time[fs]=27.00000
   C -0.126716266E+01 -0.527667155E-01  0.202680627E-01
   C  0.123201064E+01  0.135697898E-01 -0.302825205E-01
   H -0.665152549E+01  0.923102114E+00  0.155086265E+00
   H  0.666254554E+01 -0.832552648E+00  0.593594865E+00
     4
 # iter = 27500  time[fs]=27.50000
   C -0.133090728E+01 -0.567487077E-01  0.207475868E-01
   C  0.129085212E+01  0.161992699E-01 -0.326004963E-01
   H -0.699509397E+01  0.971487153E+00  0.162334676E+00
   H  0.699137194E+01 -0.876001305E+00  0.624207065E+00
     4
 # iter = 28000  time[fs]=28.00000
   C -0.139696729E+01 -0.608078413E-01  0.212700212E-01
   C  0.135201073E+01  0.189027970E-01 -0.349771808E-01
   H -0.734035935E+01  0.102013890E+01  0.169614745E+00
   H  0.732187439E+01 -0.919679536E+00  0.654977190E+00
     4
 # iter = 28500  time[fs]=28.50000
   C -0.146513335E+01 -0.649396517E-01  0.218317206E-01
   C  0.141527659E+01  0.216762784E-01 -0.374075479E-01
   H -0.768716612E+01  0.106903319E+01  0.176923513E+00
   H  0.765390381E+01 -0.963567644E+00  0.685891626E+00
     4
 # iter = 29000  time[fs]=29.00000
   C -0.153521745E+01 -0.691397897E-01  0.224293713E-01
   C  0.148046127E+01  0.245156773E-01 -0.398870779E-01
   H -0.803537895E+01  0.111814904E+01  0.184258415E+00
   H  0.798732989E+01 -0.100764838E+01  0.716938466E+00
     4
 # iter = 29500  time[fs]=29.50000
   C -0.160705109E+01 -0.734040765E-01  0.230599719E-01
   C  0.154739595E+01  0.274170795E-01 -0.424117095E-01
   H -0.838487937E+01  0.116746807E+01  0.191617214E+00
   H  0.832203814E+01 -0.105190656E+01  0.748107231E+00
     4
 # iter = 30000  time[fs]=30.00000
   C -0.168048336E+01 -0.777285392E-01  0.237208093E-01
   C  0.161592944E+01  0.303767372E-01 -0.449777932E-01
   H -0.873556313E+01  0.121697413E+01  0.198997946E+00
   H  0.865792741E+01 -0.109632873E+01  0.779388647E+00
     4
 # iter = 30500  time[fs]=30.50000
   C -0.175537914E+01 -0.821094291E-01  0.244094341E-01
   C  0.168592644E+01  0.333910956E-01 -0.475820483E-01
   H -0.908733799E+01  0.126665294E+01  0.206398877E+00
   H  0.899490791E+01 -0.114090292E+01  0.810774471E+00
     4
 # iter = 31000  time[fs]=31.00000
   C -0.183161738E+01 -0.865432300E-01  0.251236362E-01
   C  0.175726573E+01  0.364568057E-01 -0.502215229E-01
   H -0.944012199E+01  0.131649179E+01  0.213818472E+00
   H  0.933289963E+01 -0.118561844E+01  0.842257338E+00
     4
 # iter = 31500  time[fs]=31.50000
   C -0.190908955E+01 -0.910266578E-01  0.258614211E-01
   C  0.182983865E+01  0.395707288E-01 -0.528935580E-01
   H -0.979384198E+01  0.136647934E+01  0.221255361E+00
   H  0.967183095E+01 -0.123046570E+01  0.873830642E+00
     4
 # iter = 32000  time[fs]=32.00000
   C -0.198769821E+01 -0.955566546E-01  0.266209879E-01
   C  0.190354765E+01  0.427299339E-01 -0.555957548E-01
   H -0.101484324E+02  0.141660543E+01  0.228708321E+00
   H  0.100116375E+02 -0.127543605E+01  0.905488435E+00
     4
 # iter = 32500  time[fs]=32.50000
   C -0.206735575E+01 -0.100130379E+00  0.274007089E-01
   C  0.197830506E+01  0.459316915E-01 -0.583259460E-01
   H -0.105038343E+02  0.146686089E+01  0.236176252E+00
   H  0.103522612E+02 -0.132052168E+01  0.937225338E+00
     4
 # iter = 33000  time[fs]=33.00000
   C -0.214798328E+01 -0.104745196E+00  0.281991115E-01
   C  0.205403191E+01  0.491734644E-01 -0.610821700E-01
   H -0.108599944E+02  0.151723746E+01  0.243658164E+00
   H  0.106936497E+02 -0.136571548E+01  0.969036476E+00
     4
 # iter = 33500  time[fs]=33.50000
   C -0.222950961E+01 -0.109398662E+00  0.290148614E-01
   C  0.213065699E+01  0.524528967E-01 -0.638626484E-01
   H -0.112168646E+02  0.156772765E+01  0.251153159E+00
   H  0.110357552E+02 -0.141101102E+01  0.100091741E+01
     4
 # iter = 34000  time[fs]=34.00000
   C -0.231187041E+01 -0.114088514E+00  0.298467482E-01
   C  0.220811592E+01  0.557678026E-01 -0.666657653E-01
   H -0.115744011E+02  0.161832462E+01  0.258660424E+00
   H  0.113785344E+02 -0.145640241E+01  0.103286410E+01
     4
 # iter = 34500  time[fs]=34.50000
   C -0.239500742E+01 -0.118812655E+00  0.306936715E-01
   C  0.228635041E+01  0.591161548E-01 -0.694900502E-01
   H -0.119325639E+02  0.166902216E+01  0.266179221E+00
   H  0.117219477E+02 -0.150188425E+01  0.106487284E+01
     4
 # iter = 35000  time[fs]=35.00000
   C -0.247886777E+01 -0.123569143E+00  0.315546300E-01
   C  0.236530758E+01  0.624960727E-01 -0.723341624E-01
   H -0.122913166E+02  0.171981459E+01  0.273708872E+00
   H  0.120659589E+02 -0.154745160E+01  0.109694022E+01
     4
 # iter = 35500  time[fs]=35.50000
   C -0.256340340E+01 -0.128356178E+00  0.324287106E-01
   C  0.244493935E+01  0.659058116E-01 -0.751968768E-01
   H -0.126506259E+02  0.177069669E+01  0.281248761E+00
   H  0.124105347E+02 -0.159309991E+01  0.112906313E+01
     4
 # iter = 36000  time[fs]=36.00000
   C -0.264857053E+01 -0.133172088E+00  0.333150792E-01
   C  0.252520194E+01  0.693437521E-01 -0.780770721E-01
   H -0.130104611E+02  0.182166365E+01  0.288798319E+00
   H  0.127556446E+02 -0.163882499E+01  0.116123868E+01
     4
 # iter = 36500  time[fs]=36.50000
   C -0.273432918E+01 -0.138015326E+00  0.342129728E-01
   C  0.260605538E+01  0.728083899E-01 -0.809737200E-01
   H -0.133707940E+02  0.187271106E+01  0.296357027E+00
   H  0.131012604E+02 -0.168462296E+01  0.119346422E+01
     4
 # iter = 37000  time[fs]=37.00000
   C -0.282064284E+01 -0.142884451E+00  0.351216919E-01
   C  0.268746313E+01  0.762983272E-01 -0.838858758E-01
   H -0.137315986E+02  0.192383483E+01  0.303924402E+00
   H  0.134473561E+02 -0.173049025E+01  0.122573728E+01
     4
 # iter = 37500  time[fs]=37.50000
   C -0.290747801E+01 -0.147778126E+00  0.360405947E-01
   C  0.276939171E+01  0.798122633E-01 -0.868126702E-01
   H -0.140928508E+02  0.197503120E+01  0.311500002E+00
   H  0.137939076E+02 -0.177642351E+01  0.125805557E+01
     4
 # iter = 38000  time[fs]=38.00000
   C -0.299480397E+01 -0.152695106E+00  0.369690906E-01
   C  0.285181042E+01  0.833489877E-01 -0.897533014E-01
   H -0.144545285E+02  0.202629665E+01  0.319083415E+00
   H  0.141408926E+02 -0.182241966E+01  0.129041697E+01
     4
 # iter = 38500  time[fs]=38.50000
   C -0.308259248E+01 -0.157634231E+00  0.379066358E-01
   C  0.293469100E+01  0.869073721E-01 -0.927070292E-01
   H -0.148166109E+02  0.207762793E+01  0.326674260E+00
   H  0.144882904E+02 -0.186847581E+01  0.132281951E+01
     4
 # iter = 39000  time[fs]=39.00000
   C -0.317081750E+01 -0.162594420E+00  0.388527285E-01
   C  0.301800744E+01  0.904863642E-01 -0.956731687E-01
   H -0.151790789E+02  0.212902201E+01  0.334272185E+00
   H  0.148360817E+02 -0.191458929E+01  0.135526134E+01
     4
 # iter = 39500  time[fs]=39.50000
   C -0.325945504E+01 -0.167574665E+00  0.398069052E-01
   C  0.310173574E+01  0.940849812E-01 -0.986510854E-01
   H -0.155419146E+02  0.218047607E+01  0.341876858E+00
   H  0.151842485E+02 -0.196075758E+01  0.138774073E+01
     4
 # iter = 40000  time[fs]=40.00000
   C -0.334848291E+01 -0.172574022E+00  0.407687368E-01
   C  0.318585373E+01  0.977023049E-01 -0.101640190E+00
   H -0.159051013E+02  0.223198747E+01  0.349487974E+00
   H  0.155327739E+02 -0.200697834E+01  0.142025609E+01
     4
 # iter = 40500  time[fs]=40.50000
   C -0.343788057E+01 -0.177591611E+00  0.417378254E-01
   C  0.327034089E+01  0.101337476E+00 -0.104639936E+00
   H -0.162686235E+02  0.228355374E+01  0.357105246E+00
   H  0.158816425E+02 -0.205324937E+01  0.145280590E+01
     4
 # iter = 41000  time[fs]=41.00000
   C -0.352762898E+01 -0.182626606E+00  0.427138020E-01
   C  0.335517817E+01  0.104989690E+00 -0.107649813E+00
   H -0.166324666E+02  0.233517257E+01  0.364728406E+00
   H  0.162308393E+02 -0.209956859E+01  0.148538874E+01
     4
 # iter = 41500  time[fs]=41.50000
   C -0.361771046E+01 -0.187678233E+00  0.436963234E-01
   C  0.344034792E+01  0.108658192E+00 -0.110669347E+00
   H -0.169966170E+02  0.238684181E+01  0.372357203E+00
   H  0.165803507E+02 -0.214593409E+01  0.151800328E+01
     4
 # iter = 42000  time[fs]=42.00000
   C -0.370810858E+01 -0.192745767E+00  0.446850702E-01
   C  0.352583372E+01  0.112342275E+00 -0.113698094E+00
   H -0.173610618E+02  0.243855940E+01  0.379991401E+00
   H  0.169301638E+02 -0.219234403E+01  0.155064828E+01
     4
 # iter = 42500  time[fs]=42.50000
   C -0.379880804E+01 -0.197828527E+00  0.456797445E-01
   C  0.361162026E+01  0.116041273E+00 -0.116735640E+00
   H -0.177257892E+02  0.249032344E+01  0.387630781E+00
   H  0.172802663E+02 -0.223879669E+01  0.158332255E+01
     4
 # iter = 43000  time[fs]=43.00000
   C -0.388979455E+01 -0.202925872E+00  0.466800685E-01
   C  0.369769330E+01  0.119754561E+00 -0.119781597E+00
   H -0.180907877E+02  0.254213212E+01  0.395275133E+00
   H  0.176306469E+02 -0.228529046E+01  0.161602498E+01
     4
 # iter = 43500  time[fs]=43.50000
   C -0.398105480E+01 -0.208037199E+00  0.476857825E-01
   C  0.378403951E+01  0.123481551E+00 -0.122835601E+00
   H -0.184560468E+02  0.259398375E+01  0.402924263E+00
   H  0.179812947E+02 -0.233182380E+01  0.164875452E+01
     4
 # iter = 44000  time[fs]=44.00000
   C -0.407257633E+01 -0.213161941E+00  0.486966434E-01
   C  0.387064645E+01  0.127221688E+00 -0.125897312E+00
   H -0.188215564E+02  0.264587672E+01  0.410577987E+00
   H  0.183321997E+02 -0.237839527E+01  0.168151019E+01
     4
 # iter = 44500  time[fs]=44.50000
   C -0.416434748E+01 -0.218299562E+00  0.497124236E-01
   C  0.395750247E+01  0.130974450E+00 -0.128966409E+00
   H -0.191873071E+02  0.269780951E+01  0.418236130E+00
   H  0.186833521E+02 -0.242500351E+01  0.171429105E+01
     4
 # iter = 45000  time[fs]=45.00000
   C -0.425635732E+01 -0.223449558E+00  0.507329097E-01
   C  0.404459666E+01  0.134739342E+00 -0.132042592E+00
   H -0.195532899E+02  0.274978070E+01  0.425898528E+00
   H  0.190347430E+02 -0.247164722E+01  0.174709620E+01
     4
 # iter = 45500  time[fs]=45.50000
   C -0.434859559E+01 -0.228611452E+00  0.517579010E-01
   C  0.413191877E+01  0.138515899E+00 -0.135125576E+00
   H -0.199194964E+02  0.280178892E+01  0.433565026E+00
   H  0.193863637E+02 -0.251832516E+01  0.177992481E+01
     4
 # iter = 46000  time[fs]=46.00000
   C -0.444105267E+01 -0.233784792E+00  0.527872092E-01
   C  0.421945918E+01  0.142303680E+00 -0.138215094E+00
   H -0.202859185E+02  0.285383289E+01  0.441235478E+00
   H  0.197382060E+02 -0.256503619E+01  0.181277607E+01
     4
 # iter = 46500  time[fs]=46.50000
   C -0.453371949E+01 -0.238969153E+00  0.538206569E-01
   C  0.430720885E+01  0.146102268E+00 -0.141310895E+00
   H -0.206525487E+02  0.290591139E+01  0.448909743E+00
   H  0.200902624E+02 -0.261177918E+01  0.184564923E+01
     4
 # iter = 47000  time[fs]=47.00000
   C -0.462658754E+01 -0.244164129E+00  0.548580771E-01
   C  0.439515925E+01  0.149911268E+00 -0.144412739E+00
   H -0.210193798E+02  0.295802326E+01  0.456587690E+00
   H  0.204425254E+02 -0.265855309E+01  0.187854356E+01
     4
 # iter = 47500  time[fs]=47.50000
   C -0.471964876E+01 -0.249369339E+00  0.558993122E-01
   C  0.448330237E+01  0.153730305E+00 -0.147520403E+00
   H -0.213864050E+02  0.301016739E+01  0.464269194E+00
   H  0.207949881E+02 -0.270535692E+01  0.191145839E+01
     4
 # iter = 48000  time[fs]=48.00000
   C -0.481289558E+01 -0.254584418E+00  0.569442137E-01
   C  0.457163062E+01  0.157559024E+00 -0.150633672E+00
   H -0.217536178E+02  0.306234275E+01  0.471954136E+00
   H  0.211476440E+02 -0.275218971E+01  0.194439305E+01
     4
 # iter = 48500  time[fs]=48.50000
   C -0.490632085E+01 -0.259809023E+00  0.579926409E-01
   C  0.466013688E+01  0.161397087E+00 -0.153752345E+00
   H -0.221210119E+02  0.311454833E+01  0.479642401E+00
   H  0.215004866E+02 -0.279905056E+01  0.197734693E+01
     4
 # iter = 49000  time[fs]=49.00000
   C -0.499991779E+01 -0.265042825E+00  0.590444611E-01
   C  0.474881436E+01  0.165244175E+00 -0.156876231E+00
   H -0.224885817E+02  0.316678318E+01  0.487333883E+00
   H  0.218535100E+02 -0.284593860E+01  0.201031943E+01
     4
 # iter = 49500  time[fs]=49.50000
   C -0.509368001E+01 -0.270285514E+00  0.600995487E-01
   C  0.483765670E+01  0.169099983E+00 -0.160005148E+00
   H -0.228563213E+02  0.321904639E+01  0.495028480E+00
   H  0.222067086E+02 -0.289285300E+01  0.204330998E+01
     4
 # iter = 50000  time[fs]=50.00000
   C -0.518760144E+01 -0.275536792E+00  0.611577844E-01
   C  0.492665783E+01  0.172964220E+00 -0.163138925E+00
   H -0.232242256E+02  0.327133711E+01  0.502726092E+00
   H  0.225600768E+02 -0.293979299E+01  0.207631805E+01
     4
 # iter = 50500  time[fs]=50.50000
   C -0.528167635E+01 -0.280796379E+00  0.622190555E-01
   C  0.501581201E+01  0.176836610E+00 -0.166277396E+00
   H -0.235922895E+02  0.332365450E+01  0.510426627E+00
   H  0.229136095E+02 -0.298675779E+01  0.210934311E+01
     4
 # iter = 51000  time[fs]=51.00000
   C -0.537589928E+01 -0.286064004E+00  0.632832547E-01
   C  0.510511383E+01  0.180716891E+00 -0.169420408E+00
   H -0.239605080E+02  0.337599778E+01  0.518129997E+00
   H  0.232673017E+02 -0.303374669E+01  0.214238468E+01
     4
 # iter = 51500  time[fs]=51.50000
   C -0.547026507E+01 -0.291339413E+00  0.643502804E-01
   C  0.519455810E+01  0.184604811E+00 -0.172567810E+00
   H -0.243288765E+02  0.342836620E+01  0.525836115E+00
   H  0.236211487E+02 -0.308075901E+01  0.217544227E+01
     4
 # iter = 52000  time[fs]=52.00000
   C -0.556476879E+01 -0.296622359E+00  0.654200358E-01
   C  0.528413992E+01  0.188500130E+00 -0.175719463E+00
   H -0.246973907E+02  0.348075902E+01  0.533544901E+00
   H  0.239751459E+02 -0.312779407E+01  0.220851544E+01
     4
 # iter = 52500  time[fs]=52.50000
   C -0.565940578E+01 -0.301912611E+00  0.664924291E-01
   C  0.537385464E+01  0.192402621E+00 -0.178875230E+00
   H -0.250660463E+02  0.353317556E+01  0.541256277E+00
   H  0.243292890E+02 -0.317485125E+01  0.224160376E+01
     4
 # iter = 53000  time[fs]=53.00000
   C -0.575417160E+01 -0.307209945E+00  0.675673725E-01
   C  0.546369781E+01  0.196312065E+00 -0.182034985E+00
   H -0.254348391E+02  0.358561516E+01  0.548970168E+00
   H  0.246835739E+02 -0.322192993E+01  0.227470679E+01
     4
 # iter = 53500  time[fs]=53.50000
   C -0.584906201E+01 -0.312514147E+00  0.686447829E-01
   C  0.555366521E+01  0.200228253E+00 -0.185198605E+00
   H -0.258037654E+02  0.363807718E+01  0.556686504E+00
   H  0.250379966E+02 -0.326902954E+01  0.230782416E+01
     4
 # iter = 54000  time[fs]=54.00000
   C -0.594407297E+01 -0.317825014E+00  0.697245808E-01
   C  0.564375281E+01  0.204150986E+00 -0.188365972E+00
   H -0.261728214E+02  0.369056101E+01  0.564405216E+00
   H  0.253925532E+02 -0.331614952E+01  0.234095547E+01
     4
 # iter = 54500  time[fs]=54.50000
   C -0.603920066E+01 -0.323142351E+00  0.708066902E-01
   C  0.573395679E+01  0.208080071E+00 -0.191536974E+00
   H -0.265420036E+02  0.374306608E+01  0.572126238E+00
   H  0.257472401E+02 -0.336328933E+01  0.237410035E+01
     4
 # iter = 55000  time[fs]=55.00000
   C -0.613444138E+01 -0.328465971E+00  0.718910390E-01
   C  0.582427347E+01  0.212015326E+00 -0.194711504E+00
   H -0.269113084E+02  0.379559181E+01  0.579849508E+00
   H  0.261020538E+02 -0.341044845E+01  0.240725845E+01
     4
 # iter = 55500  time[fs]=55.50000
   C -0.622979166E+01 -0.333795694E+00  0.729775580E-01
   C  0.591469936E+01  0.215956576E+00 -0.197889461E+00
   H -0.272807327E+02  0.384813766E+01  0.587574966E+00
   H  0.264569909E+02 -0.345762639E+01  0.244042944E+01
     4
 # iter = 56000  time[fs]=56.00000
   C -0.632524812E+01 -0.339131350E+00  0.740661812E-01
   C  0.600523112E+01  0.219903652E+00 -0.201070745E+00
   H -0.276502733E+02  0.390070313E+01  0.595302553E+00
   H  0.268120481E+02 -0.350482266E+01  0.247361297E+01
     4
 # iter = 56500  time[fs]=56.50000
   C -0.642080759E+01 -0.344472773E+00  0.751568454E-01
   C  0.609586556E+01  0.223856394E+00 -0.204255263E+00
   H -0.280199270E+02  0.395328771E+01  0.603032214E+00
   H  0.271672224E+02 -0.355203682E+01  0.250680875E+01
     4
 # iter = 57000  time[fs]=57.00000
   C -0.651646698E+01 -0.349819806E+00  0.762494903E-01
   C  0.618659962E+01  0.227814645E+00 -0.207442925E+00
   H -0.283896911E+02  0.400589092E+01  0.610763895E+00
   H  0.275225108E+02 -0.359926842E+01  0.254001647E+01
     4
 # iter = 57500  time[fs]=57.50000
   C -0.661222339E+01 -0.355172296E+00  0.773440580E-01
   C  0.627743039E+01  0.231778258E+00 -0.210633644E+00
   H -0.287595627E+02  0.405851229E+01  0.618497545E+00
   H  0.278779103E+02 -0.364651702E+01  0.257323582E+01
     4
 # iter = 58000  time[fs]=58.00000
   C -0.670807399E+01 -0.360530099E+00  0.784404931E-01
   C  0.636835505E+01  0.235747089E+00 -0.213827338E+00
   H -0.291295390E+02  0.411115140E+01  0.626233115E+00
   H  0.282334183E+02 -0.369378223E+01  0.260646655E+01
     4
 # iter = 58500  time[fs]=58.50000
   C -0.680401611E+01 -0.365893073E+00  0.795387425E-01
   C  0.645937093E+01  0.239721001E+00 -0.217023926E+00
   H -0.294996176E+02  0.416380779E+01  0.633970556E+00
   H  0.285890320E+02 -0.374106364E+01  0.263970836E+01
     4
 # iter = 59000  time[fs]=59.00000
   C -0.690004716E+01 -0.371261085E+00  0.806387554E-01
   C  0.655047545E+01  0.243699862E+00 -0.220223331E+00
   H -0.298697958E+02  0.421648107E+01  0.641709824E+00
   H  0.289447488E+02 -0.378836088E+01  0.267296100E+01
     4
 # iter = 59500  time[fs]=59.50000
   C -0.699616467E+01 -0.376634004E+00  0.817404827E-01
   C  0.664166615E+01  0.247683545E+00 -0.223425482E+00
   H -0.302400713E+02  0.426917083E+01  0.649450872E+00
   H  0.293005663E+02 -0.383567356E+01  0.270622422E+01
     4
 # iter = 60000  time[fs]=60.00000
   C -0.709236627E+01 -0.382011706E+00  0.828438778E-01
   C  0.673294067E+01  0.251671927E+00 -0.226630306E+00
   H -0.306104418E+02  0.432187669E+01  0.657193660E+00
   H  0.296564820E+02 -0.388300135E+01  0.273949777E+01
     4
 # iter = 60500  time[fs]=60.50000
   C -0.718864968E+01 -0.387394071E+00  0.839488954E-01
   C  0.682429672E+01  0.255664891E+00 -0.229837736E+00
   H -0.309809049E+02  0.437459828E+01  0.664938145E+00
   H  0.300124937E+02 -0.393034389E+01  0.277278142E+01
     4
 # iter = 61000  time[fs]=61.00000
   C -0.728501271E+01 -0.392780982E+00  0.850554923E-01
   C  0.691573212E+01  0.259662323E+00 -0.233047705E+00
   H -0.313514586E+02  0.442733523E+01  0.672684288E+00
   H  0.303685992E+02 -0.397770086E+01  0.280607494E+01
     4
 # iter = 61500  time[fs]=61.50000
   C -0.738145325E+01 -0.398172329E+00  0.861636269E-01
   C  0.700724477E+01  0.263664114E+00 -0.236260152E+00
   H -0.317221007E+02  0.448008720E+01  0.680432050E+00
   H  0.307247962E+02 -0.402507192E+01  0.283937812E+01
     4
 # iter = 62000  time[fs]=62.00000
   C -0.747796928E+01 -0.403568004E+00  0.872732592E-01
   C  0.709883266E+01  0.267670159E+00 -0.239475014E+00
   H -0.320928292E+02  0.453285386E+01  0.688181395E+00
   H  0.310810827E+02 -0.407245678E+01  0.287269073E+01
     4
 # iter = 62500  time[fs]=62.50000
   C -0.757455886E+01 -0.408967903E+00  0.883843506E-01
   C  0.719049383E+01  0.271680355E+00 -0.242692234E+00
   H -0.324636421E+02  0.458563488E+01  0.695932287E+00
   H  0.314374567E+02 -0.411985512E+01  0.290601257E+01
     4
 # iter = 63000  time[fs]=63.00000
   C -0.767122010E+01 -0.414371926E+00  0.894968641E-01
   C  0.728222643E+01  0.275694604E+00 -0.245911755E+00
   H -0.328345376E+02  0.463842995E+01  0.703684691E+00
   H  0.317939162E+02 -0.416726667E+01  0.293934344E+01
     4
 # iter = 63500  time[fs]=63.50000
   C -0.776795120E+01 -0.419779976E+00  0.906107639E-01
   C  0.737402864E+01  0.279712811E+00 -0.249133522E+00
   H -0.332055139E+02  0.469123877E+01  0.711438573E+00
   H  0.321504594E+02 -0.421469114E+01  0.297268316E+01
     4
 # iter = 64000  time[fs]=64.00000
   C -0.786475043E+01 -0.425191960E+00  0.917260157E-01
   C  0.746589874E+01  0.283734886E+00 -0.252357482E+00
   H -0.335765691E+02  0.474406103E+01  0.719193902E+00
   H  0.325070844E+02 -0.426212825E+01  0.300603152E+01
     4
 # iter = 64500  time[fs]=64.50000
   C -0.796161610E+01 -0.430607789E+00  0.928425862E-01
   C  0.755783505E+01  0.287760738E+00 -0.255583585E+00
   H -0.339477016E+02  0.479689647E+01  0.726950646E+00
   H  0.328637895E+02 -0.430957774E+01  0.303938836E+01
     4
 # iter = 65000  time[fs]=65.00000
   C -0.805854660E+01 -0.436027373E+00  0.939604434E-01
   C  0.764983596E+01  0.291790284E+00 -0.258811782E+00
   H -0.343189097E+02  0.484974479E+01  0.734708774E+00
   H  0.332205729E+02 -0.435703936E+01  0.307275350E+01
     4
 # iter = 65500  time[fs]=65.50000
   C -0.815554037E+01 -0.441450631E+00  0.950795565E-01
   C  0.774189992E+01  0.295823440E+00 -0.262042025E+00
   H -0.346901918E+02  0.490260574E+01  0.742468257E+00
   H  0.335774331E+02 -0.440451286E+01  0.310612677E+01
     4
 # iter = 66000  time[fs]=66.00000
   C -0.825259591E+01 -0.446877479E+00  0.961998957E-01
   C  0.783402541E+01  0.299860126E+00 -0.265274268E+00
   H -0.350615463E+02  0.495547906E+01  0.750229068E+00
   H  0.339343684E+02 -0.445199800E+01  0.313950800E+01
     4
 # iter = 66500  time[fs]=66.50000
   C -0.834971176E+01 -0.452307839E+00  0.973214322E-01
   C  0.792621100E+01  0.303900265E+00 -0.268508468E+00
   H -0.354329718E+02  0.500836450E+01  0.757991177E+00
   H  0.342913772E+02 -0.449949454E+01  0.317289704E+01
     4
 # iter = 67000  time[fs]=67.00000
   C -0.844688652E+01 -0.457741635E+00  0.984441383E-01
   C  0.801845529E+01  0.307943782E+00 -0.271744580E+00
   H -0.358044668E+02  0.506126181E+01  0.765754560E+00
   H  0.346484581E+02 -0.454700226E+01  0.320629372E+01
     4
 # iter = 67500  time[fs]=67.50000
   C -0.854411883E+01 -0.463178793E+00  0.995679871E-01
   C  0.811075692E+01  0.311990604E+00 -0.274982563E+00
   H -0.361760299E+02  0.511417075E+01  0.773519189E+00
   H  0.350056096E+02 -0.459452094E+01  0.323969790E+01
     4
 # iter = 68000  time[fs]=68.00000
   C -0.864140738E+01 -0.468619241E+00  0.100692953E+00
   C  0.820311458E+01  0.316040661E+00 -0.278222378E+00
   H -0.365476596E+02  0.516709110E+01  0.781285039E+00
   H  0.353628303E+02 -0.464205036E+01  0.327310943E+01
     4
 # iter = 68500  time[fs]=68.50000
   C -0.873875091E+01 -0.474062910E+00  0.101819010E+00
   C  0.829552702E+01  0.320093886E+00 -0.281463986E+00
   H -0.369193548E+02  0.522002264E+01  0.789052087E+00
   H  0.357201189E+02 -0.468959033E+01  0.330652818E+01
     4
 # iter = 69000  time[fs]=69.00000
   C -0.883614819E+01 -0.479509734E+00  0.102946134E+00
   C  0.838799300E+01  0.324150212E+00 -0.284707347E+00
   H -0.372911140E+02  0.527296515E+01  0.796820309E+00
   H  0.360774739E+02 -0.473714063E+01  0.333995399E+01
     4
 # iter = 69500  time[fs]=69.50000
   C -0.893359804E+01 -0.484959646E+00  0.104074303E+00
   C  0.848051136E+01  0.328209575E+00 -0.287952427E+00
   H -0.376629360E+02  0.532591842E+01  0.804589681E+00
   H  0.364348941E+02 -0.478470108E+01  0.337338675E+01
     4
 # iter = 70000  time[fs]=70.00000
   C -0.903109930E+01 -0.490412583E+00  0.105203492E+00
   C  0.857308094E+01  0.332271913E+00 -0.291199190E+00
   H -0.380348197E+02  0.537888225E+01  0.812360182E+00
   H  0.367923782E+02 -0.483227148E+01  0.340682632E+01
     4
 # iter = 70500  time[fs]=70.50000
   C -0.912865088E+01 -0.495868485E+00  0.106333681E+00
   C  0.866570063E+01  0.336337166E+00 -0.294447600E+00
   H -0.384067638E+02  0.543185643E+01  0.820131789E+00
   H  0.371499251E+02 -0.487985164E+01  0.344027257E+01
     4
 # iter = 71000  time[fs]=71.00000
   C -0.922625168E+01 -0.501327292E+00  0.107464847E+00
   C  0.875836938E+01  0.340405277E+00 -0.297697626E+00
   H -0.387787672E+02  0.548484079E+01  0.827904482E+00
   H  0.375075335E+02 -0.492744140E+01  0.347372538E+01
     4
 # iter = 71500  time[fs]=71.50000
   C -0.932390067E+01 -0.506788946E+00  0.108596971E+00
   C  0.885108612E+01  0.344476187E+00 -0.300949234E+00
   H -0.391508287E+02  0.553783512E+01  0.835678240E+00
   H  0.378652023E+02 -0.497504057E+01  0.350718462E+01
     4
 # iter = 72000  time[fs]=72.00000
   C -0.942159684E+01 -0.512253391E+00  0.109730032E+00
   C  0.894384987E+01  0.348549842E+00 -0.304202394E+00
   H -0.395229474E+02  0.559083925E+01  0.843453043E+00
   H  0.382229303E+02 -0.502264898E+01  0.354065020E+01
     4
 # iter = 72500  time[fs]=72.50000
   C -0.951933922E+01 -0.517720574E+00  0.110864011E+00
   C  0.903665963E+01  0.352626190E+00 -0.307457074E+00
   H -0.398951220E+02  0.564385300E+01  0.851228873E+00
   H  0.385807165E+02 -0.507026647E+01  0.357412198E+01
     4
 # iter = 73000  time[fs]=73.00000
   C -0.961712684E+01 -0.523190440E+00  0.111998888E+00
   C  0.912951447E+01  0.356705177E+00 -0.310713246E+00
   H -0.402673517E+02  0.569687619E+01  0.859005710E+00
   H  0.389385598E+02 -0.511789288E+01  0.360759987E+01
     4
 # iter = 73500  time[fs]=73.50000
   C -0.971495879E+01 -0.528662939E+00  0.113134646E+00
   C  0.922241347E+01  0.360786753E+00 -0.313970880E+00
   H -0.406396354E+02  0.574990867E+01  0.866783536E+00
   H  0.392964592E+02 -0.516552805E+01  0.364108374E+01
     4
 # iter = 74000  time[fs]=74.00000
   C -0.981283418E+01 -0.534138021E+00  0.114271268E+00
   C  0.931535574E+01  0.364870871E+00 -0.317229949E+00
   H -0.410119721E+02  0.580295026E+01  0.874562333E+00
   H  0.396544136E+02 -0.521317183E+01  0.367457351E+01
     4
 # iter = 74500  time[fs]=74.50000
   C -0.991075214E+01 -0.539615637E+00  0.115408734E+00
   C  0.940834040E+01  0.368957481E+00 -0.320490425E+00
   H -0.413843609E+02  0.585600082E+01  0.882342084E+00
   H  0.400124222E+02 -0.526082407E+01  0.370806906E+01
     4
 # iter = 75000  time[fs]=75.00000
   C -0.100087118E+02 -0.545095741E+00  0.116547030E+00
   C  0.950136663E+01  0.373046537E+00 -0.323752283E+00
   H -0.417568008E+02  0.590906017E+01  0.890122772E+00
   H  0.403704838E+02 -0.530848463E+01  0.374157030E+01
     4
 # iter = 75500  time[fs]=75.50000
   C -0.101067124E+02 -0.550578286E+00  0.117686139E+00
   C  0.959443361E+01  0.377137995E+00 -0.327015496E+00
   H -0.421292910E+02  0.596212818E+01  0.897904380E+00
   H  0.407285977E+02 -0.535615336E+01  0.377507714E+01
     4
 # iter = 76000  time[fs]=76.00000
   C -0.102047531E+02 -0.556063227E+00  0.118826045E+00
   C  0.968754054E+01  0.381231811E+00 -0.330280039E+00
   H -0.425018306E+02  0.601520469E+01  0.905686893E+00
   H  0.410867630E+02 -0.540383012E+01  0.380858947E+01
     4
 # iter = 76500  time[fs]=76.50000
   C -0.103028332E+02 -0.561550522E+00  0.119966733E+00
   C  0.978068666E+01  0.385327942E+00 -0.333545889E+00
   H -0.428744188E+02  0.606828956E+01  0.913470296E+00
   H  0.414449786E+02 -0.545151479E+01  0.384210720E+01
     4
 # iter = 77000  time[fs]=77.00000
   C -0.104009518E+02 -0.567040128E+00  0.121108187E+00
   C  0.987387121E+01  0.389426346E+00 -0.336813021E+00
   H -0.432470547E+02  0.612138266E+01  0.921254572E+00
   H  0.418032438E+02 -0.549920723E+01  0.387563025E+01
     4
 # iter = 77500  time[fs]=77.50000
   C -0.104991083E+02 -0.572532004E+00  0.122250394E+00
   C  0.996709348E+01  0.393526984E+00 -0.340081414E+00
   H -0.436197375E+02  0.617448384E+01  0.929039707E+00
   H  0.421615578E+02 -0.554690731E+01  0.390915853E+01
     4
 # iter = 78000  time[fs]=78.00000
   C -0.105973020E+02 -0.578026110E+00  0.123393340E+00
   C  0.100603528E+02  0.397629815E+00 -0.343351043E+00
   H -0.439924664E+02  0.622759298E+01  0.936825687E+00
   H  0.425199197E+02 -0.559461491E+01  0.394269195E+01
     4
 # iter = 78500  time[fs]=78.50000
   C -0.106955321E+02 -0.583522407E+00  0.124537010E+00
   C  0.101536483E+02  0.401734801E+00 -0.346621889E+00
   H -0.443652407E+02  0.628070993E+01  0.944612497E+00
   H  0.428783287E+02 -0.564232991E+01  0.397623044E+01
     4
 # iter = 79000  time[fs]=79.00000
   C -0.107937981E+02 -0.589020857E+00  0.125681392E+00
   C  0.102469796E+02  0.405841906E+00 -0.349893928E+00
   H -0.447380595E+02  0.633383459E+01  0.952400124E+00
   H  0.432367841E+02 -0.569005219E+01  0.400977390E+01
     4
 # iter = 79500  time[fs]=79.50000
   C -0.108920991E+02 -0.594521422E+00  0.126826472E+00
   C  0.103403458E+02  0.409951093E+00 -0.353167141E+00
   H -0.451109223E+02  0.638696681E+01  0.960188555E+00
   H  0.435952850E+02 -0.573778163E+01  0.404332226E+01
     4
 # iter = 80000  time[fs]=80.00000
   C -0.109904347E+02 -0.600024067E+00  0.127972237E+00
   C  0.104337464E+02  0.414062325E+00 -0.356441508E+00
   H -0.454838282E+02  0.644010649E+01  0.967977776E+00
   H  0.439538309E+02 -0.578551812E+01  0.407687544E+01
