     4
 # iter = 25000  time[fs]=25.00000
   C -0.101003895E+01 -0.336694366E-01  0.788196280E-02
   C  0.985118425E+00 -0.230264489E-01  0.356004987E-01
   H -0.534000749E+01  0.779489324E-01  0.293213172E+00
   H  0.539282903E+01  0.416743307E+00  0.271183136E+00
     4
 # iter = 25500  time[fs]=25.50000
   C -0.105713357E+01 -0.347286948E-01  0.742242826E-02
   C  0.102739760E+01 -0.256755512E-01  0.360879618E-01
   H -0.567598112E+01  0.829521261E-01  0.311511126E+00
   H  0.571137672E+01  0.440767916E+00  0.286702564E+00
     4
 # iter = 26000  time[fs]=26.00000
   C -0.110750910E+01 -0.358104241E-01  0.690531579E-02
   C  0.107296439E+01 -0.283239727E-01  0.366119688E-01
   H -0.601461067E+01  0.880006068E-01  0.329947803E+00
   H  0.603250002E+01  0.465008722E+00  0.302335677E+00
     4
 # iter = 26500  time[fs]=26.50000
   C -0.116088640E+01 -0.369096999E-01  0.633625140E-02
   C  0.112153783E+01 -0.309742548E-01  0.371691672E-01
   H -0.635560142E+01  0.930890622E-01  0.348507861E+00
   H  0.635592577E+01  0.489442439E+00  0.318070536E+00
     4
 # iter = 27000  time[fs]=27.00000
   C -0.121700540E+01 -0.380225251E-01  0.572026854E-02
   C  0.117285651E+01 -0.336283858E-01  0.377564442E-01
   H -0.669870447E+01  0.982130789E-01  0.367178399E+00
   H  0.668142138E+01  0.514049373E+00  0.333896993E+00
     4
 # iter = 27500  time[fs]=27.50000
   C -0.127562650E+01 -0.391456779E-01  0.506185737E-02
   C  0.122667979E+01 -0.362878772E-01  0.383709475E-01
   H -0.704370774E+01  0.103368948E+00  0.385948465E+00
   H  0.700878730E+01  0.538812712E+00  0.349806346E+00
     4
 # iter = 28000  time[fs]=28.00000
   C -0.133653071E+01 -0.402765761E-01  0.436501546E-02
   C  0.128278786E+01 -0.389538436E-01  0.390100876E-01
   H -0.739042918E+01  0.108553519E+00  0.404808675E+00
   H  0.733785112E+01  0.563717993E+00  0.365791083E+00
     4
 # iter = 28500  time[fs]=28.50000
   C -0.139951905E+01 -0.414131595E-01  0.363329777E-02
   C  0.134098114E+01 -0.416270757E-01  0.396715294E-01
   H -0.773871137E+01  0.113764094E+00  0.423750927E+00
   H  0.766846288E+01  0.588752681E+00  0.381844667E+00
     4
 # iter = 29000  time[fs]=29.00000
   C -0.146441150E+01 -0.425537909E-01  0.286986451E-02
   C  0.140107910E+01 -0.443081051E-01  0.403531764E-01
   H -0.808841734E+01  0.118998341E+00  0.442768174E+00
   H  0.800049140E+01  0.613905839E+00  0.397961380E+00
     4
 # iter = 29500  time[fs]=29.50000
   C -0.153104560E+01 -0.436971738E-01  0.207752569E-02
   C  0.146291892E+01 -0.469972594E-01  0.410531521E-01
   H -0.843942718E+01  0.124254234E+00  0.461854250E+00
   H  0.833382127E+01  0.639167869E+00  0.414136186E+00
     4
 # iter = 30000  time[fs]=30.00000
   C -0.159927499E+01 -0.448422850E-01  0.125878193E-02
   C  0.152635395E+01 -0.496947079E-01  0.417697795E-01
   H -0.879163533E+01  0.129529997E+00  0.481003724E+00
   H  0.866835050E+01  0.664530301E+00  0.430364633E+00
     4
 # iter = 30500  time[fs]=30.50000
   C -0.166896795E+01 -0.459883199E-01  0.415861174E-03
   C  0.159125224E+01 -0.524004988E-01  0.425015611E-01
   H -0.914494845E+01  0.134824065E+00  0.500211792E+00
   H  0.900398848E+01  0.689985619E+00  0.446642761E+00
     4
 # iter = 31000  time[fs]=31.00000
   C -0.174000592E+01 -0.471346487E-01 -0.449248537E-03
   C  0.165749504E+01 -0.551145884E-01  0.432471598E-01
   H -0.949928356E+01  0.140135053E+00  0.519474176E+00
   H  0.934065437E+01  0.715527128E+00  0.462967033E+00
     4
 # iter = 31500  time[fs]=31.50000
   C -0.181228217E+01 -0.482807806E-01 -0.133477009E-02
   C  0.172497549E+01 -0.578368653E-01  0.440053812E-01
   H -0.985456660E+01  0.145461730E+00  0.538787058E+00
   H  0.967827579E+01  0.741148834E+00  0.479334278E+00
     4
 # iter = 32000  time[fs]=32.00000
   C -0.188570052E+01 -0.494263357E-01 -0.223911185E-02
   C  0.179359730E+01 -0.605671688E-01  0.447751572E-01
   H -0.102107312E+02  0.150802994E+00  0.558147009E+00
   H  0.100167876E+02  0.766845350E+00  0.495741641E+00
     4
 # iter = 32500  time[fs]=32.50000
   C -0.196017425E+01 -0.505710226E-01 -0.316084530E-02
   C  0.186327367E+01 -0.633053029E-01  0.455555315E-01
   H -0.105677177E+02  0.156157855E+00  0.577550941E+00
   H  0.103561312E+02  0.792611818E+00  0.512186544E+00
     4
 # iter = 33000  time[fs]=33.00000
   C -0.203562501E+01 -0.517146201E-01 -0.409868560E-02
   C  0.193392619E+01 -0.660510482E-01  0.463456466E-01
   H -0.109254723E+02  0.161525422E+00  0.596996063E+00
   H  0.106962534E+02  0.818443841E+00  0.528666649E+00
     4
 # iter = 33500  time[fs]=33.50000
   C -0.211198197E+01 -0.528569627E-01 -0.505147458E-02
   C  0.200548398E+01 -0.688041699E-01  0.471447327E-01
   H -0.112839460E+02  0.166904889E+00  0.616479842E+00
   H  0.110371059E+02  0.844337424E+00  0.545179830E+00
     4
 # iter = 34000  time[fs]=34.00000
   C -0.218918093E+01 -0.539979297E-01 -0.601816589E-02
   C  0.207788281E+01 -0.715644249E-01  0.479520969E-01
   H -0.116430946E+02  0.172295524E+00  0.635999973E+00
   H  0.113786447E+02  0.870288929E+00  0.561724148E+00
     4
 # iter = 34500  time[fs]=34.50000
   C -0.226716366E+01 -0.551374355E-01 -0.699781214E-02
   C  0.215106444E+01 -0.743315663E-01  0.487671148E-01
   H -0.120028777E+02  0.177696663E+00  0.655554355E+00
   H  0.117208297E+02  0.896295033E+00  0.578297831E+00
     4
 # iter = 35000  time[fs]=35.00000
   C -0.234587723E+01 -0.562754225E-01 -0.798955364E-02
   C  0.222497592E+01 -0.771053473E-01  0.495892226E-01
   H -0.123632584E+02  0.183107697E+00  0.675141061E+00
   H  0.120636243E+02  0.922352692E+00  0.594899254E+00
     4
 # iter = 35500  time[fs]=35.50000
   C -0.242527343E+01 -0.574118553E-01 -0.899260855E-02
   C  0.229956904E+01 -0.798855240E-01  0.504179102E-01
   H -0.127242029E+02  0.188528069E+00  0.694758326E+00
   H  0.124069946E+02  0.948459111E+00  0.611526922E+00
     4
 # iter = 36000  time[fs]=36.00000
   C -0.250530830E+01 -0.585467160E-01 -0.100062643E-01
   C  0.237479983E+01 -0.826718575E-01  0.512527150E-01
   H -0.130856802E+02  0.193957270E+00  0.714404525E+00
   H  0.127509096E+02  0.974611717E+00  0.628179459E+00
     4
 # iter = 36500  time[fs]=36.50000
   C -0.258594166E+01 -0.596800001E-01 -0.110298702E-01
   C  0.245062811E+01 -0.854641150E-01  0.520932170E-01
   H -0.134476617E+02  0.199394829E+00  0.734078161E+00
   H  0.130953408E+02  0.100080814E+01  0.644855594E+00
     4
 # iter = 37000  time[fs]=37.00000
   C -0.266713673E+01 -0.608117144E-01 -0.120628306E-01
   C  0.252701712E+01 -0.882620711E-01  0.529390340E-01
   H -0.138101211E+02  0.204840313E+00  0.753777850E+00
   H  0.134402617E+02  0.102704617E+01  0.661554151E+00
     4
 # iter = 37500  time[fs]=37.50000
   C -0.274885978E+01 -0.619418735E-01 -0.131045995E-01
   C  0.260393313E+01 -0.910655081E-01  0.537898175E-01
   H -0.141730341E+02  0.210293322E+00  0.773502311E+00
   H  0.137856479E+02  0.105332379E+01  0.678274041E+00
     4
 # iter = 38000  time[fs]=38.00000
   C -0.283107981E+01 -0.630704987E-01 -0.141546751E-01
   C  0.268134516E+01 -0.938742167E-01  0.546452491E-01
   H -0.145363781E+02  0.215753485E+00  0.793250354E+00
   H  0.141314766E+02  0.107963911E+01  0.695014250E+00
     4
 # iter = 38500  time[fs]=38.50000
   C -0.291376833E+01 -0.641976160E-01 -0.152125956E-01
   C  0.275922473E+01 -0.966879959E-01  0.555050375E-01
   H -0.149001322E+02  0.221220458E+00  0.813020876E+00
   H  0.144777268E+02  0.110599037E+01  0.711773838E+00
     4
 # iter = 39000  time[fs]=39.00000
   C -0.299689904E+01 -0.653232550E-01 -0.162779350E-01
   C  0.283754556E+01 -0.995066532E-01  0.563689157E-01
   H -0.152642770E+02  0.226693922E+00  0.832812847E+00
   H  0.148243789E+02  0.113237594E+01  0.728551926E+00
     4
 # iter = 39500  time[fs]=39.50000
   C -0.308044769E+01 -0.664474481E-01 -0.173502999E-01
   C  0.291628342E+01 -0.102330004E+00  0.572366385E-01
   H -0.156287943E+02  0.232173579E+00  0.852625309E+00
   H  0.151714146E+02  0.115879429E+01  0.745347694E+00
     4
 # iter = 40000  time[fs]=40.00000
   C -0.316439185E+01 -0.675702294E-01 -0.184293262E-01
   C  0.299541587E+01 -0.105157873E+00  0.581079803E-01
   H -0.159936674E+02  0.237659151E+00  0.872457365E+00
   H  0.155188168E+02  0.118524400E+01  0.762160377E+00
     4
 # iter = 40500  time[fs]=40.50000
   C -0.324871073E+01 -0.686916340E-01 -0.195146764E-01
   C  0.307492218E+01 -0.107990092E+00  0.589827333E-01
   H -0.163588804E+02  0.243150379E+00  0.892308177E+00
   H  0.158665695E+02  0.121172373E+01  0.778989256E+00
     4
 # iter = 41000  time[fs]=41.00000
   C -0.333338507E+01 -0.698116979E-01 -0.206060372E-01
   C  0.315478307E+01 -0.110826500E+00  0.598607057E-01
   H -0.167244186E+02  0.248647020E+00  0.912176959E+00
   H  0.162146578E+02  0.123823223E+01  0.795833660E+00
     4
 # iter = 41500  time[fs]=41.50000
   C -0.341839697E+01 -0.709304574E-01 -0.217031173E-01
   C  0.323498068E+01 -0.113666945E+00  0.607417202E-01
   H -0.170902683E+02  0.254148848E+00  0.932062975E+00
   H  0.165630677E+02  0.126476833E+01  0.812692956E+00
     4
 # iter = 42000  time[fs]=42.00000
   C -0.350372979E+01 -0.720479486E-01 -0.228056454E-01
   C  0.331549838E+01 -0.116511280E+00  0.616256129E-01
   H -0.174564164E+02  0.259655648E+00  0.951965531E+00
   H  0.169117860E+02  0.129133092E+01  0.829566550E+00
     4
 # iter = 42500  time[fs]=42.50000
   C -0.358936801E+01 -0.731642075E-01 -0.239133684E-01
   C  0.339632067E+01 -0.119359366E+00  0.625122314E-01
   H -0.178228508E+02  0.265167220E+00  0.971883976E+00
   H  0.172608003E+02  0.131791897E+01  0.846453884E+00
     4
 # iter = 43000  time[fs]=43.00000
   C -0.367529717E+01 -0.742792694E-01 -0.250260502E-01
   C  0.347743311E+01 -0.122211071E+00  0.634014346E-01
   H -0.181895600E+02  0.270683375E+00  0.991817697E+00
   H  0.176100989E+02  0.134453149E+01  0.863354430E+00
     4
 # iter = 43500  time[fs]=43.50000
   C -0.376150376E+01 -0.753931692E-01 -0.261434697E-01
   C  0.355882221E+01 -0.125066268E+00  0.642930913E-01
   H -0.185565333E+02  0.276203937E+00  0.101176611E+01
   H  0.179596709E+02  0.137116757E+01  0.880267691E+00
     4
 # iter = 44000  time[fs]=44.00000
   C -0.384797516E+01 -0.765059410E-01 -0.272654200E-01
   C  0.364047535E+01 -0.127924836E+00  0.651870791E-01
   H -0.189237605E+02  0.281728737E+00  0.103172868E+01
   H  0.183095060E+02  0.139782633E+01  0.897193198E+00
     4
 # iter = 44500  time[fs]=44.50000
   C -0.393469955E+01 -0.776176179E-01 -0.283917072E-01
   C  0.372238074E+01 -0.130786661E+00  0.660832842E-01
   H -0.192912320E+02  0.287257618E+00  0.105170489E+01
   H  0.186595942E+02  0.142450694E+01  0.914130505E+00
     4
 # iter = 45000  time[fs]=45.00000
   C -0.402166582E+01 -0.787282324E-01 -0.295221493E-01
   C  0.380452730E+01 -0.133651633E+00  0.669816003E-01
   H -0.196589389E+02  0.292790429E+00  0.107169423E+01
   H  0.190099264E+02  0.145120864E+01  0.931079194E+00
     4
 # iter = 45500  time[fs]=45.50000
   C -0.410886359E+01 -0.798378160E-01 -0.306565751E-01
   C  0.388690464E+01 -0.136519646E+00  0.678819280E-01
   H -0.200268724E+02  0.298327030E+00  0.109169627E+01
   H  0.193604939E+02  0.147793068E+01  0.948038865E+00
     4
 # iter = 46000  time[fs]=46.00000
   C -0.419628309E+01 -0.809463991E-01 -0.317948237E-01
   C  0.396950302E+01 -0.139390601E+00  0.687841743E-01
   H -0.203950246E+02  0.303867287E+00  0.111171054E+01
   H  0.197112882E+02  0.150467235E+01  0.965009141E+00
     4
 # iter = 46500  time[fs]=46.50000
   C -0.428391511E+01 -0.820540114E-01 -0.329367434E-01
   C  0.405231325E+01 -0.142264402E+00  0.696882522E-01
   H -0.207633877E+02  0.309411073E+00  0.113173664E+01
   H  0.200623016E+02  0.153143300E+01  0.981989663E+00
     4
 # iter = 47000  time[fs]=47.00000
   C -0.437175102E+01 -0.831606814E-01 -0.340821912E-01
   C  0.413532670E+01 -0.145140957E+00  0.705940801E-01
   H -0.211319545E+02  0.314958268E+00  0.115177418E+01
   H  0.204135265E+02  0.155821199E+01  0.998980091E+00
     4
 # iter = 47500  time[fs]=47.50000
   C -0.445978265E+01 -0.842664369E-01 -0.352310322E-01
   C  0.421853523E+01 -0.148020181E+00  0.715015813E-01
   H -0.215007180E+02  0.320508756E+00  0.117182278E+01
   H  0.207649559E+02  0.158500873E+01  0.101598010E+01
     4
 # iter = 48000  time[fs]=48.00000
   C -0.454800231E+01 -0.853713046E-01 -0.363831389E-01
   C  0.430193116E+01 -0.150901988E+00  0.724106839E-01
   H -0.218696717E+02  0.326062430E+00  0.119188207E+01
   H  0.211165831E+02  0.161182263E+01  0.103298938E+01
     4
 # iter = 48500  time[fs]=48.50000
   C -0.463640273E+01 -0.864753104E-01 -0.375383907E-01
   C  0.438550724E+01 -0.153786300E+00  0.733213200E-01
   H -0.222388092E+02  0.331619186E+00  0.121195172E+01
   H  0.214684015E+02  0.163865316E+01  0.105000764E+01
     4
 # iter = 49000  time[fs]=49.00000
   C -0.472497705E+01 -0.875784791E-01 -0.386966735E-01
   C  0.446925662E+01 -0.156673039E+00  0.742334259E-01
   H -0.226081248E+02  0.337178925E+00  0.123203141E+01
   H  0.218204052E+02  0.166549980E+01  0.106703460E+01
     4
 # iter = 49500  time[fs]=49.50000
   C -0.481371878E+01 -0.886808348E-01 -0.398578790E-01
   C  0.455317281E+01 -0.159562134E+00  0.751469415E-01
   H -0.229776126E+02  0.342741554E+00  0.125212082E+01
   H  0.221725882E+02  0.169236205E+01  0.108406999E+01
     4
 # iter = 50000  time[fs]=50.00000
   C -0.490262176E+01 -0.897824008E-01 -0.410219047E-01
   C  0.463724968E+01 -0.162453513E+00  0.760618101E-01
   H -0.233472674E+02  0.348306983E+00  0.127221966E+01
   H  0.225249450E+02  0.171923944E+01  0.110111356E+01
     4
 # iter = 50500  time[fs]=50.50000
   C -0.499168016E+01 -0.908831993E-01 -0.421886533E-01
   C  0.472148141E+01 -0.165347110E+00  0.769779781E-01
   H -0.237170839E+02  0.353875127E+00  0.129232765E+01
   H  0.228774703E+02  0.174613152E+01  0.111816506E+01
     4
 # iter = 51000  time[fs]=51.00000
   C -0.508088845E+01 -0.919832521E-01 -0.433580322E-01
   C  0.480586248E+01 -0.168242860E+00  0.778953949E-01
   H -0.240870573E+02  0.359445905E+00  0.131244452E+01
   H  0.232301591E+02  0.177303785E+01  0.113522426E+01
     4
 # iter = 51500  time[fs]=51.50000
   C -0.517024138E+01 -0.930825800E-01 -0.445299536E-01
   C  0.489038766E+01 -0.171140702E+00  0.788140126E-01
   H -0.244571827E+02  0.365019238E+00  0.133257001E+01
   H  0.235830064E+02  0.179995803E+01  0.115229094E+01
     4
 # iter = 52000  time[fs]=52.00000
   C -0.525973398E+01 -0.941812028E-01 -0.457043337E-01
   C  0.497505197E+01 -0.174040576E+00  0.797337859E-01
   H -0.248274559E+02  0.370595051E+00  0.135270388E+01
   H  0.239360077E+02  0.182689167E+01  0.116936489E+01
     4
 # iter = 52500  time[fs]=52.50000
   C -0.534936149E+01 -0.952791401E-01 -0.468810929E-01
   C  0.505985068E+01 -0.176942426E+00  0.806546718E-01
   H -0.251978724E+02  0.376173274E+00  0.137284588E+01
   H  0.242891586E+02  0.185383837E+01  0.118644589E+01
     4
 # iter = 53000  time[fs]=53.00000
   C -0.543911940E+01 -0.963764105E-01 -0.480601553E-01
   C  0.514477929E+01 -0.179846198E+00  0.815766297E-01
   H -0.255684281E+02  0.381753839E+00  0.139299579E+01
   H  0.246424547E+02  0.188079778E+01  0.120353376E+01
     4
 # iter = 53500  time[fs]=53.50000
   C -0.552900343E+01 -0.974730320E-01 -0.492414486E-01
   C  0.522983352E+01 -0.182751837E+00  0.824996209E-01
   H -0.259391191E+02  0.387336679E+00  0.141315340E+01
   H  0.249958920E+02  0.190776955E+01  0.122062830E+01
     4
 # iter = 54000  time[fs]=54.00000
   C -0.561900948E+01 -0.985690219E-01 -0.504249035E-01
   C  0.531500929E+01 -0.185659296E+00  0.834236086E-01
   H -0.263099417E+02  0.392921732E+00  0.143331849E+01
   H  0.253494667E+02  0.193475335E+01  0.123772934E+01
     4
 # iter = 54500  time[fs]=54.50000
   C -0.570913364E+01 -0.996643969E-01 -0.516104543E-01
   C  0.540030270E+01 -0.188568524E+00  0.843485580E-01
   H -0.266808922E+02  0.398508939E+00  0.145349087E+01
   H  0.257031749E+02  0.196174886E+01  0.125483670E+01
     4
 # iter = 55000  time[fs]=55.00000
   C -0.579937219E+01 -0.100759173E+00 -0.527980378E-01
   C  0.548571004E+01 -0.191479475E+00  0.852744360E-01
   H -0.270519671E+02  0.404098241E+00  0.147367034E+01
   H  0.260570131E+02  0.198875577E+01  0.127195022E+01
     4
 # iter = 55500  time[fs]=55.50000
   C -0.588972159E+01 -0.101853366E+00 -0.539875937E-01
   C  0.557122777E+01 -0.194392105E+00  0.862012108E-01
   H -0.274231631E+02  0.409689582E+00  0.149385672E+01
   H  0.264109779E+02  0.201577378E+01  0.128906973E+01
     4
 # iter = 56000  time[fs]=56.00000
   C -0.598017843E+01 -0.102946991E+00 -0.551790645E-01
   C  0.565685250E+01 -0.197306370E+00  0.871288526E-01
   H -0.277944770E+02  0.415282910E+00  0.151404984E+01
   H  0.267650659E+02  0.204280261E+01  0.130619509E+01
     4
 # iter = 56500  time[fs]=56.50000
   C -0.607073946E+01 -0.104040063E+00 -0.563723950E-01
   C  0.574258099E+01 -0.200222229E+00  0.880573325E-01
   H -0.281659058E+02  0.420878173E+00  0.153424951E+01
   H  0.271192739E+02  0.206984199E+01  0.132332615E+01
     4
 # iter = 57000  time[fs]=57.00000
   C -0.616140159E+01 -0.105132595E+00 -0.575675322E-01
   C  0.582841015E+01 -0.203139641E+00  0.889866232E-01
   H -0.285374464E+02  0.426475322E+00  0.155445559E+01
   H  0.274735989E+02  0.209689165E+01  0.134046276E+01
     4
 # iter = 57500  time[fs]=57.50000
   C -0.625216184E+01 -0.106224600E+00 -0.587644255E-01
   C  0.591433702E+01 -0.206058569E+00  0.899166988E-01
   H -0.289090960E+02  0.432074310E+00  0.157466790E+01
   H  0.278280379E+02  0.212395134E+01  0.135760478E+01
     4
 # iter = 58000  time[fs]=58.00000
   C -0.634301736E+01 -0.107316093E+00 -0.599630262E-01
   C  0.600035874E+01 -0.208978975E+00  0.908475342E-01
   H -0.292808519E+02  0.437675091E+00  0.159488630E+01
   H  0.281825880E+02  0.215102081E+01  0.137475209E+01
     4
 # iter = 58500  time[fs]=58.50000
   C -0.643396542E+01 -0.108407085E+00 -0.611632879E-01
   C  0.608647262E+01 -0.211900822E+00  0.917791057E-01
   H -0.296527115E+02  0.443277620E+00  0.161511064E+01
   H  0.285372467E+02  0.217809984E+01  0.139190456E+01
     4
 # iter = 59000  time[fs]=59.00000
   C -0.652500342E+01 -0.109497590E+00 -0.623651656E-01
   C  0.617267603E+01 -0.214824077E+00  0.927113905E-01
   H -0.300246722E+02  0.448881856E+00  0.163534078E+01
   H  0.288920111E+02  0.220518819E+01  0.140906206E+01
     4
 # iter = 59500  time[fs]=59.50000
   C -0.661612884E+01 -0.110587617E+00 -0.635686163E-01
   C  0.625896649E+01 -0.217748706E+00  0.936443669E-01
   H -0.303967315E+02  0.454487758E+00  0.165557658E+01
   H  0.292468788E+02  0.223228564E+01  0.142622448E+01
     4
 # iter = 60000  time[fs]=60.00000
   C -0.670733928E+01 -0.111677180E+00 -0.647735989E-01
   C  0.634534158E+01 -0.220674677E+00  0.945780141E-01
   H -0.307688872E+02  0.460095286E+00  0.167581791E+01
   H  0.296018474E+02  0.225939199E+01  0.144339169E+01
     4
 # iter = 60500  time[fs]=60.50000
   C -0.679863243E+01 -0.112766288E+00 -0.659800734E-01
   C  0.643179901E+01 -0.223601958E+00  0.955123120E-01
   H -0.311411368E+02  0.465704403E+00  0.169606464E+01
   H  0.299569143E+02  0.228650702E+01  0.146056360E+01
     4
 # iter = 61000  time[fs]=61.00000
   C -0.689000605E+01 -0.113854953E+00 -0.671880017E-01
   C  0.651833656E+01 -0.226530519E+00  0.964472417E-01
   H -0.315134783E+02  0.471315071E+00  0.171631666E+01
   H  0.303120775E+02  0.231363054E+01  0.147774010E+01
     4
 # iter = 61500  time[fs]=61.50000
   C -0.698145803E+01 -0.114943185E+00 -0.683973470E-01
   C  0.660495211E+01 -0.229460331E+00  0.973827847E-01
   H -0.318859095E+02  0.476927255E+00  0.173657383E+01
   H  0.306673346E+02  0.234076237E+01  0.149492108E+01
     4
 # iter = 62000  time[fs]=62.00000
   C -0.707298631E+01 -0.116030994E+00 -0.696080739E-01
   C  0.669164360E+01 -0.232391367E+00  0.983189235E-01
   H -0.322584283E+02  0.482540921E+00  0.175683605E+01
   H  0.310226835E+02  0.236790231E+01  0.151210644E+01
     4
 # iter = 62500  time[fs]=62.50000
   C -0.716458891E+01 -0.117118389E+00 -0.708201482E-01
   C  0.677840908E+01 -0.235323598E+00  0.992556414E-01
   H -0.326310328E+02  0.488156035E+00  0.177710321E+01
   H  0.313781223E+02  0.239505019E+01  0.152929608E+01
     4
 # iter = 63000  time[fs]=63.00000
   C -0.725626393E+01 -0.118205380E+00 -0.720335370E-01
   C  0.686524664E+01 -0.238256999E+00  0.100192922E+00
   H -0.330037210E+02  0.493772567E+00  0.179737519E+01
   H  0.317336488E+02  0.242220583E+01  0.154648992E+01
     4
 # iter = 63500  time[fs]=63.50000
   C -0.734800955E+01 -0.119291976E+00 -0.732482087E-01
   C  0.695215447E+01 -0.241191543E+00  0.101130750E+00
   H -0.333764911E+02  0.499390484E+00  0.181765190E+01
   H  0.320892611E+02  0.244936908E+01  0.156368786E+01
     4
 # iter = 64000  time[fs]=64.00000
   C -0.743982400E+01 -0.120378186E+00 -0.744641326E-01
   C  0.703913080E+01 -0.244127207E+00  0.102069110E+00
   H -0.337493414E+02  0.505009756E+00  0.183793323E+01
   H  0.324449575E+02  0.247653976E+01  0.158088982E+01
     4
 # iter = 64500  time[fs]=64.50000
   C -0.753170557E+01 -0.121464017E+00 -0.756812792E-01
   C  0.712617394E+01 -0.247063965E+00  0.103007988E+00
   H -0.341222700E+02  0.510630356E+00  0.185821909E+01
   H  0.328007360E+02  0.250371772E+01  0.159809571E+01
     4
 # iter = 65000  time[fs]=65.00000
   C -0.762365264E+01 -0.122549479E+00 -0.768996201E-01
   C  0.721328227E+01 -0.250001796E+00  0.103947370E+00
   H -0.344952753E+02  0.516252254E+00  0.187850938E+01
   H  0.331565950E+02  0.253090282E+01  0.161530545E+01
     4
 # iter = 65500  time[fs]=65.50000
   C -0.771566362E+01 -0.123634580E+00 -0.781191276E-01
   C  0.730045419E+01 -0.252940677E+00  0.104887243E+00
   H -0.348683557E+02  0.521875424E+00  0.189880401E+01
   H  0.335125327E+02  0.255809489E+01  0.163251896E+01
     4
 # iter = 66000  time[fs]=66.00000
   C -0.780773698E+01 -0.124719326E+00 -0.793397753E-01
   C  0.738768821E+01 -0.255880585E+00  0.105827595E+00
   H -0.352415096E+02  0.527499839E+00  0.191910290E+01
   H  0.338685476E+02  0.258529381E+01  0.164973616E+01
     4
 # iter = 66500  time[fs]=66.50000
   C -0.789987126E+01 -0.125803726E+00 -0.805615374E-01
   C  0.747498284E+01 -0.258821500E+00  0.106768411E+00
   H -0.356147354E+02  0.533125474E+00  0.193940594E+01
   H  0.342246380E+02  0.261249943E+01  0.166695698E+01
     4
 # iter = 67000  time[fs]=67.00000
   C -0.799206503E+01 -0.126887787E+00 -0.817843891E-01
   C  0.756233667E+01 -0.261763401E+00  0.107709682E+00
   H -0.359880318E+02  0.538752303E+00  0.195971308E+01
   H  0.345808023E+02  0.263971162E+01  0.168418134E+01
     4
 # iter = 67500  time[fs]=67.50000
   C -0.808431692E+01 -0.127971515E+00 -0.830083063E-01
   C  0.764974834E+01 -0.264706268E+00  0.108651395E+00
   H -0.363613972E+02  0.544380303E+00  0.198002421E+01
   H  0.349370392E+02  0.266693024E+01  0.170140918E+01
     4
 # iter = 68000  time[fs]=68.00000
   C -0.817662560E+01 -0.129054918E+00 -0.842332658E-01
   C  0.773721652E+01 -0.267650082E+00  0.109593540E+00
   H -0.367348304E+02  0.550009451E+00  0.200033926E+01
   H  0.352933471E+02  0.269415518E+01  0.171864043E+01
     4
 # iter = 68500  time[fs]=68.50000
   C -0.826898979E+01 -0.130138003E+00 -0.854592450E-01
   C  0.782473993E+01 -0.270594825E+00  0.110536105E+00
   H -0.371083298E+02  0.555639724E+00  0.202065816E+01
   H  0.356497246E+02  0.272138631E+01  0.173587502E+01
     4
 # iter = 69000  time[fs]=69.00000
   C -0.836140825E+01 -0.131220775E+00 -0.866862223E-01
   C  0.791231734E+01 -0.273540477E+00  0.111479081E+00
   H -0.374818942E+02  0.561271099E+00  0.204098084E+01
   H  0.360061704E+02  0.274862351E+01  0.175311289E+01
     4
 # iter = 69500  time[fs]=69.50000
   C -0.845387977E+01 -0.132303242E+00 -0.879141765E-01
   C  0.799994754E+01 -0.276487022E+00  0.112422458E+00
   H -0.378555224E+02  0.566903556E+00  0.206130721E+01
   H  0.363626832E+02  0.277586667E+01  0.177035397E+01
     4
 # iter = 70000  time[fs]=70.00000
   C -0.854640320E+01 -0.133385408E+00 -0.891430871E-01
   C  0.808762939E+01 -0.279434442E+00  0.113366225E+00
   H -0.382292132E+02  0.572537074E+00  0.208163722E+01
   H  0.367192616E+02  0.280311567E+01  0.178759820E+01
     4
 # iter = 70500  time[fs]=70.50000
   C -0.863897740E+01 -0.134467281E+00 -0.903729343E-01
   C  0.817536176E+01 -0.282382721E+00  0.114310374E+00
   H -0.386029652E+02  0.578171633E+00  0.210197079E+01
   H  0.370759044E+02  0.283037040E+01  0.180484553E+01
     4
 # iter = 71000  time[fs]=71.00000
   C -0.873160130E+01 -0.135548865E+00 -0.916036990E-01
   C  0.826314357E+01 -0.285331842E+00  0.115254897E+00
   H -0.389767774E+02  0.583807213E+00  0.212230786E+01
   H  0.374326104E+02  0.285763077E+01  0.182209590E+01
     4
 # iter = 71500  time[fs]=71.50000
   C -0.882427383E+01 -0.136630167E+00 -0.928353624E-01
   C  0.835097376E+01 -0.288281790E+00  0.116199783E+00
   H -0.393506486E+02  0.589443795E+00  0.214264836E+01
   H  0.377893784E+02  0.288489665E+01  0.183934925E+01
     4
 # iter = 72000  time[fs]=72.00000
   C -0.891699398E+01 -0.137711192E+00 -0.940679065E-01
   C  0.843885132E+01 -0.291232548E+00  0.117145025E+00
   H -0.397245777E+02  0.595081361E+00  0.216299223E+01
   H  0.381462073E+02  0.291216797E+01  0.185660553E+01
     4
 # iter = 72500  time[fs]=72.50000
   C -0.900976074E+01 -0.138791945E+00 -0.953013138E-01
   C  0.852677526E+01 -0.294184103E+00  0.118090615E+00
   H -0.400985637E+02  0.600719893E+00  0.218333940E+01
   H  0.385030959E+02  0.293944460E+01  0.187386469E+01
     4
 # iter = 73000  time[fs]=73.00000
   C -0.910257316E+01 -0.139872431E+00 -0.965355673E-01
   C  0.861474462E+01 -0.297136440E+00  0.119036545E+00
   H -0.404726055E+02  0.606359373E+00  0.220368983E+01
   H  0.388600432E+02  0.296672648E+01  0.189112666E+01
     4
 # iter = 73500  time[fs]=73.50000
   C -0.919543031E+01 -0.140952655E+00 -0.977706504E-01
   C  0.870275847E+01 -0.300089545E+00  0.119982808E+00
   H -0.408467020E+02  0.611999784E+00  0.222404346E+01
   H  0.392170481E+02  0.299401349E+01  0.190839141E+01
     4
 # iter = 74000  time[fs]=74.00000
   C -0.928833129E+01 -0.142032623E+00 -0.990065471E-01
   C  0.879081592E+01 -0.303043403E+00  0.120929395E+00
   H -0.412208524E+02  0.617641109E+00  0.224440022E+01
   H  0.395741096E+02  0.302130555E+01  0.192565889E+01
     4
 # iter = 74500  time[fs]=74.50000
   C -0.938127521E+01 -0.143112338E+00 -0.100243242E+00
   C  0.887891609E+01 -0.305998002E+00  0.121876301E+00
   H -0.415950557E+02  0.623283334E+00  0.226476006E+01
   H  0.399312266E+02  0.304860257E+01  0.194292904E+01
     4
 # iter = 75000  time[fs]=75.00000
   C -0.947426122E+01 -0.144191806E+00 -0.101480719E+00
   C  0.896705812E+01 -0.308953328E+00  0.122823517E+00
   H -0.419693108E+02  0.628926441E+00  0.228512293E+01
   H  0.402883982E+02  0.307590447E+01  0.196020183E+01
     4
 # iter = 75500  time[fs]=75.50000
   C -0.956728849E+01 -0.145271030E+00 -0.102718965E+00
   C  0.905524120E+01 -0.311909369E+00  0.123771038E+00
   H -0.423436170E+02  0.634570415E+00  0.230548878E+01
   H  0.406456235E+02  0.310321116E+01  0.197747720E+01
     4
 # iter = 76000  time[fs]=76.00000
   C -0.966035623E+01 -0.146350016E+00 -0.103957964E+00
   C  0.914346453E+01 -0.314866113E+00  0.124718857E+00
   H -0.427179733E+02  0.640215242E+00  0.232585755E+01
   H  0.410029015E+02  0.313052256E+01  0.199475511E+01
     4
 # iter = 76500  time[fs]=76.50000
   C -0.975346365E+01 -0.147428768E+00 -0.105197703E+00
   C  0.923172733E+01 -0.317823546E+00  0.125666968E+00
   H -0.430923789E+02  0.645860908E+00  0.234622920E+01
   H  0.413602313E+02  0.315783860E+01  0.201203552E+01
     4
 # iter = 77000  time[fs]=77.00000
   C -0.984661000E+01 -0.148507289E+00 -0.106438169E+00
   C  0.932002884E+01 -0.320781659E+00  0.126615365E+00
   H -0.434668329E+02  0.651507397E+00  0.236660368E+01
   H  0.417176120E+02  0.318515919E+01  0.202931839E+01
     4
 # iter = 77500  time[fs]=77.50000
   C -0.993979452E+01 -0.149585584E+00 -0.107679347E+00
   C  0.940836832E+01 -0.323740438E+00  0.127564041E+00
   H -0.438413345E+02  0.657154696E+00  0.238698095E+01
   H  0.420750428E+02  0.321248426E+01  0.204660368E+01
     4
 # iter = 78000  time[fs]=78.00000
   C -0.100330165E+02 -0.150663657E+00 -0.108921226E+00
   C  0.949674508E+01 -0.326699873E+00  0.128512991E+00
   H -0.442158829E+02  0.662802792E+00  0.240736095E+01
   H  0.424325229E+02  0.323981374E+01  0.206389135E+01
     4
 # iter = 78500  time[fs]=78.50000
   C -0.101262753E+02 -0.151741512E+00 -0.110163793E+00
   C  0.958515840E+01 -0.329659954E+00  0.129462210E+00
   H -0.445904773E+02  0.668451672E+00  0.242774364E+01
   H  0.427900514E+02  0.326714755E+01  0.208118136E+01
     4
 # iter = 79000  time[fs]=79.00000
   C -0.102195701E+02 -0.152819151E+00 -0.111407036E+00
   C  0.967360761E+01 -0.332620668E+00  0.130411692E+00
   H -0.449651170E+02  0.674101322E+00  0.244812899E+01
   H  0.431476275E+02  0.329448563E+01  0.209847366E+01
     4
 # iter = 79500  time[fs]=79.50000
   C -0.103129004E+02 -0.153896580E+00 -0.112650942E+00
   C  0.976209207E+01 -0.335582007E+00  0.131361432E+00
   H -0.453398012E+02  0.679751731E+00  0.246851694E+01
   H  0.435052505E+02  0.332182791E+01  0.211576823E+01
     4
 # iter = 80000  time[fs]=80.00000
   C -0.104062655E+02 -0.154973801E+00 -0.113895500E+00
   C  0.985061112E+01 -0.338543960E+00  0.132311425E+00
   H -0.457145292E+02  0.685402885E+00  0.248890745E+01
   H  0.438629196E+02  0.334917432E+01  0.213306503E+01
