     4
 # iter = 25000  time[fs]=25.00000
   C -0.967394880E+00 -0.453060641E-01 -0.562443962E-01
   C  0.101022117E+01  0.256345129E-01  0.203806307E-01
   H -0.524964417E+01  0.660570213E+00  0.441088835E+00
   H  0.528967253E+01 -0.668242538E+00  0.229042316E+00
     4
 # iter = 25500  time[fs]=25.50000
   C -0.101200354E+01 -0.493458153E-01 -0.597067351E-01
   C  0.105374567E+01  0.281904156E-01  0.200332128E-01
   H -0.557591630E+01  0.702193339E+00  0.468228956E+00
   H  0.560505999E+01 -0.712040909E+00  0.240730673E+00
     4
 # iter = 26000  time[fs]=26.00000
   C -0.105995130E+01 -0.535283197E-01 -0.633186372E-01
   C  0.110060555E+01  0.308892731E-01  0.198063874E-01
   H -0.590480527E+01  0.744188314E+00  0.495608752E+00
   H  0.592310893E+01 -0.756213549E+00  0.252527003E+00
     4
 # iter = 26500  time[fs]=26.50000
   C -0.111095385E+01 -0.578456077E-01 -0.670663590E-01
   C  0.115051636E+01  0.337232635E-01  0.196896473E-01
   H -0.623602403E+01  0.786514238E+00  0.523201494E+00
   H  0.624353400E+01 -0.800721329E+00  0.264419200E+00
     4
 # iter = 27000  time[fs]=27.00000
   C -0.116474602E+01 -0.622896351E-01 -0.709374079E-01
   C  0.120321289E+01  0.366844427E-01  0.196732198E-01
   H -0.656932956E+01  0.829136661E+00  0.550984745E+00
   H  0.656609263E+01 -0.845531000E+00  0.276397062E+00
     4
 # iter = 27500  time[fs]=27.50000
   C -0.122108331E+01 -0.668524586E-01 -0.749204895E-01
   C  0.125845067E+01  0.397649341E-01  0.197481186E-01
   H -0.690451440E+01  0.872026285E+00  0.578939483E+00
   H  0.689057697E+01 -0.890614067E+00  0.288451914E+00
     4
 # iter = 28000  time[fs]=28.00000
   C -0.127974212E+01 -0.715263691E-01 -0.790054347E-01
   C  0.131600619E+01  0.429570715E-01  0.199061502E-01
   H -0.724140009E+01  0.915157984E+00  0.607049432E+00
   H  0.721680767E+01 -0.935945916E+00  0.300576324E+00
     4
 # iter = 28500  time[fs]=28.50000
   C -0.134051929E+01 -0.763039865E-01 -0.831831130E-01
   C  0.137567637E+01  0.462535005E-01  0.201398888E-01
   H -0.757983209E+01  0.958510043E+00  0.635300555E+00
   H  0.754462893E+01 -0.981505141E+00  0.312763873E+00
     4
 # iter = 29000  time[fs]=29.00000
   C -0.140323096E+01 -0.811783204E-01 -0.874453420E-01
   C  0.143727748E+01  0.496472440E-01  0.204426330E-01
   H -0.791967571E+01  0.100206356E+01  0.663680657E+00
   H  0.787390463E+01 -0.102727300E+01  0.325008986E+00
     4
 # iter = 29500  time[fs]=29.50000
   C -0.146771123E+01 -0.861428036E-01 -0.917847955E-01
   C  0.150064377E+01  0.531317392E-01  0.208083516E-01
   H -0.826081290E+01  0.104580200E+01  0.692179073E+00
   H  0.820451515E+01 -0.107323301E+01  0.337306785E+00
     4
 # iter = 30000  time[fs]=30.00000
   C -0.153381072E+01 -0.911913050E-01 -0.961949154E-01
   C  0.156562596E+01  0.567008530E-01  0.212316254E-01
   H -0.860313963E+01  0.108971076E+01  0.720786424E+00
   H  0.853635486E+01 -0.111937055E+01  0.349652982E+00
     4
 # iter = 30500  time[fs]=30.50000
   C -0.160139498E+01 -0.963181279E-01 -0.100669829E+00
   C  0.163208975E+01  0.603488821E-01  0.217075892E-01
   H -0.894656379E+01  0.113377695E+01  0.749494413E+00
   H  0.886933002E+01 -0.116567264E+01  0.362043790E+00
     4
 # iter = 31000  time[fs]=31.00000
   C -0.167034307E+01 -0.101517997E+00 -0.105204274E+00
   C  0.169991434E+01  0.640705412E-01  0.222318754E-01
   H -0.929100345E+01  0.117798909E+01  0.778295663E+00
   H  0.920335710E+01 -0.121212768E+01  0.374475843E+00
     4
 # iter = 31500  time[fs]=31.50000
   C -0.174054614E+01 -0.106786040E+00 -0.109793529E+00
   C  0.176899101E+01  0.678609458E-01  0.228005613E-01
   H -0.963638540E+01  0.122233690E+01  0.807183588E+00
   H  0.953836133E+01 -0.125872526E+01  0.386946140E+00
     4
 # iter = 32000  time[fs]=32.00000
   C -0.181190619E+01 -0.112117763E+00 -0.114433351E+00
   C  0.183922187E+01  0.717155891E-01  0.234101211E-01
   H -0.998264400E+01  0.126681117E+01  0.836152281E+00
   H  0.987427557E+01 -0.130545600E+01  0.399451994E+00
     4
 # iter = 32500  time[fs]=32.50000
   C -0.188433484E+01 -0.117509029E+00 -0.119119924E+00
   C  0.191051867E+01  0.756303176E-01  0.240573818E-01
   H -0.103297202E+02  0.131140362E+01  0.865196425E+00
   H  0.102110393E+02 -0.135231143E+01  0.411990989E+00
     4
 # iter = 33000  time[fs]=33.00000
   C -0.195775232E+01 -0.122956026E+00 -0.123849805E+00
   C  0.198280177E+01  0.796013057E-01  0.247394841E-01
   H -0.106775605E+02  0.135610673E+01  0.894311213E+00
   H  0.105485977E+02 -0.139928386E+01  0.424560945E+00
     4
 # iter = 33500  time[fs]=33.50000
   C -0.203208653E+01 -0.128455246E+00 -0.128619887E+00
   C  0.205599916E+01  0.836250302E-01  0.254538474E-01
   H -0.110261167E+02  0.140091369E+01  0.923492288E+00
   H  0.108869012E+02 -0.144636629E+01  0.437159889E+00
     4
 # iter = 34000  time[fs]=34.00000
   C -0.210727218E+01 -0.134003462E+00 -0.133427357E+00
   C  0.213004566E+01  0.876982462E-01  0.261981388E-01
   H -0.113753448E+02  0.144581831E+01  0.952735686E+00
   H  0.112259044E+02 -0.149355236E+01  0.449786029E+00
     4
 # iter = 34500  time[fs]=34.50000
   C -0.218325006E+01 -0.139597697E+00 -0.138269665E+00
   C  0.220488216E+01  0.918179638E-01  0.269702455E-01
   H -0.117252047E+02  0.149081495E+01  0.982037791E+00
   H  0.115655663E+02 -0.154083620E+01  0.462437734E+00
     4
 # iter = 35000  time[fs]=35.00000
   C -0.225996637E+01 -0.145235211E+00 -0.143144494E+00
   C  0.228045496E+01  0.959814262E-01  0.277682507E-01
   H -0.120756598E+02  0.153589841E+01  0.101139530E+01
   H  0.119058489E+02 -0.158821248E+01  0.475113513E+00
     4
 # iter = 35500  time[fs]=35.50000
   C -0.233737214E+01 -0.150913474E+00 -0.148049735E+00
   C  0.235671518E+01  0.100186090E+00  0.285904120E-01
   H -0.124266765E+02  0.158106397E+01  0.104080516E+01
   H  0.122467177E+02 -0.163567626E+01  0.487812003E+00
     4
 # iter = 36000  time[fs]=36.00000
   C -0.241542274E+01 -0.156630153E+00 -0.152983466E+00
   C  0.243361826E+01  0.104429605E+00  0.294351429E-01
   H -0.127782240E+02  0.162630724E+01  0.107026460E+01
   H  0.125881409E+02 -0.168322301E+01  0.500531950E+00
     4
 # iter = 36500  time[fs]=36.50000
   C -0.249407738E+01 -0.162383090E+00 -0.157943927E+00
   C  0.251112350E+01  0.108709801E+00  0.303009960E-01
   H -0.131302740E+02  0.167162421E+01  0.109977105E+01
   H  0.129300891E+02 -0.173084852E+01  0.513272202E+00
     4
 # iter = 37000  time[fs]=37.00000
   C -0.257329876E+01 -0.168170288E+00 -0.162929510E+00
   C  0.258919367E+01  0.113024669E+00  0.311866483E-01
   H -0.134828003E+02  0.171701115E+01  0.112932212E+01
   H  0.132725352E+02 -0.177854891E+01  0.526031698E+00
     4
 # iter = 37500  time[fs]=37.50000
   C -0.265305266E+01 -0.173989900E+00 -0.167938738E+00
   C  0.266779464E+01  0.117372345E+00  0.320908885E-01
   H -0.138357786E+02  0.176246463E+01  0.115891561E+01
   H  0.136154542E+02 -0.182632059E+01  0.538809455E+00
     4
 # iter = 38000  time[fs]=38.00000
   C -0.273330769E+01 -0.179840210E+00 -0.172970254E+00
   C  0.274689506E+01  0.121751103E+00  0.330126056E-01
   H -0.141891866E+02  0.180798144E+01  0.118854949E+01
   H  0.139588229E+02 -0.187416020E+01  0.551604564E+00
     4
 # iter = 38500  time[fs]=38.50000
   C -0.281403495E+01 -0.185719629E+00 -0.178022810E+00
   C  0.282646612E+01  0.126159341E+00  0.339507785E-01
   H -0.145430035E+02  0.185355861E+01  0.121822186E+01
   H  0.143026196E+02 -0.192206463E+01  0.564416183E+00
     4
 # iter = 39000  time[fs]=39.00000
   C -0.289520782E+01 -0.191626678E+00 -0.183095253E+00
   C  0.290648126E+01  0.130595567E+00  0.349044675E-01
   H -0.148972099E+02  0.189919339E+01  0.124793096E+01
   H  0.146468243E+02 -0.197003096E+01  0.577243527E+00
     4
 # iter = 39500  time[fs]=39.50000
   C -0.297680175E+01 -0.197559979E+00 -0.188186518E+00
   C  0.298691597E+01  0.135058395E+00  0.358728062E-01
   H -0.152517878E+02  0.194488319E+01  0.127767513E+01
   H  0.149914183E+02 -0.201805650E+01  0.590085868E+00
     4
 # iter = 40000  time[fs]=40.00000
   C -0.305879403E+01 -0.203518252E+00 -0.193295622E+00
   C  0.306774759E+01  0.139546530E+00  0.368549945E-01
   H -0.156067205E+02  0.199062561E+01  0.130745285E+01
   H  0.153363841E+02 -0.206613869E+01  0.602942526E+00
     4
 # iter = 40500  time[fs]=40.50000
   C -0.314116364E+01 -0.209500301E+00 -0.198421650E+00
   C  0.314895518E+01  0.144058768E+00  0.378502923E-01
   H -0.159619922E+02  0.203641839E+01  0.133726268E+01
   H  0.156817055E+02 -0.211427517E+01  0.615812864E+00
     4
 # iter = 41000  time[fs]=41.00000
   C -0.322389108E+01 -0.215505009E+00 -0.203563756E+00
   C  0.323051928E+01  0.148593981E+00  0.388580138E-01
   H -0.163175882E+02  0.208225941E+01  0.136710326E+01
   H  0.160273672E+02 -0.216246369E+01  0.628696291E+00
     4
 # iter = 41500  time[fs]=41.50000
   C -0.330695827E+01 -0.221531333E+00 -0.208721152E+00
   C  0.331242184E+01  0.153151117E+00  0.398775232E-01
   H -0.166734949E+02  0.212814671E+01  0.139697334E+01
   H  0.163733548E+02 -0.221070216E+01  0.641592248E+00
     4
 # iter = 42000  time[fs]=42.00000
   C -0.339034838E+01 -0.227578295E+00 -0.213893105E+00
   C  0.339464608E+01  0.157729189E+00  0.409082293E-01
   H -0.170296992E+02  0.217407842E+01  0.142687173E+01
   H  0.167196548E+02 -0.225898861E+01  0.654500215E+00
     4
 # iter = 42500  time[fs]=42.50000
   C -0.347404573E+01 -0.233644981E+00 -0.219078930E+00
   C  0.347717638E+01  0.162327272E+00  0.419495822E-01
   H -0.173861891E+02  0.222005279E+01  0.145679731E+01
   H  0.170662548E+02 -0.230732118E+01  0.667419700E+00
     4
 # iter = 43000  time[fs]=43.00000
   C -0.355803572E+01 -0.239730531E+00 -0.224277990E+00
   C  0.355999817E+01  0.166944501E+00  0.430010697E-01
   H -0.177429532E+02  0.226606817E+01  0.148674903E+01
   H  0.174131427E+02 -0.235569812E+01  0.680350245E+00
     4
 # iter = 43500  time[fs]=43.50000
   C -0.364230470E+01 -0.245834141E+00 -0.229489687E+00
   C  0.364309784E+01  0.171580060E+00  0.440622135E-01
   H -0.180999808E+02  0.231212300E+01  0.151672589E+01
   H  0.177603075E+02 -0.240411778E+01  0.693291414E+00
     4
 # iter = 44000  time[fs]=44.00000
   C -0.372683993E+01 -0.251955051E+00 -0.234713463E+00
   C  0.372646268E+01  0.176233185E+00  0.451325673E-01
   H -0.184572617E+02  0.235821582E+01  0.154672697E+01
   H  0.181077384E+02 -0.245257859E+01  0.706242799E+00
     4
 # iter = 44500  time[fs]=44.50000
   C -0.381162946E+01 -0.258092550E+00 -0.239948795E+00
   C  0.381008079E+01  0.180903153E+00  0.462117132E-01
   H -0.188147863E+02  0.240434524E+01  0.157675138E+01
   H  0.184554256E+02 -0.250107908E+01  0.719204013E+00
     4
 # iter = 45000  time[fs]=45.00000
   C -0.389666212E+01 -0.264245964E+00 -0.245195190E+00
   C  0.389394101E+01  0.185589287E+00  0.472992602E-01
   H -0.191725457E+02  0.245050995E+01  0.160679828E+01
   H  0.188033597E+02 -0.254961785E+01  0.732174693E+00
     4
 # iter = 45500  time[fs]=45.50000
   C -0.398192741E+01 -0.270414663E+00 -0.250452188E+00
   C  0.397803289E+01  0.190290947E+00  0.483948415E-01
   H -0.195305314E+02  0.249670870E+01  0.163686687E+01
   H  0.191515317E+02 -0.259819357E+01  0.745154493E+00
     4
 # iter = 46000  time[fs]=46.00000
   C -0.406741548E+01 -0.276598047E+00 -0.255719354E+00
   C  0.406234660E+01  0.195007528E+00  0.494981128E-01
   H -0.198887351E+02  0.254294031E+01  0.166695642E+01
   H  0.194999331E+02 -0.264680497E+01  0.758143087E+00
     4
 # iter = 46500  time[fs]=46.50000
   C -0.415311705E+01 -0.282795553E+00 -0.260996281E+00
   C  0.414687290E+01  0.199738460E+00  0.506087507E-01
   H -0.202471493E+02  0.258920368E+01  0.169706620E+01
   H  0.198485560E+02 -0.269545088E+01  0.771140167E+00
     4
 # iter = 47000  time[fs]=47.00000
   C -0.423902340E+01 -0.289006647E+00 -0.266282582E+00
   C  0.423160310E+01  0.204483203E+00  0.517264507E-01
   H -0.206057668E+02  0.263549773E+01  0.172719553E+01
   H  0.201973928E+02 -0.274413014E+01  0.784145438E+00
     4
 # iter = 47500  time[fs]=47.50000
   C -0.432512632E+01 -0.295230824E+00 -0.271577894E+00
   C  0.431652899E+01  0.209241245E+00  0.528509263E-01
   H -0.209645805E+02  0.268182146E+01  0.175734378E+01
   H  0.205464362E+02 -0.279284168E+01  0.797158622E+00
     4
 # iter = 48000  time[fs]=48.00000
   C -0.441141804E+01 -0.301467606E+00 -0.276881873E+00
   C  0.440164286E+01  0.214012104E+00  0.539819074E-01
   H -0.213235840E+02  0.272817391E+01  0.178751033E+01
   H  0.208956794E+02 -0.284158447E+01  0.810179455E+00
     4
 # iter = 48500  time[fs]=48.50000
   C -0.449789125E+01 -0.307716540E+00 -0.282194197E+00
   C  0.448693741E+01  0.218795320E+00  0.551191390E-01
   H -0.216827711E+02  0.277455415E+01  0.181769460E+01
   H  0.212451158E+02 -0.289035753E+01  0.823207686E+00
     4
 # iter = 49000  time[fs]=49.00000
   C -0.458453904E+01 -0.313977196E+00 -0.287514557E+00
   C  0.457240574E+01  0.223590458E+00  0.562623803E-01
   H -0.220421357E+02  0.282096133E+01  0.184789603E+01
   H  0.215947393E+02 -0.293915992E+01  0.836243074E+00
     4
 # iter = 49500  time[fs]=49.50000
   C -0.467135486E+01 -0.320249165E+00 -0.292842662E+00
   C  0.465804134E+01  0.228397104E+00  0.574114036E-01
   H -0.224016723E+02  0.286739461E+01  0.187811409E+01
   H  0.219445440E+02 -0.298799075E+01  0.849285392E+00
     4
 # iter = 50000  time[fs]=50.00000
   C -0.475833251E+01 -0.326532061E+00 -0.298178238E+00
   C  0.474383802E+01  0.233214867E+00  0.585659937E-01
   H -0.227613754E+02  0.291385319E+01  0.190834828E+01
   H  0.222945241E+02 -0.303684917E+01  0.862334423E+00
     4
 # iter = 50500  time[fs]=50.50000
   C -0.484546612E+01 -0.332825513E+00 -0.303521022E+00
   C  0.482978995E+01  0.238043372E+00  0.597259464E-01
   H -0.231212400E+02  0.296033632E+01  0.193859812E+01
   H  0.226446743E+02 -0.308573436E+01  0.875389959E+00
     4
 # iter = 51000  time[fs]=51.00000
   C -0.493275014E+01 -0.339129172E+00 -0.308870766E+00
   C  0.491589158E+01  0.242882264E+00  0.608910685E-01
   H -0.234812611E+02  0.300684328E+01  0.196886314E+01
   H  0.229949895E+02 -0.313464554E+01  0.888451802E+00
     4
 # iter = 51500  time[fs]=51.50000
   C -0.502017928E+01 -0.345442702E+00 -0.314227235E+00
   C  0.500213764E+01  0.247731204E+00  0.620611765E-01
   H -0.238414339E+02  0.305337337E+01  0.199914290E+01
   H  0.233454647E+02 -0.318358198E+01  0.901519763E+00
     4
 # iter = 52000  time[fs]=52.00000
   C -0.510774851E+01 -0.351765786E+00 -0.319590203E+00
   C  0.508852313E+01  0.252589869E+00  0.632360962E-01
   H -0.242017542E+02  0.309992593E+01  0.202943698E+01
   H  0.236960953E+02 -0.323254294E+01  0.914593662E+00
     4
 # iter = 52500  time[fs]=52.50000
   C -0.519545307E+01 -0.358098119E+00 -0.324959458E+00
   C  0.517504330E+01  0.257457953E+00  0.644156621E-01
   H -0.245622175E+02  0.314650033E+01  0.205974498E+01
   H  0.240468767E+02 -0.328152776E+01  0.927673326E+00
     4
 # iter = 53000  time[fs]=53.00000
   C -0.528328843E+01 -0.364439413E+00 -0.330334796E+00
   C  0.526169363E+01  0.262335160E+00  0.655997169E-01
   H -0.249228197E+02  0.319309595E+01  0.209006651E+01
   H  0.243978046E+02 -0.333053578E+01  0.940758589E+00
     4
 # iter = 53500  time[fs]=53.50000
   C -0.537125026E+01 -0.370789390E+00 -0.335716022E+00
   C  0.534846982E+01  0.267221210E+00  0.667881109E-01
   H -0.252835570E+02  0.323971222E+01  0.212040119E+01
   H  0.247488750E+02 -0.337956636E+01  0.953849293E+00
     4
 # iter = 54000  time[fs]=54.00000
   C -0.545933444E+01 -0.377147786E+00 -0.341102953E+00
   C  0.543536776E+01  0.272115836E+00  0.679807014E-01
   H -0.256444256E+02  0.328634858E+01  0.215074868E+01
   H  0.251000838E+02 -0.342861890E+01  0.966945286E+00
     4
 # iter = 54500  time[fs]=54.50000
   C -0.554753705E+01 -0.383514348E+00 -0.346495411E+00
   C  0.552238355E+01  0.277018780E+00  0.691773526E-01
   H -0.260054218E+02  0.333300449E+01  0.218110862E+01
   H  0.254514273E+02 -0.347769282E+01  0.980046423E+00
     4
 # iter = 55000  time[fs]=55.00000
   C -0.563585435E+01 -0.389888835E+00 -0.351893228E+00
   C  0.560951346E+01  0.281929799E+00  0.703779348E-01
   H -0.263665421E+02  0.337967943E+01  0.221148069E+01
   H  0.258029019E+02 -0.352678757E+01  0.993152563E+00
     4
 # iter = 55500  time[fs]=55.50000
   C -0.572428277E+01 -0.396271014E+00 -0.357296242E+00
   C  0.569675393E+01  0.286848656E+00  0.715823244E-01
   H -0.267277834E+02  0.342637290E+01  0.224186458E+01
   H  0.261545039E+02 -0.357590260E+01  0.100626357E+01
     4
 # iter = 56000  time[fs]=56.00000
   C -0.581281889E+01 -0.402660665E+00 -0.362704301E+00
   C  0.578410155E+01  0.291775127E+00  0.727904033E-01
   H -0.270891423E+02  0.347308444E+01  0.227225997E+01
   H  0.265062302E+02 -0.362503741E+01  0.101937932E+01
     4
 # iter = 56500  time[fs]=56.50000
   C -0.590145944E+01 -0.409057575E+00 -0.368117255E+00
   C  0.587155308E+01  0.296708997E+00  0.740020588E-01
   H -0.274506158E+02  0.351981359E+01  0.230266659E+01
   H  0.268580774E+02 -0.367419150E+01  0.103249969E+01
     4
 # iter = 57000  time[fs]=57.00000
   C -0.599020132E+01 -0.415461540E+00 -0.373534964E+00
   C  0.595910542E+01  0.301650058E+00  0.752171828E-01
   H -0.278122009E+02  0.356655989E+01  0.233308414E+01
   H  0.272100424E+02 -0.372336439E+01  0.104562455E+01
     4
 # iter = 57500  time[fs]=57.50000
   C -0.607904153E+01 -0.421872366E+00 -0.378957293E+00
   C  0.604675558E+01  0.306598113E+00  0.764356722E-01
   H -0.281738948E+02  0.361332294E+01  0.236351236E+01
   H  0.275621224E+02 -0.377255561E+01  0.105875380E+01
     4
 # iter = 58000  time[fs]=58.00000
   C -0.616797720E+01 -0.428289863E+00 -0.384384112E+00
   C  0.613450072E+01  0.311552971E+00  0.776574283E-01
   H -0.285356948E+02  0.366010231E+01  0.239395099E+01
   H  0.279143143E+02 -0.382176474E+01  0.107188733E+01
     4
 # iter = 58500  time[fs]=58.50000
   C -0.625700562E+01 -0.434713853E+00 -0.389815296E+00
   C  0.622233811E+01  0.316514448E+00  0.788823564E-01
   H -0.288975983E+02  0.370689762E+01  0.242439977E+01
   H  0.282666154E+02 -0.387099133E+01  0.108502501E+01
     4
 # iter = 59000  time[fs]=59.00000
   C -0.634612413E+01 -0.441144162E+00 -0.395250726E+00
   C  0.631026513E+01  0.321482371E+00  0.801103659E-01
   H -0.292596026E+02  0.375370849E+01  0.245485847E+01
   H  0.286190230E+02 -0.392023498E+01  0.109816677E+01
     4
 # iter = 59500  time[fs]=59.50000
   C -0.643533024E+01 -0.447580624E+00 -0.400690289E+00
   C  0.639827928E+01  0.326456569E+00  0.813413699E-01
   H -0.296217054E+02  0.380053455E+01  0.248532684E+01
   H  0.289715347E+02 -0.396949529E+01  0.111131249E+01
     4
 # iter = 60000  time[fs]=60.00000
   C -0.652462151E+01 -0.454023079E+00 -0.406133872E+00
   C  0.648637815E+01  0.331436879E+00  0.825752849E-01
   H -0.299839043E+02  0.384737543E+01  0.251580467E+01
   H  0.293241478E+02 -0.401877188E+01  0.112446208E+01
     4
 # iter = 60500  time[fs]=60.50000
   C -0.661399563E+01 -0.460471374E+00 -0.411581372E+00
   C  0.657455942E+01  0.336423147E+00  0.838120309E-01
   H -0.303461970E+02  0.389423082E+01  0.254629173E+01
   H  0.296768601E+02 -0.406806437E+01  0.113761545E+01
     4
 # iter = 61000  time[fs]=61.00000
   C -0.670345037E+01 -0.466925359E+00 -0.417032685E+00
   C  0.666282089E+01  0.341415221E+00  0.850515311E-01
   H -0.307085813E+02  0.394110036E+01  0.257678782E+01
   H  0.300296692E+02 -0.411737240E+01  0.115077251E+01
     4
 # iter = 61500  time[fs]=61.50000
   C -0.679298359E+01 -0.473384892E+00 -0.422487714E+00
   C  0.675116041E+01  0.346412955E+00  0.862937115E-01
   H -0.310710551E+02  0.398798376E+01  0.260729274E+01
   H  0.303825728E+02 -0.416669564E+01  0.116393318E+01
     4
 # iter = 62000  time[fs]=62.00000
   C -0.688259322E+01 -0.479849836E+00 -0.427946365E+00
   C  0.683957593E+01  0.351416211E+00  0.875385013E-01
   H -0.314336164E+02  0.403488068E+01  0.263780628E+01
   H  0.307355688E+02 -0.421603374E+01  0.117709737E+01
     4
 # iter = 62500  time[fs]=62.50000
   C -0.697227728E+01 -0.486320059E+00 -0.433408547E+00
   C  0.692806548E+01  0.356424854E+00  0.887858322E-01
   H -0.317962632E+02  0.408179085E+01  0.266832825E+01
   H  0.310886552E+02 -0.426538638E+01  0.119026501E+01
     4
 # iter = 63000  time[fs]=63.00000
   C -0.706203387E+01 -0.492795432E+00 -0.438874173E+00
   C  0.701662716E+01  0.361438754E+00  0.900356384E-01
   H -0.321589936E+02  0.412871397E+01  0.269885848E+01
   H  0.314418299E+02 -0.431475324E+01  0.120343601E+01
     4
 # iter = 63500  time[fs]=63.50000
   C -0.715186115E+01 -0.499275832E+00 -0.444343159E+00
   C  0.710525914E+01  0.366457785E+00  0.912878567E-01
   H -0.325218057E+02  0.417564976E+01  0.272939679E+01
   H  0.317950910E+02 -0.436413403E+01  0.121661031E+01
     4
 # iter = 64000  time[fs]=64.00000
   C -0.724175735E+01 -0.505761140E+00 -0.449815422E+00
   C  0.719395967E+01  0.371481827E+00  0.925424263E-01
   H -0.328846977E+02  0.422259795E+01  0.275994300E+01
   H  0.321484365E+02 -0.441352845E+01  0.122978782E+01
     4
 # iter = 64500  time[fs]=64.50000
   C -0.733172076E+01 -0.512251242E+00 -0.455290885E+00
   C  0.728272703E+01  0.376510763E+00  0.937992884E-01
   H -0.332476679E+02  0.426955828E+01  0.279049694E+01
   H  0.325018647E+02 -0.446293621E+01  0.124296849E+01
     4
 # iter = 65000  time[fs]=65.00000
   C -0.742174974E+01 -0.518746026E+00 -0.460769473E+00
   C  0.737155960E+01  0.381544479E+00  0.950583865E-01
   H -0.336107147E+02  0.431653049E+01  0.282105846E+01
   H  0.328553739E+02 -0.451235704E+01  0.125615224E+01
     4
 # iter = 65500  time[fs]=65.50000
   C -0.751184271E+01 -0.525245386E+00 -0.466251112E+00
   C  0.746045580E+01  0.386582868E+00  0.963196662E-01
   H -0.339738364E+02  0.436351435E+01  0.285162740E+01
   H  0.332089622E+02 -0.456179068E+01  0.126933900E+01
     4
 # iter = 66000  time[fs]=66.00000
   C -0.760199813E+01 -0.531749217E+00 -0.471735731E+00
   C  0.754941410E+01  0.391625823E+00  0.975830747E-01
   H -0.343370314E+02  0.441050961E+01  0.288220361E+01
   H  0.335626281E+02 -0.461123685E+01  0.128252872E+01
     4
 # iter = 66500  time[fs]=66.50000
   C -0.769221453E+01 -0.538257420E+00 -0.477223263E+00
   C  0.763843304E+01  0.396673243E+00  0.988485614E-01
   H -0.347002982E+02  0.445751605E+01  0.291278693E+01
   H  0.339163699E+02 -0.466069531E+01  0.129572134E+01
     4
 # iter = 67000  time[fs]=67.00000
   C -0.778249048E+01 -0.544769898E+00 -0.482713642E+00
   C  0.772751119E+01  0.401725029E+00  0.100116077E+00
   H -0.350636354E+02  0.450453343E+01  0.294337724E+01
   H  0.342701860E+02 -0.471016582E+01  0.130891679E+01
     4
 # iter = 67500  time[fs]=67.50000
   C -0.787282461E+01 -0.551286557E+00 -0.488206804E+00
   C  0.781664719E+01  0.406781085E+00  0.101385575E+00
   H -0.354270415E+02  0.455156154E+01  0.297397438E+01
   H  0.346240751E+02 -0.475964814E+01  0.132211501E+01
     4
 # iter = 68000  time[fs]=68.00000
   C -0.796321557E+01 -0.557807305E+00 -0.493702687E+00
   C  0.790583970E+01  0.411841321E+00  0.102657009E+00
   H -0.357905152E+02  0.459860018E+01  0.300457823E+01
   H  0.349780356E+02 -0.480914204E+01  0.133531595E+01
     4
 # iter = 68500  time[fs]=68.50000
   C -0.805366210E+01 -0.564332056E+00 -0.499201233E+00
   C  0.799508746E+01  0.416905645E+00  0.103930334E+00
   H -0.361540550E+02  0.464564913E+01  0.303518865E+01
   H  0.353320660E+02 -0.485864730E+01  0.134851956E+01
     4
 # iter = 69000  time[fs]=69.00000
   C -0.814416293E+01 -0.570860725E+00 -0.504702382E+00
   C  0.808438921E+01  0.421973971E+00  0.105205509E+00
   H -0.365176596E+02  0.469270820E+01  0.306580552E+01
   H  0.356861651E+02 -0.490816369E+01  0.136172579E+01
     4
 # iter = 69500  time[fs]=69.50000
   C -0.823471687E+01 -0.577393228E+00 -0.510206081E+00
   C  0.817374376E+01  0.427046216E+00  0.106482492E+00
   H -0.368813279E+02  0.473977720E+01  0.309642872E+01
   H  0.360403314E+02 -0.495769102E+01  0.137493457E+01
     4
 # iter = 70000  time[fs]=70.00000
   C -0.832532275E+01 -0.583929486E+00 -0.515712273E+00
   C  0.826314996E+01  0.432122298E+00  0.107761243E+00
   H -0.372450586E+02  0.478685593E+01  0.312705812E+01
   H  0.363945637E+02 -0.500722906E+01  0.138814587E+01
     4
 # iter = 70500  time[fs]=70.50000
   C -0.841597945E+01 -0.590469422E+00 -0.521220908E+00
   C  0.835260667E+01  0.437202139E+00  0.109041723E+00
   H -0.376088504E+02  0.483394422E+01  0.315769361E+01
   H  0.367488608E+02 -0.505677764E+01  0.140135963E+01
     4
 # iter = 71000  time[fs]=71.00000
   C -0.850668587E+01 -0.597012960E+00 -0.526731934E+00
   C  0.844211282E+01  0.442285661E+00  0.110323894E+00
   H -0.379727023E+02  0.488104189E+01  0.318833508E+01
   H  0.371032213E+02 -0.510633654E+01  0.141457581E+01
     4
 # iter = 71500  time[fs]=71.50000
   C -0.859744095E+01 -0.603560028E+00 -0.532245302E+00
   C  0.853166735E+01  0.447372791E+00  0.111607721E+00
   H -0.383366130E+02  0.492814876E+01  0.321898241E+01
   H  0.374576441E+02 -0.515590559E+01  0.142779436E+01
     4
 # iter = 72000  time[fs]=72.00000
   C -0.868824367E+01 -0.610110554E+00 -0.537760964E+00
   C  0.862126923E+01  0.452463456E+00  0.112893169E+00
   H -0.387005816E+02  0.497526467E+01  0.324963551E+01
   H  0.378121281E+02 -0.520548459E+01  0.144101524E+01
     4
 # iter = 72500  time[fs]=72.50000
   C -0.877909303E+01 -0.616664471E+00 -0.543278875E+00
   C  0.871091749E+01  0.457557587E+00  0.114180203E+00
   H -0.390646068E+02  0.502238946E+01  0.328029426E+01
   H  0.381666721E+02 -0.525507338E+01  0.145423841E+01
     4
 # iter = 73000  time[fs]=73.00000
   C -0.886998808E+01 -0.623221711E+00 -0.548798988E+00
   C  0.880061116E+01  0.462655116E+00  0.115468790E+00
   H -0.394286877E+02  0.506952296E+01  0.331095856E+01
   H  0.385212750E+02 -0.530467177E+01  0.146746382E+01
     4
 # iter = 73500  time[fs]=73.50000
   C -0.896092788E+01 -0.629782210E+00 -0.554321261E+00
   C  0.889034931E+01  0.467755977E+00  0.116758898E+00
   H -0.397928233E+02  0.511666503E+01  0.334162833E+01
   H  0.388759357E+02 -0.535427961E+01  0.148069143E+01
     4
 # iter = 74000  time[fs]=74.00000
   C -0.905191151E+01 -0.636345906E+00 -0.559845651E+00
   C  0.898013104E+01  0.472860106E+00  0.118050497E+00
   H -0.401570126E+02  0.516381550E+01  0.337230345E+01
   H  0.392306533E+02 -0.540389671E+01  0.149392120E+01
     4
 # iter = 74500  time[fs]=74.50000
   C -0.914293811E+01 -0.642912736E+00 -0.565372117E+00
   C  0.906995548E+01  0.477967441E+00  0.119343555E+00
   H -0.405212546E+02  0.521097424E+01  0.340298384E+01
   H  0.395854266E+02 -0.545352293E+01  0.150715309E+01
     4
 # iter = 75000  time[fs]=75.00000
   C -0.923400681E+01 -0.649482641E+00 -0.570900620E+00
   C  0.915982177E+01  0.483077920E+00  0.120638045E+00
   H -0.408855485E+02  0.525814111E+01  0.343366941E+01
   H  0.399402548E+02 -0.550315811E+01  0.152038708E+01
     4
 # iter = 75500  time[fs]=75.50000
   C -0.932511679E+01 -0.656055565E+00 -0.576431119E+00
   C  0.924972909E+01  0.488191487E+00  0.121933937E+00
   H -0.412498932E+02  0.530531595E+01  0.346436006E+01
   H  0.402951368E+02 -0.555280210E+01  0.153362311E+01
     4
 # iter = 76000  time[fs]=76.00000
   C -0.941626725E+01 -0.662631451E+00 -0.581963579E+00
   C  0.933967665E+01  0.493308082E+00  0.123231204E+00
   H -0.416142879E+02  0.535249865E+01  0.349505572E+01
   H  0.406500718E+02 -0.560245474E+01  0.154686116E+01
     4
 # iter = 76500  time[fs]=76.50000
   C -0.950745739E+01 -0.669210243E+00 -0.587497961E+00
   C  0.942966365E+01  0.498427651E+00  0.124529819E+00
   H -0.419787318E+02  0.539968906E+01  0.352575629E+01
   H  0.410050588E+02 -0.565211589E+01  0.156010118E+01
     4
 # iter = 77000  time[fs]=77.00000
   C -0.959868647E+01 -0.675791890E+00 -0.593034230E+00
   C  0.951968935E+01  0.503550140E+00  0.125829756E+00
   H -0.423432239E+02  0.544688706E+01  0.355646170E+01
   H  0.413600969E+02 -0.570178542E+01  0.157334316E+01
     4
 # iter = 77500  time[fs]=77.50000
   C -0.968995373E+01 -0.682376339E+00 -0.598572352E+00
   C  0.960975300E+01  0.508675495E+00  0.127130990E+00
   H -0.427077636E+02  0.549409252E+01  0.358717186E+01
   H  0.417151853E+02 -0.575146318E+01  0.158658704E+01
     4
 # iter = 78000  time[fs]=78.00000
   C -0.978125847E+01 -0.688963541E+00 -0.604112293E+00
   C  0.969985391E+01  0.513803666E+00  0.128433497E+00
   H -0.430723500E+02  0.554130532E+01  0.361788670E+01
   H  0.420703231E+02 -0.580114904E+01  0.159983281E+01
     4
 # iter = 78500  time[fs]=78.50000
   C -0.987259999E+01 -0.695553446E+00 -0.609654019E+00
   C  0.978999136E+01  0.518934602E+00  0.129737251E+00
   H -0.434369822E+02  0.558852533E+01  0.364860615E+01
   H  0.424255095E+02 -0.585084286E+01  0.161308043E+01
     4
 # iter = 79000  time[fs]=79.00000
   C -0.996397760E+01 -0.702146006E+00 -0.615197500E+00
   C  0.988016469E+01  0.524068256E+00  0.131042231E+00
   H -0.438016596E+02  0.563575246E+01  0.367933012E+01
   H  0.427807438E+02 -0.590054453E+01  0.162632986E+01
     4
 # iter = 79500  time[fs]=79.50000
   C -0.100553906E+02 -0.708741175E+00 -0.620742704E+00
   C  0.997037323E+01  0.529204579E+00  0.132348414E+00
   H -0.441663815E+02  0.568298657E+01  0.371005854E+01
   H  0.431360250E+02 -0.595025391E+01  0.163958109E+01
     4
 # iter = 80000  time[fs]=80.00000
   C -0.101468385E+02 -0.715338908E+00 -0.626289600E+00
   C  0.100606164E+02  0.534343525E+00  0.133655777E+00
   H -0.445311470E+02  0.573022756E+01  0.374079135E+01
   H  0.434913525E+02 -0.599997089E+01  0.165283407E+01
