     4
 # iter = 25000  time[fs]=25.00000
   C -0.978549690E+00  0.225254675E-01 -0.777500718E-02
   C  0.972218100E+00  0.203118267E-01 -0.229690772E-01
   H -0.530846839E+01 -0.350319322E+00  0.558363484E+00
   H  0.524668655E+01 -0.265363470E+00 -0.426284508E+00
     4
 # iter = 25500  time[fs]=25.50000
   C -0.102254580E+01  0.254334305E-01 -0.855652613E-02
   C  0.101211991E+01  0.221312825E-01 -0.207921583E-01
   H -0.563520433E+01 -0.368743987E+00  0.594922342E+00
   H  0.556130929E+01 -0.280361668E+00 -0.449935291E+00
     4
 # iter = 26000  time[fs]=26.00000
   C -0.106956938E+01  0.283606814E-01 -0.933207740E-02
   C  0.105504136E+01  0.239586720E-01 -0.186269573E-01
   H -0.596456272E+01 -0.387350964E+00  0.631784512E+00
   H  0.587864852E+01 -0.295504213E+00 -0.473820383E+00
     4
 # iter = 26500  time[fs]=26.50000
   C -0.111937243E+01  0.313064571E-01 -0.101064183E-01
   C  0.110073502E+01  0.257916855E-01 -0.164680871E-01
   H -0.629625783E+01 -0.406119292E+00  0.668916982E+00
   H  0.619841150E+01 -0.310775191E+00 -0.497914329E+00
     4
 # iter = 27000  time[fs]=27.00000
   C -0.117172293E+01  0.342699766E-01 -0.108833298E-01
   C  0.114896943E+01  0.276285247E-01 -0.143112356E-01
   H -0.663004743E+01 -0.425031435E+00  0.706291848E+00
   H  0.652034947E+01 -0.326161190E+00 -0.522195600E+00
     4
 # iter = 27500  time[fs]=27.50000
   C -0.122640607E+01  0.372504432E-01 -0.116657514E-01
   C  0.119953027E+01  0.294678002E-01 -0.121530110E-01
   H -0.696572450E+01 -0.444072570E+00  0.743885311E+00
   H  0.684424945E+01 -0.341650799E+00 -0.546645823E+00
     4
 # iter = 28000  time[fs]=28.00000
   C -0.128322463E+01  0.402470532E-01 -0.124559167E-01
   C  0.125222076E+01  0.313084471E-01 -0.999079168E-02
   H -0.730311075E+01 -0.463230060E+00  0.781676915E+00
   H  0.716992775E+01 -0.357234229E+00 -0.571249202E+00
     4
 # iter = 28500  time[fs]=28.50000
   C -0.134199855E+01  0.432590054E-01 -0.132554786E-01
   C  0.130686126E+01  0.331496559E-01 -0.782258873E-02
   H -0.764205165E+01 -0.482493039E+00  0.819648945E+00
   H  0.749722491E+01 -0.372903019E+00 -0.595992050E+00
     4
 # iter = 29000  time[fs]=29.00000
   C -0.140256417E+01  0.462855111E-01 -0.140656203E-01
   C  0.136328849E+01  0.349908177E-01 -0.564692635E-02
   H -0.798241244E+01 -0.501852101E+00  0.857785962E+00
   H  0.782600167E+01 -0.388649805E+00 -0.620862440E+00
     4
 # iter = 29500  time[fs]=29.50000
   C -0.146477314E+01  0.493258024E-01 -0.148871504E-01
   C  0.142135443E+01  0.368314798E-01 -0.346273959E-02
   H -0.832407489E+01 -0.521299045E+00  0.896074427E+00
   H  0.815613572E+01 -0.404468137E+00 -0.645849909E+00
     4
 # iter = 30000  time[fs]=30.00000
   C -0.152849128E+01  0.523791380E-01 -0.157205822E-01
   C  0.148092520E+01  0.386713106E-01 -0.126928937E-02
   H -0.866693474E+01 -0.540826681E+00  0.934502404E+00
   H  0.848751910E+01 -0.420352335E+00 -0.670945232E+00
     4
 # iter = 30500  time[fs]=30.50000
   C -0.159359730E+01  0.554448080E-01 -0.165661983E-01
   C  0.154187983E+01  0.405100726E-01  0.933907188E-03
   H -0.901089964E+01 -0.560428669E+00  0.973059315E+00
   H  0.882005609E+01 -0.436297370E+00 -0.696140233E+00
     4
 # iter = 31000  time[fs]=31.00000
   C -0.165998167E+01  0.585221367E-01 -0.174241038E-01
   C  0.160410900E+01  0.423476006E-01  0.314713327E-02
   H -0.935588739E+01 -0.580099387E+00  0.101173574E+01
   H  0.915366139E+01 -0.452298769E+00 -0.721427633E+00
     4
 # iter = 31500  time[fs]=31.50000
   C -0.172754538E+01  0.616104836E-01 -0.182942682E-01
   C  0.166751397E+01  0.441837847E-01  0.537051777E-02
   H -0.970182450E+01 -0.599833831E+00  0.105052326E+01
   H  0.948825870E+01 -0.468352533E+00 -0.746800921E+00
     4
 # iter = 32000  time[fs]=32.00000
   C -0.179619898E+01  0.647092445E-01 -0.191765594E-01
   C  0.173200548E+01  0.460185574E-01  0.760407152E-02
   H -0.100486451E+02 -0.619627527E+00  0.108941432E+01
   H  0.982377955E+01 -0.484455078E+00 -0.772254252E+00
     4
 # iter = 32500  time[fs]=32.50000
   C -0.186586151E+01  0.678178508E-01 -0.200707699E-01
   C  0.179750278E+01  0.478518831E-01  0.984771598E-02
   H -0.103962897E+02 -0.639476454E+00  0.112840210E+01
   H  0.101601622E+02 -0.500603172E+00 -0.797782360E+00
     4
 # iter = 33000  time[fs]=33.00000
   C -0.193645965E+01  0.709357685E-01 -0.209766382E-01
   C  0.186393272E+01  0.496837507E-01  0.121013060E-01
   H -0.107447048E+02 -0.659376990E+00  0.116748043E+01
   H  0.104973508E+02 -0.516793897E+00 -0.823380481E+00
     4
 # iter = 33500  time[fs]=33.50000
   C -0.200792690E+01  0.740624974E-01 -0.218938643E-01
   C  0.193122899E+01  0.515141668E-01  0.143646474E-01
   H -0.110938418E+02 -0.679325859E+00  0.120664373E+01
   H  0.108352949E+02 -0.533024605E+00 -0.849044293E+00
     4
 # iter = 34000  time[fs]=34.00000
   C -0.208020288E+01  0.771975689E-01 -0.228221232E-01
   C  0.199933134E+01  0.533431515E-01  0.166375114E-01
   H -0.114436564E+02 -0.699320087E+00  0.124588692E+01
   H  0.111739482E+02 -0.549292888E+00 -0.874769863E+00
     4
 # iter = 34500  time[fs]=34.50000
   C -0.215323266E+01  0.803405447E-01 -0.237610741E-01
   C  0.206818499E+01  0.551707343E-01  0.189196450E-01
   H -0.117941083E+02 -0.719356967E+00  0.128520534E+01
   H  0.115132689E+02 -0.565596549E+00 -0.900553601E+00
     4
 # iter = 35000  time[fs]=35.00000
   C -0.222696622E+01  0.834910150E-01 -0.247103682E-01
   C  0.213774005E+01  0.569969519E-01  0.212107797E-01
   H -0.121451607E+02 -0.739434029E+00  0.132459474E+01
   H  0.118532185E+02 -0.581933579E+00 -0.926392221E+00
     4
 # iter = 35500  time[fs]=35.50000
   C -0.230135790E+01  0.866485967E-01 -0.256696541E-01
   C  0.220795099E+01  0.588218450E-01  0.235106380E-01
   H -0.124967798E+02 -0.759549010E+00  0.136405124E+01
   H  0.121937618E+02 -0.598302133E+00 -0.952282709E+00
     4
 # iter = 36000  time[fs]=36.00000
   C -0.237636598E+01  0.898129316E-01 -0.266385826E-01
   C  0.227877618E+01  0.606454579E-01  0.258189383E-01
   H -0.128489345E+02 -0.779699835E+00  0.140357124E+01
   H  0.125348665E+02 -0.614700518E+00 -0.978222293E+00
     4
 # iter = 36500  time[fs]=36.50000
   C -0.245195226E+01  0.929836848E-01 -0.276168093E-01
   C  0.235017755E+01  0.624678360E-01  0.281353987E-01
   H -0.132015964E+02 -0.799884595E+00  0.144315143E+01
   H  0.128765026E+02 -0.631127172E+00 -0.100420842E+01
     4
 # iter = 37000  time[fs]=37.00000
   C -0.252808173E+01  0.961605431E-01 -0.286039972E-01
   C  0.242212017E+01  0.642890259E-01  0.304597402E-01
   H -0.135547391E+02 -0.820101529E+00  0.148278876E+01
   H  0.132186427E+02 -0.647580653E+00 -0.103023872E+01
     4
 # iter = 37500  time[fs]=37.50000
   C -0.260472220E+01  0.993432132E-01 -0.295998183E-01
   C  0.249457195E+01  0.661090739E-01  0.327916881E-01
   H -0.139083381E+02 -0.840349011E+00  0.152248041E+01
   H  0.135612612E+02 -0.664059626E+00 -0.105631101E+01
     4
 # iter = 38000  time[fs]=38.00000
   C -0.268184409E+01  0.102531421E+00 -0.306039549E-01
   C  0.256750339E+01  0.679280259E-01  0.351309743E-01
   H -0.142623709E+02 -0.860625533E+00  0.156222375E+01
   H  0.139043347E+02 -0.680562854E+00 -0.108242327E+01
     4
 # iter = 38500  time[fs]=38.50000
   C -0.275942013E+01  0.105724908E+00 -0.316161002E-01
   C  0.264088729E+01  0.697459270E-01  0.374773381E-01
   H -0.146168166E+02 -0.880929700E+00  0.160201635E+01
   H  0.142478412E+02 -0.697089187E+00 -0.110857362E+01
     4
 # iter = 39000  time[fs]=39.00000
   C -0.283742515E+01  0.108923435E+00 -0.326359586E-01
   C  0.271469857E+01  0.715628207E-01  0.398305267E-01
   H -0.149716556E+02 -0.901260212E+00  0.164185593E+01
   H  0.145917603E+02 -0.713637555E+00 -0.113476029E+01
     4
 # iter = 39500  time[fs]=39.50000
   C -0.291583589E+01  0.112126774E+00 -0.336632460E-01
   C  0.278891403E+01  0.733787497E-01  0.421902961E-01
   H -0.153268697E+02 -0.921615860E+00  0.168174038E+01
   H  0.149360730E+02 -0.730206962E+00 -0.116098165E+01
     4
 # iter = 40000  time[fs]=40.00000
   C -0.299463081E+01  0.115334713E+00 -0.346976899E-01
   C  0.286351220E+01  0.751937547E-01  0.445564111E-01
   H -0.156824422E+02 -0.941995517E+00  0.172166774E+01
   H  0.152807617E+02 -0.746796475E+00 -0.118723618E+01
     4
 # iter = 40500  time[fs]=40.50000
   C -0.307378994E+01  0.118547053E+00 -0.357390290E-01
   C  0.293847318E+01  0.770078751E-01  0.469286455E-01
   H -0.160383571E+02 -0.962398129E+00  0.176163613E+01
   H  0.156258097E+02 -0.763405225E+00 -0.121352245E+01
     4
 # iter = 41000  time[fs]=41.00000
   C -0.315329476E+01  0.121763606E+00 -0.367870135E-01
   C  0.301377849E+01  0.788211485E-01  0.493067819E-01
   H -0.163945996E+02 -0.982822711E+00  0.180164385E+01
   H  0.159712016E+02 -0.780032397E+00 -0.123983911E+01
     4
 # iter = 41500  time[fs]=41.50000
   C -0.323312803E+01  0.124984195E+00 -0.378414041E-01
   C  0.308941095E+01  0.806336111E-01  0.516906121E-01
   H -0.167511559E+02 -0.100326834E+01  0.184168927E+01
   H  0.163169229E+02 -0.796677225E+00 -0.126618493E+01
     4
 # iter = 42000  time[fs]=42.00000
   C -0.331327370E+01  0.128208654E+00 -0.389019723E-01
   C  0.316535456E+01  0.824452972E-01  0.540799360E-01
   H -0.171080129E+02 -0.102373415E+01  0.188177085E+01
   H  0.166629599E+02 -0.813338991E+00 -0.129255870E+01
     4
 # iter = 42500  time[fs]=42.50000
   C -0.339371682E+01  0.131436826E+00 -0.399684994E-01
   C  0.324159442E+01  0.842562397E-01  0.564745625E-01
   H -0.174651585E+02 -0.104421933E+01  0.192188717E+01
   H  0.170092998E+02 -0.830017021E+00 -0.131895934E+01
     4
 # iter = 43000  time[fs]=43.00000
   C -0.347444343E+01  0.134668562E+00 -0.410407769E-01
   C  0.331811661E+01  0.860664699E-01  0.588743082E-01
   H -0.178225810E+02 -0.106472311E+01  0.196203687E+01
   H  0.173559306E+02 -0.846710679E+00 -0.134538578E+01
     4
 # iter = 43500  time[fs]=43.50000
   C -0.355544048E+01  0.137903723E+00 -0.421186053E-01
   C  0.339490813E+01  0.878760177E-01  0.612789979E-01
   H -0.181802698E+02 -0.108524476E+01  0.200221869E+01
   H  0.177028409E+02 -0.863419366E+00 -0.137183706E+01
     4
 # iter = 44000  time[fs]=44.00000
   C -0.363669575E+01  0.141142177E+00 -0.432017941E-01
   C  0.347195681E+01  0.896849113E-01  0.636884638E-01
   H -0.185382146E+02 -0.110578363E+01  0.204243141E+01
   H  0.180500201E+02 -0.880142516E+00 -0.139831224E+01
     4
 # iter = 44500  time[fs]=44.50000
   C -0.371819781E+01  0.144383799E+00 -0.442901614E-01
   C  0.354925124E+01  0.914931780E-01  0.661025455E-01
   H -0.188964057E+02 -0.112633905E+01  0.208267391E+01
   H  0.183974580E+02 -0.896879595E+00 -0.142481043E+01
     4
 # iter = 45000  time[fs]=45.00000
   C -0.379993594E+01  0.147628471E+00 -0.453835335E-01
   C  0.362678074E+01  0.933008432E-01  0.685210894E-01
   H -0.192548340E+02 -0.114691042E+01  0.212294511E+01
   H  0.187451451E+02 -0.913630099E+00 -0.145133082E+01
     4
 # iter = 45500  time[fs]=45.50000
   C -0.388190004E+01  0.150876080E+00 -0.464817441E-01
   C  0.370453525E+01  0.951079315E-01  0.709439487E-01
   H -0.196134910E+02 -0.116749717E+01  0.216324400E+01
   H  0.190930724E+02 -0.930393549E+00 -0.147787262E+01
     4
 # iter = 46000  time[fs]=46.00000
   C -0.396408066E+01  0.154126520E+00 -0.475846346E-01
   C  0.378250535E+01  0.969144660E-01  0.733709830E-01
   H -0.199723684E+02 -0.118809876E+01  0.220356960E+01
   H  0.194412313E+02 -0.947169492E+00 -0.150443507E+01
     4
 # iter = 46500  time[fs]=46.50000
   C -0.404646888E+01  0.157379690E+00 -0.486920534E-01
   C  0.386068216E+01  0.987204689E-01  0.758020577E-01
   H -0.203314586E+02 -0.120871467E+01  0.224392101E+01
   H  0.197896137E+02 -0.963957499E+00 -0.153101748E+01
     4
 # iter = 47000  time[fs]=47.00000
   C -0.412905630E+01  0.160635495E+00 -0.498038552E-01
   C  0.393905730E+01  0.100525961E+00  0.782370443E-01
   H -0.206907542E+02 -0.122934441E+01  0.228429736E+01
   H  0.201382119E+02 -0.980757162E+00 -0.155761917E+01
     4
 # iter = 47500  time[fs]=47.50000
   C -0.421183502E+01  0.163893844E+00 -0.509199013E-01
   C  0.401762289E+01  0.102330963E+00  0.806758195E-01
   H -0.210502482E+02 -0.124998753E+01  0.232469782E+01
   H  0.204870186E+02 -0.997568092E+00 -0.158423950E+01
     4
 # iter = 48000  time[fs]=48.00000
   C -0.429479755E+01  0.167154650E+00 -0.520400591E-01
   C  0.409637148E+01  0.104135493E+00  0.831182655E-01
   H -0.214099340E+02 -0.127064357E+01  0.236512160E+01
   H  0.208360269E+02 -0.101438992E+01 -0.161087787E+01
     4
 # iter = 48500  time[fs]=48.50000
   C -0.437793683E+01  0.170417832E+00 -0.531642014E-01
   C  0.417529605E+01  0.105939569E+00  0.855642693E-01
   H -0.217698053E+02 -0.129131212E+01  0.240556797E+01
   H  0.211852301E+02 -0.103122230E+01 -0.163753370E+01
     4
 # iter = 49000  time[fs]=49.00000
   C -0.446124621E+01  0.173683309E+00 -0.542922066E-01
   C  0.425438994E+01  0.107743209E+00  0.880137227E-01
   H -0.221298562E+02 -0.131199277E+01  0.244603620E+01
   H  0.215346220E+02 -0.104806489E+01 -0.166420644E+01
     4
 # iter = 49500  time[fs]=49.50000
   C -0.454471935E+01  0.176951009E+00 -0.554239581E-01
   C  0.433364685E+01  0.109546429E+00  0.904665221E-01
   H -0.224900809E+02 -0.133268516E+01  0.248652563E+01
   H  0.218841967E+02 -0.106491738E+01 -0.169089556E+01
     4
 # iter = 50000  time[fs]=50.00000
   C -0.462835027E+01  0.180220860E+00 -0.565593442E-01
   C  0.441306083E+01  0.111349244E+00  0.929225679E-01
   H -0.228504740E+02 -0.135338891E+01  0.252703559E+01
   H  0.222339483E+02 -0.108177946E+01 -0.171760057E+01
     4
 # iter = 50500  time[fs]=50.50000
   C -0.471213329E+01  0.183492794E+00 -0.576982581E-01
   C  0.449262622E+01  0.113151670E+00  0.953817649E-01
   H -0.232110303E+02 -0.137410368E+01  0.256756548E+01
   H  0.225838714E+02 -0.109865084E+01 -0.174432098E+01
     4
 # iter = 51000  time[fs]=51.00000
   C -0.479606305E+01  0.186766746E+00 -0.588405970E-01
   C  0.457233767E+01  0.114953721E+00  0.978440216E-01
   H -0.235717448E+02 -0.139482914E+01  0.260811470E+01
   H  0.229339609E+02 -0.111553125E+01 -0.177105634E+01
     4
 # iter = 51500  time[fs]=51.50000
   C -0.488013442E+01  0.190042654E+00 -0.599862624E-01
   C  0.465219007E+01  0.116755410E+00  0.100309250E+00
   H -0.239326129E+02 -0.141556497E+01  0.264868269E+01
   H  0.232842118E+02 -0.113242042E+01 -0.179780621E+01
     4
 # iter = 52000  time[fs]=52.00000
   C -0.496434254E+01  0.193320459E+00 -0.611351599E-01
   C  0.473217859E+01  0.118556749E+00  0.102777367E+00
   H -0.242936299E+02 -0.143631088E+01  0.268926891E+01
   H  0.236346193E+02 -0.114931809E+01 -0.182457018E+01
     4
 # iter = 52500  time[fs]=52.50000
   C -0.504868280E+01  0.196600104E+00 -0.622871988E-01
   C  0.481229863E+01  0.120357752E+00  0.105248290E+00
   H -0.246547916E+02 -0.145706656E+01  0.272987283E+01
   H  0.239851789E+02 -0.116622403E+01 -0.185134784E+01
     4
 # iter = 53000  time[fs]=53.00000
   C -0.513315080E+01  0.199881536E+00 -0.634422920E-01
   C  0.489254581E+01  0.122158430E+00  0.107721942E+00
   H -0.250160938E+02 -0.147783175E+01  0.277049397E+01
   H  0.243358862E+02 -0.118313799E+01 -0.187813881E+01
     4
 # iter = 53500  time[fs]=53.50000
   C -0.521774235E+01  0.203164702E+00 -0.646003557E-01
   C  0.497291595E+01  0.123958795E+00  0.110198248E+00
   H -0.253775325E+02 -0.149860617E+01  0.281113185E+01
   H  0.246867370E+02 -0.120005977E+01 -0.190494272E+01
     4
 # iter = 54000  time[fs]=54.00000
   C -0.530245346E+01  0.206449553E+00 -0.657613094E-01
   C  0.505340508E+01  0.125758856E+00  0.112677137E+00
   H -0.257391040E+02 -0.151938958E+01  0.285178601E+01
   H  0.250377275E+02 -0.121698914E+01 -0.193175923E+01
     4
 # iter = 54500  time[fs]=54.50000
   C -0.538728032E+01  0.209736040E+00 -0.669250758E-01
   C  0.513400941E+01  0.127558624E+00  0.115158539E+00
   H -0.261008045E+02 -0.154018173E+01  0.289245602E+01
   H  0.253888536E+02 -0.123392589E+01 -0.195858799E+01
     4
 # iter = 55000  time[fs]=55.00000
   C -0.547221929E+01  0.213024119E+00 -0.680915805E-01
   C  0.521472532E+01  0.129358109E+00  0.117642387E+00
   H -0.264626306E+02 -0.156098239E+01  0.293314145E+01
   H  0.257401118E+02 -0.125086985E+01 -0.198542867E+01
     4
 # iter = 55500  time[fs]=55.50000
   C -0.555726692E+01  0.216313746E+00 -0.692607518E-01
   C  0.529554935E+01  0.131157321E+00  0.120128619E+00
   H -0.268245790E+02 -0.158179133E+01  0.297384190E+01
   H  0.260914985E+02 -0.126782080E+01 -0.201228097E+01
     4
 # iter = 56000  time[fs]=56.00000
   C -0.564241988E+01  0.219604878E+00 -0.704325207E-01
   C  0.537647820E+01  0.132956267E+00  0.122617171E+00
   H -0.271866464E+02 -0.160260834E+01  0.301455699E+01
   H  0.264430104E+02 -0.128477858E+01 -0.203914459E+01
     4
 # iter = 56500  time[fs]=56.50000
   C -0.572767500E+01  0.222897475E+00 -0.716068208E-01
   C  0.545750872E+01  0.134754958E+00  0.125107986E+00
   H -0.275488296E+02 -0.162343320E+01  0.305528633E+01
   H  0.267946442E+02 -0.130174300E+01 -0.206601923E+01
     4
 # iter = 57000  time[fs]=57.00000
   C -0.581302925E+01  0.226191498E+00 -0.727835881E-01
   C  0.553863788E+01  0.136553400E+00  0.127601005E+00
   H -0.279111258E+02 -0.164426572E+01  0.309602958E+01
   H  0.271463966E+02 -0.131871390E+01 -0.209290462E+01
     4
 # iter = 57500  time[fs]=57.50000
   C -0.589847973E+01  0.229486910E+00 -0.739627609E-01
   C  0.561986279E+01  0.138351602E+00  0.130096173E+00
   H -0.282735320E+02 -0.166510570E+01  0.313678638E+01
   H  0.274982648E+02 -0.133569112E+01 -0.211980050E+01
     4
 # iter = 58000  time[fs]=58.00000
   C -0.598402365E+01  0.232783674E+00 -0.751442798E-01
   C  0.570118069E+01  0.140149571E+00  0.132593438E+00
   H -0.286360455E+02 -0.168595297E+01  0.317755641E+01
   H  0.278502459E+02 -0.135267450E+01 -0.214670660E+01
     4
 # iter = 58500  time[fs]=58.50000
   C -0.606965835E+01  0.236081757E+00 -0.763280873E-01
   C  0.578258891E+01  0.141947315E+00  0.135092748E+00
   H -0.289986636E+02 -0.170680733E+01  0.321833933E+01
   H  0.282023369E+02 -0.136966389E+01 -0.217362267E+01
     4
 # iter = 59000  time[fs]=59.00000
   C -0.615538127E+01  0.239381125E+00 -0.775141282E-01
   C  0.586408492E+01  0.143744841E+00  0.137594053E+00
   H -0.293613837E+02 -0.172766863E+01  0.325913485E+01
   H  0.285545353E+02 -0.138665915E+01 -0.220054848E+01
     4
 # iter = 59500  time[fs]=59.50000
   C -0.624118996E+01  0.242681746E+00 -0.787023490E-01
   C  0.594566626E+01  0.145542154E+00  0.140097305E+00
   H -0.297242034E+02 -0.174853669E+01  0.329994266E+01
   H  0.289068385E+02 -0.140366013E+01 -0.222748380E+01
     4
 # iter = 60000  time[fs]=60.00000
   C -0.632708207E+01  0.245983588E+00 -0.798926981E-01
   C  0.602733060E+01  0.147339262E+00  0.142602459E+00
   H -0.300871204E+02 -0.176941136E+01  0.334076248E+01
   H  0.292592438E+02 -0.142066671E+01 -0.225442841E+01
     4
 # iter = 60500  time[fs]=60.50000
   C -0.641305533E+01  0.249286623E+00 -0.810851256E-01
   C  0.610907569E+01  0.149136170E+00  0.145109470E+00
   H -0.304501322E+02 -0.179029247E+01  0.338159403E+01
   H  0.296117490E+02 -0.143767874E+01 -0.228138208E+01
     4
 # iter = 61000  time[fs]=61.00000
   C -0.649910758E+01  0.252590821E+00 -0.822795834E-01
   C  0.619089936E+01  0.150932884E+00  0.147618295E+00
   H -0.308132367E+02 -0.181117989E+01  0.342243703E+01
   H  0.299643517E+02 -0.145469612E+01 -0.230834461E+01
     4
 # iter = 61500  time[fs]=61.50000
   C -0.658523672E+01  0.255896155E+00 -0.834760250E-01
   C  0.627279953E+01  0.152729411E+00  0.150128892E+00
   H -0.311764318E+02 -0.183207347E+01  0.346329124E+01
   H  0.303170496E+02 -0.147171871E+01 -0.233531581E+01
     4
 # iter = 62000  time[fs]=62.00000
   C -0.667144074E+01  0.259202598E+00 -0.846744054E-01
   C  0.635477420E+01  0.154525755E+00  0.152641221E+00
   H -0.315397153E+02 -0.185297306E+01  0.350415640E+01
   H  0.306698406E+02 -0.148874639E+01 -0.236229547E+01
     4
 # iter = 62500  time[fs]=62.50000
   C -0.675771772E+01  0.262510124E+00 -0.858746810E-01
   C  0.643682146E+01  0.156321922E+00  0.155155242E+00
   H -0.319030853E+02 -0.187387854E+01  0.354503226E+01
   H  0.310227226E+02 -0.150577906E+01 -0.238928341E+01
     4
 # iter = 63000  time[fs]=63.00000
   C -0.684406580E+01  0.265818708E+00 -0.870768098E-01
   C  0.651893944E+01  0.158117916E+00  0.157670919E+00
   H -0.322665399E+02 -0.189478977E+01  0.358591860E+01
   H  0.313756935E+02 -0.152281661E+01 -0.241627945E+01
     4
 # iter = 63500  time[fs]=63.50000
   C -0.693048317E+01  0.269128326E+00 -0.882807508E-01
   C  0.660112637E+01  0.159913743E+00  0.160188215E+00
   H -0.326300771E+02 -0.191570663E+01  0.362681518E+01
   H  0.317287513E+02 -0.153985892E+01 -0.244328342E+01
     4
 # iter = 64000  time[fs]=64.00000
   C -0.701696812E+01  0.272438955E+00 -0.894864648E-01
   C  0.668338052E+01  0.161709407E+00  0.162707094E+00
   H -0.329936952E+02 -0.193662900E+01  0.366772179E+01
   H  0.320818943E+02 -0.155690590E+01 -0.247029514E+01
     4
 # iter = 64500  time[fs]=64.50000
   C -0.710351899E+01  0.275750572E+00 -0.906939135E-01
   C  0.676570024E+01  0.163504912E+00  0.165227523E+00
   H -0.333573924E+02 -0.195755676E+01  0.370863822E+01
   H  0.324351204E+02 -0.157395745E+01 -0.249731445E+01
     4
 # iter = 65000  time[fs]=65.00000
   C -0.719013415E+01  0.279063155E+00 -0.919030598E-01
   C  0.684808392E+01  0.165300264E+00  0.167749467E+00
   H -0.337211670E+02 -0.197848979E+01  0.374956425E+01
   H  0.327884281E+02 -0.159101347E+01 -0.252434119E+01
     4
 # iter = 65500  time[fs]=65.50000
   C -0.727681208E+01  0.282376683E+00 -0.931138680E-01
   C  0.693053004E+01  0.167095465E+00  0.170272896E+00
   H -0.340850175E+02 -0.199942799E+01  0.379049970E+01
   H  0.331418154E+02 -0.160807387E+01 -0.255137520E+01
     4
 # iter = 66000  time[fs]=66.00000
   C -0.736355127E+01  0.285691136E+00 -0.943263031E-01
   C  0.701303710E+01  0.168890521E+00  0.172797777E+00
   H -0.344489421E+02 -0.202037125E+01  0.383144436E+01
   H  0.334952808E+02 -0.162513855E+01 -0.257841635E+01
     4
 # iter = 66500  time[fs]=66.50000
   C -0.745035028E+01  0.289006495E+00 -0.955403315E-01
   C  0.709560367E+01  0.170685434E+00  0.175324082E+00
   H -0.348129394E+02 -0.204131946E+01  0.387239805E+01
   H  0.338488227E+02 -0.164220744E+01 -0.260546447E+01
     4
 # iter = 67000  time[fs]=67.00000
   C -0.753720772E+01  0.292322739E+00 -0.967559205E-01
   C  0.717822836E+01  0.172480209E+00  0.177851779E+00
   H -0.351770078E+02 -0.206227252E+01  0.391336059E+01
   H  0.342024394E+02 -0.165928044E+01 -0.263251944E+01
     4
 # iter = 67500  time[fs]=67.50000
   C -0.762412224E+01  0.295639850E+00 -0.979730384E-01
   C  0.726090983E+01  0.174274849E+00  0.180380842E+00
   H -0.355411460E+02 -0.208323035E+01  0.395433180E+01
   H  0.345561295E+02 -0.167635747E+01 -0.265958111E+01
     4
 # iter = 68000  time[fs]=68.00000
   C -0.771109255E+01  0.298957811E+00 -0.991916544E-01
   C  0.734364678E+01  0.176069358E+00  0.182911242E+00
   H -0.359053525E+02 -0.210419283E+01  0.399531151E+01
   H  0.349098915E+02 -0.169343845E+01 -0.268664936E+01
     4
 # iter = 68500  time[fs]=68.50000
   C -0.779811738E+01  0.302276603E+00 -0.100411739E+00
   C  0.742643796E+01  0.177863739E+00  0.185442953E+00
   H -0.362696259E+02 -0.212515989E+01  0.403629955E+01
   H  0.352637239E+02 -0.171052331E+01 -0.271372405E+01
     4
 # iter = 69000  time[fs]=69.00000
   C -0.788519552E+01  0.305596210E+00 -0.101633262E+00
   C  0.750928217E+01  0.179657995E+00  0.187975949E+00
   H -0.366339650E+02 -0.214613143E+01  0.407729577E+01
   H  0.356176254E+02 -0.172761198E+01 -0.274080506E+01
     4
 # iter = 69500  time[fs]=69.50000
   C -0.797232579E+01  0.308916616E+00 -0.102856196E+00
   C  0.759217823E+01  0.181452130E+00  0.190510204E+00
   H -0.369983685E+02 -0.216710736E+01  0.411830000E+01
   H  0.359715946E+02 -0.174470436E+01 -0.276789227E+01
     4
 # iter = 70000  time[fs]=70.00000
   C -0.805950705E+01  0.312237804E+00 -0.104080514E+00
   C  0.767512501E+01  0.183246146E+00  0.193045695E+00
   H -0.373628350E+02 -0.218808761E+01  0.415931209E+01
   H  0.363256302E+02 -0.176180041E+01 -0.279498556E+01
     4
 # iter = 70500  time[fs]=70.50000
   C -0.814673819E+01  0.315559760E+00 -0.105306189E+00
   C  0.775812140E+01  0.185040046E+00  0.195582397E+00
   H -0.377273635E+02 -0.220907208E+01  0.420033191E+01
   H  0.366797309E+02 -0.177890004E+01 -0.282208481E+01
     4
 # iter = 71000  time[fs]=71.00000
   C -0.823401816E+01  0.318882467E+00 -0.106533196E+00
   C  0.784116636E+01  0.186833833E+00  0.198120286E+00
   H -0.380919527E+02 -0.223006071E+01  0.424135929E+01
   H  0.370338955E+02 -0.179600319E+01 -0.284918993E+01
     4
 # iter = 71500  time[fs]=71.50000
   C -0.832134591E+01  0.322205912E+00 -0.107761508E+00
   C  0.792425883E+01  0.188627511E+00  0.200659342E+00
   H -0.384566014E+02 -0.225105340E+01  0.428239411E+01
   H  0.373881228E+02 -0.181310979E+01 -0.287630079E+01
     4
 # iter = 72000  time[fs]=72.00000
   C -0.840872045E+01  0.325530080E+00 -0.108991102E+00
   C  0.800739784E+01  0.190421080E+00  0.203199541E+00
   H -0.388213087E+02 -0.227205010E+01  0.432343622E+01
   H  0.377424116E+02 -0.183021979E+01 -0.290341729E+01
     4
 # iter = 72500  time[fs]=72.50000
   C -0.849614080E+01  0.328854958E+00 -0.110221953E+00
   C  0.809058240E+01  0.192214545E+00  0.205740863E+00
   H -0.391860733E+02 -0.229305072E+01  0.436448550E+01
   H  0.380967609E+02 -0.184733311E+01 -0.293053934E+01
     4
 # iter = 73000  time[fs]=73.00000
   C -0.858360601E+01  0.332180532E+00 -0.111454040E+00
   C  0.817381159E+01  0.194007907E+00  0.208283286E+00
   H -0.395508943E+02 -0.231405519E+01  0.440554182E+01
   H  0.384511694E+02 -0.186444971E+01 -0.295766682E+01
     4
 # iter = 73500  time[fs]=73.50000
   C -0.867111517E+01  0.335506789E+00 -0.112687338E+00
   C  0.825708449E+01  0.195801169E+00  0.210826792E+00
   H -0.399157705E+02 -0.233506345E+01  0.444660504E+01
   H  0.388056361E+02 -0.188156951E+01 -0.298479965E+01
     4
 # iter = 74000  time[fs]=74.00000
   C -0.875866740E+01  0.338833716E+00 -0.113921827E+00
   C  0.834040021E+01  0.197594333E+00  0.213371359E+00
   H -0.402807011E+02 -0.235607543E+01  0.448767506E+01
   H  0.391601600E+02 -0.189869247E+01 -0.301193773E+01
     4
 # iter = 74500  time[fs]=74.50000
   C -0.884626184E+01  0.342161302E+00 -0.115157485E+00
   C  0.842375791E+01  0.199387401E+00  0.215916969E+00
   H -0.406456851E+02 -0.237709105E+01  0.452875174E+01
   H  0.395147400E+02 -0.191581853E+01 -0.303908096E+01
     4
 # iter = 75000  time[fs]=75.00000
   C -0.893389764E+01  0.345489534E+00 -0.116394291E+00
   C  0.850715675E+01  0.201180376E+00  0.218463604E+00
   H -0.410107215E+02 -0.239811027E+01  0.456983498E+01
   H  0.398693752E+02 -0.193294763E+01 -0.306622927E+01
     4
 # iter = 75500  time[fs]=75.50000
   C -0.902157399E+01  0.348818400E+00 -0.117632226E+00
   C  0.859059592E+01  0.202973260E+00  0.221011245E+00
   H -0.413758094E+02 -0.241913301E+01  0.461092466E+01
   H  0.402240646E+02 -0.195007973E+01 -0.309338255E+01
     4
 # iter = 76000  time[fs]=76.00000
   C -0.910929012E+01  0.352147890E+00 -0.118871268E+00
   C  0.867407463E+01  0.204766055E+00  0.223559874E+00
   H -0.417409479E+02 -0.244015922E+01  0.465202067E+01
   H  0.405788072E+02 -0.196721477E+01 -0.312054074E+01
     4
 # iter = 76500  time[fs]=76.50000
   C -0.919704524E+01  0.355477992E+00 -0.120111399E+00
   C  0.875759214E+01  0.206558762E+00  0.226109475E+00
   H -0.421061361E+02 -0.246118884E+01  0.469312290E+01
   H  0.409336022E+02 -0.198435269E+01 -0.314770373E+01
     4
 # iter = 77000  time[fs]=77.00000
   C -0.928483863E+01  0.358808695E+00 -0.121352601E+00
   C  0.884114768E+01  0.208351384E+00  0.228660031E+00
   H -0.424713732E+02 -0.248222181E+01  0.473423126E+01
   H  0.412884486E+02 -0.200149346E+01 -0.317487146E+01
     4
 # iter = 77500  time[fs]=77.50000
   C -0.937266954E+01  0.362139989E+00 -0.122594855E+00
   C  0.892474055E+01  0.210143922E+00  0.231211525E+00
   H -0.428366584E+02 -0.250325807E+01  0.477534564E+01
   H  0.416433456E+02 -0.201863703E+01 -0.320204385E+01
     4
 # iter = 78000  time[fs]=78.00000
   C -0.946053729E+01  0.365471863E+00 -0.123838144E+00
   C  0.900837003E+01  0.211936379E+00  0.233763942E+00
   H -0.432019908E+02 -0.252429756E+01  0.481646593E+01
   H  0.419982923E+02 -0.203578334E+01 -0.322922081E+01
     4
 # iter = 78500  time[fs]=78.50000
   C -0.954844117E+01  0.368804309E+00 -0.125082449E+00
   C  0.909203546E+01  0.213728755E+00  0.236317266E+00
   H -0.435673696E+02 -0.254534025E+01  0.485759205E+01
   H  0.423532879E+02 -0.205293236E+01 -0.325640227E+01
     4
 # iter = 79000  time[fs]=79.00000
   C -0.963638054E+01  0.372137315E+00 -0.126327754E+00
   C  0.917573617E+01  0.215521053E+00  0.238871482E+00
   H -0.439327942E+02 -0.256638607E+01  0.489872389E+01
   H  0.427083316E+02 -0.207008404E+01 -0.328358817E+01
     4
 # iter = 79500  time[fs]=79.50000
   C -0.972435474E+01  0.375470873E+00 -0.127574043E+00
   C  0.925947152E+01  0.217313275E+00  0.241426574E+00
   H -0.442982637E+02 -0.258743497E+01  0.493986138E+01
   H  0.430634226E+02 -0.208723833E+01 -0.331077842E+01
     4
 # iter = 80000  time[fs]=80.00000
   C -0.981236313E+01  0.378804974E+00 -0.128821300E+00
   C  0.934324087E+01  0.219105422E+00  0.243982530E+00
   H -0.446637775E+02 -0.260848690E+01  0.498100441E+01
   H  0.434185601E+02 -0.210439520E+01 -0.333797296E+01
