     4
 # iter = 25000  time[fs]=25.00000
   C -0.102471320E+01  0.230049035E-03  0.163533062E-01
   C  0.101333263E+01 -0.356318827E-01 -0.547418594E-02
   H -0.528833394E+01  0.269718857E+00 -0.404492248E+00
   H  0.538433910E+01 -0.718947114E-01 -0.263372407E+00
     4
 # iter = 25500  time[fs]=25.50000
   C -0.107410571E+01 -0.167910108E-02  0.180442746E-01
   C  0.105557167E+01 -0.380755252E-01 -0.532141403E-02
   H -0.563486286E+01  0.279294099E+00 -0.436317801E+00
   H  0.570059969E+01 -0.843368555E-01 -0.285654132E+00
     4
 # iter = 26000  time[fs]=26.00000
   C -0.112723189E+01 -0.441541876E-02  0.189357445E-01
   C  0.109954194E+01 -0.416831860E-01 -0.627998764E-02
   H -0.599209481E+01  0.283760348E+00 -0.473982591E+00
   H  0.601711772E+01 -0.102250745E+00 -0.313641459E+00
     4
 # iter = 26500  time[fs]=26.50000
   C -0.118128141E+01 -0.540890400E-02  0.215956124E-01
   C  0.114830556E+01 -0.431476703E-01 -0.505003685E-02
   H -0.634332947E+01  0.299158383E+00 -0.501358273E+00
   H  0.634938697E+01 -0.109539846E+00 -0.331212283E+00
     4
 # iter = 27000  time[fs]=27.00000
   C -0.123590444E+01 -0.453612454E-02  0.261457041E-01
   C  0.120180480E+01 -0.422999500E-01 -0.146870761E-02
   H -0.668726133E+01  0.326255374E+00 -0.517606744E+00
   H  0.669767518E+01 -0.105402551E+00 -0.337542559E+00
     4
 # iter = 27500  time[fs]=27.50000
   C -0.129280887E+01 -0.371575257E-02  0.306660771E-01
   C  0.125738093E+01 -0.415906097E-01  0.200820866E-02
   H -0.703543187E+01  0.353067261E+00 -0.534654145E+00
   H  0.704954082E+01 -0.101805938E+00 -0.344579565E+00
     4
 # iter = 28000  time[fs]=28.00000
   C -0.135316077E+01 -0.430597229E-02  0.337973730E-01
   C  0.131311094E+01 -0.427527429E-01  0.364323507E-02
   H -0.739594184E+01  0.371111396E+00 -0.560933310E+00
   H  0.739610960E+01 -0.107216214E+00 -0.360772623E+00
     4
 # iter = 28500  time[fs]=28.50000
   C -0.141624270E+01 -0.576210531E-02  0.360830902E-01
   C  0.136952821E+01 -0.450805279E-01  0.413850008E-02
   H -0.776504740E+01  0.383791105E+00 -0.592996547E+00
   H  0.774046526E+01 -0.118205208E+00 -0.382679456E+00
     4
 # iter = 29000  time[fs]=29.00000
   C -0.148055833E+01 -0.674344592E-02  0.388627917E-01
   C  0.142820224E+01 -0.468483822E-01  0.521646187E-02
   H -0.813407194E+01  0.399481874E+00 -0.622429177E+00
   H  0.809071464E+01 -0.126370479E+00 -0.401885605E+00
     4
 # iter = 29500  time[fs]=29.50000
   C -0.154550475E+01 -0.678817100E-02  0.425972557E-01
   C  0.148958969E+01 -0.474586664E-01  0.747210253E-02
   H -0.849987067E+01  0.421067938E+00 -0.646313141E+00
   H  0.844949945E+01 -0.128808545E+00 -0.415476992E+00
     4
 # iter = 30000  time[fs]=30.00000
   C -0.161160599E+01 -0.654833145E-02  0.466334870E-01
   C  0.155273184E+01 -0.477429085E-01  0.100716243E-01
   H -0.886629405E+01  0.444474230E+00 -0.668694421E+00
   H  0.881252041E+01 -0.129583998E+00 -0.427508721E+00
     4
 # iter = 30500  time[fs]=30.50000
   C -0.167947333E+01 -0.675085736E-02  0.502436743E-01
   C  0.161658587E+01 -0.486292414E-01  0.120849502E-01
   H -0.923768751E+01  0.465158108E+00 -0.694090164E+00
   H  0.917503457E+01 -0.133231138E+00 -0.442506685E+00
     4
 # iter = 31000  time[fs]=31.00000
   C -0.174901417E+01 -0.740720510E-02  0.534155162E-01
   C  0.168103727E+01 -0.501287176E-01  0.134993572E-01
   H -0.961394653E+01  0.483047630E+00 -0.722549500E+00
   H  0.953679751E+01 -0.139810639E+00 -0.460524181E+00
     4
 # iter = 31500  time[fs]=31.50000
   C -0.181966282E+01 -0.804537413E-02  0.566202052E-01
   C  0.174660121E+01 -0.516328154E-01  0.149219255E-01
   H -0.999196380E+01  0.501091617E+00 -0.751103122E+00
   H  0.990060851E+01 -0.146360701E+00 -0.478592906E+00
     4
 # iter = 32000  time[fs]=32.00000
   C -0.189104229E+01 -0.837301479E-02  0.601493321E-01
   C  0.181357108E+01 -0.527638349E-01  0.167291054E-01
   H -0.103697719E+02  0.521115969E+00 -0.777906834E+00
   H  0.102681588E+02 -0.151044598E+00 -0.494870322E+00
     4
 # iter = 32500  time[fs]=32.50000
   C -0.196320101E+01 -0.851525517E-02  0.638770620E-01
   C  0.188171254E+01 -0.536798570E-01  0.187617278E-01
   H -0.107480277E+02  0.542337607E+00 -0.803727424E+00
   H  0.106385412E+02 -0.154638044E+00 -0.510126898E+00
     4
 # iter = 33000  time[fs]=33.00000
   C -0.203632650E+01 -0.872913536E-02  0.675456942E-01
   C  0.195062903E+01 -0.547084295E-01  0.206912937E-01
   H -0.111282255E+02  0.563149152E+00 -0.830157670E+00
   H  0.110100351E+02 -0.158742661E+00 -0.525959513E+00
     4
 # iter = 33500  time[fs]=33.50000
   C -0.211043144E+01 -0.909033445E-02  0.710789275E-01
   C  0.202016276E+01 -0.559447291E-01  0.224217917E-01
   H -0.115107369E+02  0.583076688E+00 -0.857658284E+00
   H  0.113820655E+02 -0.163826207E+00 -0.542831650E+00
     4
 # iter = 34000  time[fs]=34.00000
   C -0.218534982E+01 -0.949005664E-02  0.745849714E-01
   C  0.209039810E+01 -0.572475403E-01  0.240937025E-01
   H -0.118947901E+02  0.602799167E+00 -0.885538319E+00
   H  0.117552210E+02 -0.169203070E+00 -0.560053836E+00
     4
 # iter = 34500  time[fs]=34.50000
   C -0.226092318E+01 -0.982186921E-02  0.781697076E-01
   C  0.216142133E+01 -0.584788708E-01  0.258443684E-01
   H -0.122796366E+02  0.622980718E+00 -0.913122742E+00
   H  0.121300835E+02 -0.174203020E+00 -0.576952335E+00
     4
 # iter = 35000  time[fs]=35.00000
   C -0.233710627E+01 -0.100879474E-01  0.818304443E-01
   C  0.223318385E+01 -0.596401970E-01  0.276717364E-01
   H -0.126652143E+02  0.643606671E+00 -0.940416304E+00
   H  0.125065628E+02 -0.178835765E+00 -0.593533655E+00
     4
 # iter = 35500  time[fs]=35.50000
   C -0.241391728E+01 -0.103497982E-01  0.855051903E-01
   C  0.230556494E+01 -0.608092369E-01  0.294975750E-01
   H -0.130518386E+02  0.664291566E+00 -0.967795420E+00
   H  0.128842040E+02 -0.183482593E+00 -0.610176157E+00
     4
 # iter = 36000  time[fs]=36.00000
   C -0.249135020E+01 -0.106410236E-01  0.891598889E-01
   C  0.237848322E+01 -0.620280380E-01  0.312793779E-01
   H -0.134396565E+02  0.684824382E+00 -0.995462828E+00
   H  0.132627325E+02 -0.188350562E+00 -0.627084217E+00
     4
 # iter = 36500  time[fs]=36.50000
   C -0.256935450E+01 -0.109473772E-01  0.928083590E-01
   C  0.245192190E+01 -0.632773827E-01  0.330359511E-01
   H -0.138285211E+02  0.705293179E+00 -0.102332287E+01
   H  0.136421784E+02 -0.193347702E+00 -0.644163405E+00
     4
 # iter = 37000  time[fs]=37.00000
   C -0.264787163E+01 -0.112435810E-01  0.964754767E-01
   C  0.252588121E+01 -0.645239998E-01  0.348001962E-01
   H -0.142182214E+02  0.725854977E+00 -0.105121151E+01
   H  0.140226453E+02 -0.198313317E+00 -0.661250758E+00
     4
 # iter = 37500  time[fs]=37.50000
   C -0.272686492E+01 -0.115235754E-01  0.100166924E+00
   C  0.260033932E+01 -0.657593528E-01  0.365803160E-01
   H -0.146086706E+02  0.746546704E+00 -0.107908539E+01
   H  0.144041210E+02 -0.203207195E+00 -0.678303979E+00
     4
 # iter = 38000  time[fs]=38.00000
   C -0.280631605E+01 -0.117971916E-01  0.103872513E+00
   C  0.267525635E+01 -0.669953617E-01  0.383640887E-01
   H -0.149998850E+02  0.767305991E+00 -0.110700092E+01
   H  0.147864973E+02 -0.208088762E+00 -0.695380562E+00
     4
 # iter = 38500  time[fs]=38.50000
   C -0.288620752E+01 -0.120728953E-01  0.107583446E+00
   C  0.275059632E+01 -0.682422598E-01  0.401410073E-01
   H -0.153918760E+02  0.788079038E+00 -0.113500639E+01
   H  0.151696782E+02 -0.213009091E+00 -0.712529792E+00
     4
 # iter = 39000  time[fs]=39.00000
   C -0.296651518E+01 -0.123505443E-01  0.111299548E+00
   C  0.282633616E+01 -0.694992972E-01  0.419115726E-01
   H -0.157846040E+02  0.808865878E+00 -0.116309664E+01
   H  0.155536246E+02 -0.217965570E+00 -0.729747399E+00
     4
 # iter = 39500  time[fs]=39.50000
   C -0.304721290E+01 -0.126261921E-01  0.115024469E+00
   C  0.290245946E+01 -0.707608958E-01  0.436811359E-01
   H -0.161780087E+02  0.829690348E+00 -0.119124311E+01
   H  0.159383241E+02 -0.222931941E+00 -0.747005586E+00
     4
 # iter = 40000  time[fs]=40.00000
   C -0.312827832E+01 -0.128980259E-01  0.118759743E+00
   C  0.297894863E+01 -0.720242598E-01  0.454522853E-01
   H -0.165720455E+02  0.850562980E+00 -0.121943084E+01
   H  0.163237533E+02 -0.227895432E+00 -0.764290144E+00
     4
 # iter = 40500  time[fs]=40.50000
   C -0.320969340E+01 -0.131670729E-01  0.122504077E+00
   C  0.305578386E+01 -0.732902777E-01  0.472239422E-01
   H -0.169666899E+02  0.871476583E+00 -0.124766291E+01
   H  0.167098735E+02 -0.232861162E+00 -0.781604856E+00
     4
 # iter = 41000  time[fs]=41.00000
   C -0.329144188E+01 -0.134347971E-01  0.126255758E+00
   C  0.313294610E+01 -0.745604345E-01  0.489944471E-01
   H -0.173619222E+02  0.892421264E+00 -0.127594536E+01
   H  0.170966453E+02 -0.237837091E+00 -0.798956432E+00
     4
 # iter = 41500  time[fs]=41.50000
   C -0.337350768E+01 -0.137015946E-01  0.130014154E+00
   C  0.321041886E+01 -0.758348781E-01  0.507634914E-01
   H -0.177577179E+02  0.913393833E+00 -0.130427781E+01
   H  0.174840381E+02 -0.242824595E+00 -0.816345083E+00
     4
 # iter = 42000  time[fs]=42.00000
   C -0.345587510E+01 -0.139671346E-01  0.133779373E+00
   C  0.328818768E+01 -0.771128537E-01  0.525316818E-01
   H -0.181540499E+02  0.934395673E+00 -0.133265550E+01
   H  0.178720274E+02 -0.247820592E+00 -0.833766630E+00
     4
 # iter = 42500  time[fs]=42.50000
   C -0.353852958E+01 -0.142311823E-01  0.137551438E+00
   C  0.336623896E+01 -0.783937560E-01  0.542994867E-01
   H -0.185508931E+02  0.955427590E+00 -0.136107447E+01
   H  0.182605900E+02 -0.252822680E+00 -0.851217646E+00
     4
 # iter = 43000  time[fs]=43.00000
   C -0.362145785E+01 -0.144938475E-01  0.141330040E+00
   C  0.344455958E+01 -0.796774458E-01  0.560669186E-01
   H -0.189482261E+02  0.976488264E+00 -0.138953310E+01
   H  0.186497018E+02 -0.257830683E+00 -0.868696994E+00
     4
 # iter = 43500  time[fs]=43.50000
   C -0.370464762E+01 -0.147553579E-01  0.145114762E+00
   C  0.352313709E+01 -0.809639565E-01  0.578338265E-01
   H -0.193460297E+02  0.997575663E+00 -0.141803064E+01
   H  0.190393395E+02 -0.262845231E+00 -0.886204396E+00
     4
 # iter = 44000  time[fs]=44.00000
   C -0.378808731E+01 -0.150158502E-01  0.148905286E+00
   C  0.360195996E+01 -0.822532246E-01  0.596001648E-01
   H -0.197442851E+02  0.101868834E+01 -0.144656590E+01
   H  0.194294816E+02 -0.267866440E+00 -0.903739118E+00
     4
 # iter = 44500  time[fs]=44.50000
   C -0.387176598E+01 -0.152753663E-01  0.152701401E+00
   C  0.368101747E+01 -0.835450826E-01  0.613659995E-01
   H -0.201429744E+02  0.103982548E+01 -0.147513726E+01
   H  0.198201085E+02 -0.272893888E+00 -0.921299934E+00
     4
 # iter = 45000  time[fs]=45.00000
   C -0.395567334E+01 -0.155339336E-01  0.156502917E+00
   C  0.376029957E+01 -0.848393607E-01  0.631314055E-01
   H -0.205420804E+02  0.106098637E+01 -0.150374310E+01
   H  0.202112016E+02 -0.277927114E+00 -0.938885625E+00
     4
 # iter = 45500  time[fs]=45.50000
   C -0.403979974E+01 -0.157916049E-01  0.160309627E+00
   C  0.383979679E+01 -0.861359361E-01  0.648964174E-01
   H -0.209415872E+02  0.108217015E+01 -0.153238207E+01
   H  0.206027433E+02 -0.282965855E+00 -0.956495213E+00
     4
 # iter = 46000  time[fs]=46.00000
   C -0.412413616E+01 -0.160484451E-01  0.164121320E+00
   C  0.391950019E+01 -0.874347151E-01  0.666610460E-01
   H -0.213414799E+02  0.110337592E+01 -0.156105302E+01
   H  0.209947168E+02 -0.288009968E+00 -0.974127878E+00
     4
 # iter = 46500  time[fs]=46.50000
   C -0.420867405E+01 -0.163045115E-01  0.167937800E+00
   C  0.399940137E+01 -0.887356066E-01  0.684253053E-01
   H -0.217417441E+02  0.112460285E+01 -0.158975482E+01
   H  0.213871062E+02 -0.293059300E+00 -0.991782826E+00
     4
 # iter = 47000  time[fs]=47.00000
   C -0.429340539E+01 -0.165598503E-01  0.171758886E+00
   C  0.407949242E+01 -0.900385162E-01  0.701892170E-01
   H -0.221423666E+02  0.114585017E+01 -0.161848637E+01
   H  0.217798966E+02 -0.298113659E+00 -0.100945926E+01
     4
 # iter = 47500  time[fs]=47.50000
   C -0.437832257E+01 -0.168145019E-01  0.175584413E+00
   C  0.415976587E+01 -0.913433526E-01  0.719528045E-01
   H -0.225433345E+02  0.116711720E+01 -0.164724659E+01
   H  0.221730738E+02 -0.303172851E+00 -0.102715641E+01
     4
 # iter = 48000  time[fs]=48.00000
   C -0.446341843E+01 -0.170685053E-01  0.179414221E+00
   C  0.424021466E+01 -0.926500318E-01  0.737160874E-01
   H -0.229446357E+02  0.118840326E+01 -0.167603449E+01
   H  0.225666243E+02 -0.308236702E+00 -0.104487356E+01
     4
 # iter = 48500  time[fs]=48.50000
   C -0.454868620E+01 -0.173218984E-01  0.183248157E+00
   C  0.432083215E+01 -0.939584771E-01  0.754790825E-01
   H -0.233462588E+02  0.120970770E+01 -0.170484914E+01
   H  0.229605354E+02 -0.313305055E+00 -0.106261003E+01
     4
 # iter = 49000  time[fs]=49.00000
   C -0.463411947E+01 -0.175747161E-01  0.187086075E+00
   C  0.440161201E+01 -0.952686160E-01  0.772418053E-01
   H -0.237481929E+02  0.123102991E+01 -0.173368964E+01
   H  0.233547949E+02 -0.318377761E+00 -0.108036518E+01
     4
 # iter = 49500  time[fs]=49.50000
   C -0.471971217E+01 -0.178269907E-01  0.190927839E+00
   C  0.448254828E+01 -0.965803801E-01  0.790042707E-01
   H -0.241504275E+02  0.125236931E+01 -0.176255514E+01
   H  0.237493913E+02 -0.323454677E+00 -0.109813839E+01
     4
 # iter = 50000  time[fs]=50.00000
   C -0.480545854E+01 -0.180787521E-01  0.194773318E+00
   C  0.456363529E+01 -0.978937045E-01  0.807664933E-01
   H -0.245529530E+02  0.127372535E+01 -0.179144482E+01
   H  0.241443135E+02 -0.328535664E+00 -0.111592909E+01
     4
 # iter = 50500  time[fs]=50.50000
   C -0.489135312E+01 -0.183300282E-01  0.198622389E+00
   C  0.464486769E+01 -0.992085279E-01  0.825284862E-01
   H -0.249557598E+02  0.129509749E+01 -0.182035793E+01
   H  0.245395511E+02 -0.333620591E+00 -0.113373672E+01
     4
 # iter = 51000  time[fs]=51.00000
   C -0.497739074E+01 -0.185808451E-01  0.202474934E+00
   C  0.472624037E+01 -0.100524793E+00  0.842902620E-01
   H -0.253588391E+02  0.131648523E+01 -0.184929371E+01
   H  0.249350942E+02 -0.338709333E+00 -0.115156074E+01
     4
 # iter = 51500  time[fs]=51.50000
   C -0.506356647E+01 -0.188312273E-01  0.206330840E+00
   C  0.480774849E+01 -0.101842444E+00  0.860518323E-01
   H -0.257621823E+02  0.133788810E+01 -0.187825147E+01
   H  0.253309332E+02 -0.343801771E+00 -0.116940065E+01
     4
 # iter = 52000  time[fs]=52.00000
   C -0.514987562E+01 -0.190811976E-01  0.210190000E+00
   C  0.488938745E+01 -0.103161431E+00  0.878132081E-01
   H -0.261657813E+02  0.135930563E+01 -0.190723054E+01
   H  0.257270590E+02 -0.348897793E+00 -0.118725597E+01
     4
 # iter = 52500  time[fs]=52.50000
   C -0.523631375E+01 -0.193307774E-01  0.214052312E+00
   C  0.497115287E+01 -0.104481704E+00  0.895743997E-01
   H -0.265696283E+02  0.138073738E+01 -0.193623028E+01
   H  0.261234630E+02 -0.353997289E+00 -0.120512623E+01
     4
 # iter = 53000  time[fs]=53.00000
   C -0.532287661E+01 -0.195799867E-01  0.217917678E+00
   C  0.505304058E+01 -0.105803217E+00  0.913354169E-01
   H -0.269737158E+02  0.140218294E+01 -0.196525008E+01
   H  0.265201368E+02 -0.359100156E+00 -0.122301100E+01
     4
 # iter = 53500  time[fs]=53.50000
   C -0.540956015E+01 -0.198288443E-01  0.221786006E+00
   C  0.513504662E+01 -0.107125926E+00  0.930962686E-01
   H -0.273780368E+02  0.142364190E+01 -0.199428935E+01
   H  0.269170725E+02 -0.364206294E+00 -0.124090984E+01
     4
 # iter = 54000  time[fs]=54.00000
   C -0.549636054E+01 -0.200773679E-01  0.225657207E+00
   C  0.521716718E+01 -0.108449790E+00  0.948569636E-01
   H -0.277825845E+02  0.144511388E+01 -0.202334753E+01
   H  0.273142626E+02 -0.369315610E+00 -0.125882237E+01
     4
 # iter = 54500  time[fs]=54.50000
   C -0.558327407E+01 -0.203255740E-01  0.229531195E+00
   C  0.529939865E+01 -0.109774768E+00  0.966175100E-01
   H -0.281873524E+02  0.146659851E+01 -0.205242408E+01
   H  0.277116997E+02 -0.374428011E+00 -0.127674818E+01
     4
 # iter = 55000  time[fs]=55.00000
   C -0.567029725E+01 -0.205734781E-01  0.233407888E+00
   C  0.538173759E+01 -0.111100823E+00  0.983779153E-01
   H -0.285923343E+02  0.148809544E+01 -0.208151849E+01
   H  0.281093770E+02 -0.379543412E+00 -0.129468692E+01
     4
 # iter = 55500  time[fs]=55.50000
   C -0.575742672E+01 -0.208210951E-01  0.237287210E+00
   C  0.546418070E+01 -0.112427919E+00  0.100138187E+00
   H -0.289975241E+02  0.150960433E+01 -0.211063028E+01
   H  0.285072876E+02 -0.384661728E+00 -0.131263822E+01
     4
 # iter = 56000  time[fs]=56.00000
   C -0.584465927E+01 -0.210684386E-01  0.241169085E+00
   C  0.554672483E+01 -0.113756022E+00  0.101898331E+00
   H -0.294029161E+02  0.153112486E+01 -0.213975895E+01
   H  0.289054252E+02 -0.389782879E+00 -0.133060173E+01
     4
 # iter = 56500  time[fs]=56.50000
   C -0.593199182E+01 -0.213155216E-01  0.245053442E+00
   C  0.562936696E+01 -0.115085099E+00  0.103658355E+00
   H -0.298085050E+02  0.155265672E+01 -0.216890407E+01
   H  0.293037837E+02 -0.394906789E+00 -0.134857714E+01
     4
 # iter = 57000  time[fs]=57.00000
   C -0.601942146E+01 -0.215623565E-01  0.248940212E+00
   C  0.571210420E+01 -0.116415119E+00  0.105418264E+00
   H -0.302142852E+02  0.157419959E+01 -0.219806519E+01
   H  0.297023572E+02 -0.400033385E+00 -0.136656413E+01
     4
 # iter = 57500  time[fs]=57.50000
   C -0.610694535E+01 -0.218089548E-01  0.252829329E+00
   C  0.579493380E+01 -0.117746053E+00  0.107178065E+00
   H -0.306202519E+02  0.159575321E+01 -0.222724189E+01
   H  0.301011399E+02 -0.405162594E+00 -0.138456240E+01
     4
 # iter = 58000  time[fs]=58.00000
   C -0.619456081E+01 -0.220553274E-01  0.256720730E+00
   C  0.587785311E+01 -0.119077872E+00  0.108937762E+00
   H -0.310264001E+02  0.161731728E+01 -0.225643377E+01
   H  0.305001264E+02 -0.410294349E+00 -0.140257165E+01
     4
 # iter = 58500  time[fs]=58.50000
   C -0.628226524E+01 -0.223014847E-01  0.260614353E+00
   C  0.596085958E+01 -0.120410549E+00  0.110697361E+00
   H -0.314327251E+02  0.163889155E+01 -0.228564045E+01
   H  0.308993116E+02 -0.415428584E+00 -0.142059160E+01
     4
 # iter = 59000  time[fs]=59.00000
   C -0.637005618E+01 -0.225474364E-01  0.264510142E+00
   C  0.604395079E+01 -0.121744058E+00  0.112456866E+00
   H -0.318392225E+02  0.166047576E+01 -0.231486155E+01
   H  0.312986902E+02 -0.420565237E+00 -0.143862199E+01
     4
 # iter = 59500  time[fs]=59.50000
   C -0.645793124E+01 -0.227931918E-01  0.268408039E+00
   C  0.612712439E+01 -0.123078375E+00  0.114216283E+00
   H -0.322458878E+02  0.168206966E+01 -0.234409671E+01
   H  0.316982575E+02 -0.425704246E+00 -0.145666255E+01
     4
 # iter = 60000  time[fs]=60.00000
   C -0.654588813E+01 -0.230387596E-01  0.272307991E+00
   C  0.621037815E+01 -0.124413476E+00  0.115975615E+00
   H -0.326527169E+02  0.170367301E+01 -0.237334559E+01
   H  0.320980088E+02 -0.430845554E+00 -0.147471304E+01
     4
 # iter = 60500  time[fs]=60.50000
   C -0.663392467E+01 -0.232841481E-01  0.276209944E+00
   C  0.629370991E+01 -0.125749338E+00  0.117734867E+00
   H -0.330597058E+02  0.172528559E+01 -0.240260785E+01
   H  0.324979395E+02 -0.435989103E+00 -0.149277321E+01
     4
 # iter = 61000  time[fs]=61.00000
   C -0.672203873E+01 -0.235293651E-01  0.280113851E+00
   C  0.637711760E+01 -0.127085940E+00  0.119494042E+00
   H -0.334668506E+02  0.174690717E+01 -0.243188317E+01
   H  0.328980454E+02 -0.441134840E+00 -0.151084283E+01
     4
 # iter = 61500  time[fs]=61.50000
   C -0.681022830E+01 -0.237744181E-01  0.284019661E+00
   C  0.646059922E+01 -0.128423260E+00  0.121253145E+00
   H -0.338741476E+02  0.176853754E+01 -0.246117123E+01
   H  0.332983222E+02 -0.446282712E+00 -0.152892168E+01
     4
 # iter = 62000  time[fs]=62.00000
   C -0.689849141E+01 -0.240193142E-01  0.287927329E+00
   C  0.654415286E+01 -0.129761279E+00  0.123012178E+00
   H -0.342815931E+02  0.179017650E+01 -0.249047175E+01
   H  0.336987658E+02 -0.451432668E+00 -0.154700953E+01
     4
 # iter = 62500  time[fs]=62.50000
   C -0.698682619E+01 -0.242640600E-01  0.291836809E+00
   C  0.662777668E+01 -0.131099977E+00  0.124771146E+00
   H -0.346891836E+02  0.181182383E+01 -0.251978443E+01
   H  0.340993725E+02 -0.456584660E+00 -0.156510619E+01
     4
 # iter = 63000  time[fs]=63.00000
   C -0.707523083E+01 -0.245086619E-01  0.295748059E+00
   C  0.671146889E+01 -0.132439335E+00  0.126530051E+00
   H -0.350969159E+02  0.183347937E+01 -0.254910899E+01
   H  0.345001383E+02 -0.461738641E+00 -0.158321145E+01
     4
 # iter = 63500  time[fs]=63.50000
   C -0.716370359E+01 -0.247531260E-01  0.299661037E+00
   C  0.679522780E+01 -0.133779338E+00  0.128288897E+00
   H -0.355047865E+02  0.185514291E+01 -0.257844517E+01
   H  0.349010597E+02 -0.466894565E+00 -0.160132512E+01
     4
 # iter = 64000  time[fs]=64.00000
   C -0.725224277E+01 -0.249974581E-01  0.303575702E+00
   C  0.687905174E+01 -0.135119966E+00  0.130047686E+00
   H -0.359127925E+02  0.187681428E+01 -0.260779269E+01
   H  0.353021332E+02 -0.472052389E+00 -0.161944700E+01
     4
 # iter = 64500  time[fs]=64.50000
   C -0.734084678E+01 -0.252416635E-01  0.307492015E+00
   C  0.696293913E+01 -0.136461204E+00  0.131806421E+00
   H -0.363209307E+02  0.189849330E+01 -0.263715132E+01
   H  0.357033552E+02 -0.477212069E+00 -0.163757691E+01
     4
 # iter = 65000  time[fs]=65.00000
   C -0.742951403E+01 -0.254857476E-01  0.311409940E+00
   C  0.704688844E+01 -0.137803036E+00  0.133565104E+00
   H -0.367291983E+02  0.192017982E+01 -0.266652080E+01
   H  0.361047227E+02 -0.482373565E+00 -0.165571468E+01
     4
 # iter = 65500  time[fs]=65.50000
   C -0.751824302E+01 -0.257297153E-01  0.315329438E+00
   C  0.713089818E+01 -0.139145447E+00  0.135323739E+00
   H -0.371375923E+02  0.194187365E+01 -0.269590091E+01
   H  0.365062322E+02 -0.487536837E+00 -0.167386014E+01
     4
 # iter = 66000  time[fs]=66.00000
   C -0.760703230E+01 -0.259735712E-01  0.319250476E+00
   C  0.721496693E+01 -0.140488423E+00  0.137082327E+00
   H -0.375461101E+02  0.196357466E+01 -0.272529140E+01
   H  0.369078809E+02 -0.492701846E+00 -0.169201312E+01
     4
 # iter = 66500  time[fs]=66.50000
   C -0.769588046E+01 -0.262173200E-01  0.323173020E+00
   C  0.729909331E+01 -0.141831948E+00  0.138840871E+00
   H -0.379547490E+02  0.198528268E+01 -0.275469207E+01
   H  0.373096656E+02 -0.497868555E+00 -0.171017346E+01
     4
 # iter = 67000  time[fs]=67.00000
   C -0.778478614E+01 -0.264609659E-01  0.327097035E+00
   C  0.738327598E+01 -0.143176011E+00  0.140599373E+00
   H -0.383635063E+02  0.200699757E+01 -0.278410269E+01
   H  0.377115836E+02 -0.503036928E+00 -0.172834100E+01
     4
 # iter = 67500  time[fs]=67.50000
   C -0.787374802E+01 -0.267045130E-01  0.331022492E+00
   C  0.746751366E+01 -0.144520596E+00  0.142357835E+00
   H -0.387723797E+02  0.202871919E+01 -0.281352306E+01
   H  0.381136319E+02 -0.508206931E+00 -0.174651561E+01
     4
 # iter = 68000  time[fs]=68.00000
   C -0.796276485E+01 -0.269479652E-01  0.334949358E+00
   C  0.755180511E+01 -0.145865693E+00  0.144116258E+00
   H -0.391813666E+02  0.205044739E+01 -0.284295298E+01
   H  0.385158079E+02 -0.513378528E+00 -0.176469712E+01
     4
 # iter = 68500  time[fs]=68.50000
   C -0.805183538E+01 -0.271913262E-01  0.338877604E+00
   C  0.763614911E+01 -0.147211288E+00  0.145874646E+00
   H -0.395904648E+02  0.207218205E+01 -0.287239226E+01
   H  0.389181090E+02 -0.518551689E+00 -0.178288541E+01
     4
 # iter = 69000  time[fs]=69.00000
   C -0.814095844E+01 -0.274345997E-01  0.342807201E+00
   C  0.772054451E+01 -0.148557371E+00  0.147632998E+00
   H -0.399996719E+02  0.209392303E+01 -0.290184069E+01
   H  0.393205326E+02 -0.523726379E+00 -0.180108033E+01
     4
 # iter = 69500  time[fs]=69.50000
   C -0.823013287E+01 -0.276777890E-01  0.346738121E+00
   C  0.780499017E+01 -0.149903928E+00  0.149391318E+00
   H -0.404089859E+02  0.211567021E+01 -0.293129811E+01
   H  0.397230763E+02 -0.528902570E+00 -0.181928174E+01
     4
 # iter = 70000  time[fs]=70.00000
   C -0.831935756E+01 -0.279208974E-01  0.350670336E+00
   C  0.788948501E+01 -0.151250951E+00  0.151149607E+00
   H -0.408184044E+02  0.213742346E+01 -0.296076433E+01
   H  0.401257376E+02 -0.534080230E+00 -0.183748953E+01
     4
 # iter = 70500  time[fs]=70.50000
   C -0.840863143E+01 -0.281639279E-01  0.354603821E+00
   C  0.797402797E+01 -0.152598428E+00  0.152907866E+00
   H -0.412279255E+02  0.215918267E+01 -0.299023918E+01
   H  0.405285142E+02 -0.539259331E+00 -0.185570357E+01
     4
 # iter = 71000  time[fs]=71.00000
   C -0.849795344E+01 -0.284068836E-01  0.358538550E+00
   C  0.805861803E+01 -0.153946348E+00  0.154666097E+00
   H -0.416375472E+02  0.218094772E+01 -0.301972250E+01
   H  0.409314038E+02 -0.544439844E+00 -0.187392373E+01
     4
 # iter = 71500  time[fs]=71.50000
   C -0.858732258E+01 -0.286497674E-01  0.362474498E+00
   C  0.814325418E+01 -0.155294702E+00  0.156424301E+00
   H -0.420472674E+02  0.220271849E+01 -0.304921411E+01
   H  0.413344043E+02 -0.549621742E+00 -0.189214990E+01
     4
 # iter = 72000  time[fs]=72.00000
   C -0.867673786E+01 -0.288925818E-01  0.366411640E+00
   C  0.822793549E+01 -0.156643481E+00  0.158182480E+00
   H -0.424570844E+02  0.222449489E+01 -0.307871386E+01
   H  0.417375135E+02 -0.554804999E+00 -0.191038197E+01
     4
 # iter = 72500  time[fs]=72.50000
   C -0.876619834E+01 -0.291353297E-01  0.370349955E+00
   C  0.831266100E+01 -0.157992674E+00  0.159940634E+00
   H -0.428669961E+02  0.224627679E+01 -0.310822160E+01
   H  0.421407294E+02 -0.559989588E+00 -0.192861981E+01
     4
 # iter = 73000  time[fs]=73.00000
   C -0.885570308E+01 -0.293780133E-01  0.374289418E+00
   C  0.839742981E+01 -0.159342274E+00  0.161698766E+00
   H -0.432770009E+02  0.226806411E+01 -0.313773718E+01
   H  0.425440499E+02 -0.565175485E+00 -0.194686332E+01
     4
 # iter = 73500  time[fs]=73.50000
   C -0.894525121E+01 -0.296206353E-01  0.378230007E+00
   C  0.848224106E+01 -0.160692270E+00  0.163456876E+00
   H -0.436870970E+02  0.228985673E+01 -0.316726045E+01
   H  0.429474730E+02 -0.570362664E+00 -0.196511241E+01
     4
 # iter = 74000  time[fs]=74.00000
   C -0.903484184E+01 -0.298631978E-01  0.382171702E+00
   C  0.856709388E+01 -0.162042656E+00  0.165214965E+00
   H -0.440972828E+02  0.231165457E+01 -0.319679127E+01
   H  0.433509970E+02 -0.575551103E+00 -0.198336696E+01
     4
 # iter = 74500  time[fs]=74.50000
   C -0.912447413E+01 -0.301057030E-01  0.386114482E+00
   C  0.865198746E+01 -0.163393422E+00  0.166973035E+00
   H -0.445075564E+02  0.233345752E+01 -0.322632951E+01
   H  0.437546198E+02 -0.580740778E+00 -0.200162687E+01
     4
 # iter = 75000  time[fs]=75.00000
   C -0.921414728E+01 -0.303481531E-01  0.390058325E+00
   C  0.873692098E+01 -0.164744561E+00  0.168731086E+00
   H -0.449179165E+02  0.235526550E+01 -0.325587502E+01
   H  0.441583398E+02 -0.585931666E+00 -0.201989206E+01
     4
 # iter = 75500  time[fs]=75.50000
   C -0.930386047E+01 -0.305905501E-01  0.394003213E+00
   C  0.882189368E+01 -0.166096065E+00  0.170489120E+00
   H -0.453283613E+02  0.237707842E+01 -0.328542768E+01
   H  0.445621552E+02 -0.591123746E+00 -0.203816242E+01
     4
 # iter = 76000  time[fs]=76.00000
   C -0.939361294E+01 -0.308328959E-01  0.397949127E+00
   C  0.890690478E+01 -0.167447927E+00  0.172247137E+00
   H -0.457388894E+02  0.239889618E+01 -0.331498737E+01
   H  0.449660642E+02 -0.596316996E+00 -0.205643786E+01
     4
 # iter = 76500  time[fs]=76.50000
   C -0.948340394E+01 -0.310751925E-01  0.401896047E+00
   C  0.899195357E+01 -0.168800139E+00  0.174005138E+00
   H -0.461494993E+02  0.242071870E+01 -0.334455395E+01
   H  0.453700652E+02 -0.601511396E+00 -0.207471829E+01
     4
 # iter = 77000  time[fs]=77.00000
   C -0.957323274E+01 -0.313174415E-01  0.405843955E+00
   C  0.907703931E+01 -0.170152694E+00  0.175763125E+00
   H -0.465601895E+02  0.244254590E+01 -0.337412731E+01
   H  0.457741566E+02 -0.606706925E+00 -0.209300363E+01
     4
 # iter = 77500  time[fs]=77.50000
   C -0.966309863E+01 -0.315596448E-01  0.409792835E+00
   C  0.916216133E+01 -0.171505586E+00  0.177521097E+00
   H -0.469709587E+02  0.246437770E+01 -0.340370733E+01
   H  0.461783367E+02 -0.611903564E+00 -0.211129379E+01
     4
 # iter = 78000  time[fs]=78.00000
   C -0.975300091E+01 -0.318018039E-01  0.413742668E+00
   C  0.924731893E+01 -0.172858808E+00  0.179279057E+00
   H -0.473818055E+02  0.248621403E+01 -0.343329390E+01
   H  0.465826042E+02 -0.617101294E+00 -0.212958869E+01
     4
 # iter = 78500  time[fs]=78.50000
   C -0.984293892E+01 -0.320439205E-01  0.417693438E+00
   C  0.933251147E+01 -0.174212353E+00  0.181037004E+00
   H -0.477927285E+02  0.250805479E+01 -0.346288690E+01
   H  0.469869574E+02 -0.622300095E+00 -0.214788825E+01
     4
 # iter = 79000  time[fs]=79.00000
   C -0.993291201E+01 -0.322859961E-01  0.421645129E+00
   C  0.941773830E+01 -0.175566215E+00  0.182794939E+00
   H -0.482037265E+02  0.252989992E+01 -0.349248624E+01
   H  0.473913950E+02 -0.627499951E+00 -0.216619239E+01
     4
 # iter = 79500  time[fs]=79.50000
   C -0.100229195E+02 -0.325280322E-01  0.425597724E+00
   C  0.950299880E+01 -0.176920389E+00  0.184552863E+00
   H -0.486147981E+02  0.255174935E+01 -0.352209179E+01
   H  0.477959154E+02 -0.632700842E+00 -0.218450103E+01
     4
 # iter = 80000  time[fs]=80.00000
   C -0.101129609E+02 -0.327700302E-01  0.429551208E+00
   C  0.958829237E+01 -0.178274868E+00  0.186310777E+00
   H -0.490259423E+02  0.257360301E+01 -0.355170346E+01
   H  0.482005174E+02 -0.637902751E+00 -0.220281410E+01
