     4
 # iter = 25000  time[fs]=25.00000
   C -0.965332877E+00 -0.475111568E-01  0.210175400E-01
   C  0.977826458E+00 -0.381518024E-01 -0.327082976E-01
   H -0.526336640E+01 -0.442072456E+00 -0.214027213E+00
   H  0.523905110E+01  0.599708048E+00 -0.289789678E+00
     4
 # iter = 25500  time[fs]=25.50000
   C -0.101047179E+01 -0.487845901E-01  0.215067614E-01
   C  0.101747449E+01 -0.425100424E-01 -0.331691009E-01
   H -0.560265936E+01 -0.476134018E+00 -0.235890532E+00
   H  0.554495480E+01  0.630991318E+00 -0.313626806E+00
     4
 # iter = 26000  time[fs]=26.00000
   C -0.105960925E+01 -0.509803855E-01  0.211811812E-01
   C  0.105917675E+01 -0.478981494E-01 -0.346977506E-01
   H -0.595270784E+01 -0.516049679E+00 -0.263394438E+00
   H  0.585099664E+01  0.657606131E+00 -0.343180874E+00
     4
 # iter = 26500  time[fs]=26.50000
   C -0.110974372E+01 -0.513423431E-01  0.227815142E-01
   C  0.110567150E+01 -0.513265299E-01 -0.342959737E-01
   H -0.629680517E+01 -0.545685768E+00 -0.280431309E+00
   H  0.617269041E+01  0.695567561E+00 -0.362329095E+00
     4
 # iter = 27000  time[fs]=27.00000
   C -0.116050283E+01 -0.497313028E-01  0.264335095E-01
   C  0.115687087E+01 -0.526482170E-01 -0.318096505E-01
   H -0.663364565E+01 -0.564203459E+00 -0.286183466E+00
   H  0.651031739E+01  0.745604131E+00 -0.370246700E+00
     4
 # iter = 27500  time[fs]=27.50000
   C -0.121371339E+01 -0.481926702E-01  0.300802230E-01
   C  0.121033182E+01 -0.540890913E-01 -0.294588711E-01
   H -0.697477558E+01 -0.583532052E+00 -0.292597508E+00
   H  0.685144470E+01  0.795683005E+00 -0.378880249E+00
     4
 # iter = 28000  time[fs]=28.00000
   C -0.127062157E+01 -0.481736411E-01  0.322646749E-01
   C  0.126427969E+01 -0.572238277E-01 -0.288134720E-01
   H -0.732829852E+01 -0.612106412E+00 -0.308123143E+00
   H  0.718720535E+01  0.837281358E+00 -0.396678377E+00
     4
 # iter = 28500  time[fs]=28.50000
   C -0.133045814E+01 -0.490877399E-01  0.335651219E-01
   C  0.131916750E+01 -0.614160315E-01 -0.292329296E-01
   H -0.769046804E+01 -0.646477183E+00 -0.329324175E+00
   H  0.752069083E+01  0.873779919E+00 -0.420198117E+00
     4
 # iter = 29000  time[fs]=29.00000
   C -0.139162046E+01 -0.494981395E-01  0.354114724E-01
   C  0.137638932E+01 -0.651044634E-01 -0.291525584E-01
   H -0.805260257E+01 -0.678226505E+00 -0.347794326E+00
   H  0.786001527E+01  0.913540547E+00 -0.441024356E+00
     4
 # iter = 29500  time[fs]=29.50000
   C -0.145346136E+01 -0.489084538E-01  0.382942437E-01
   C  0.143633331E+01 -0.677494810E-01 -0.280299595E-01
   H -0.841155434E+01 -0.704434861E+00 -0.360624056E+00
   H  0.820782620E+01  0.959430545E+00 -0.456242465E+00
     4
 # iter = 30000  time[fs]=30.00000
   C -0.151653904E+01 -0.480138912E-01  0.415132324E-01
   C  0.149810750E+01 -0.701061256E-01 -0.266180220E-01
   H -0.877117346E+01 -0.729148958E+00 -0.371868640E+00
   H  0.855982863E+01  0.100735258E+01 -0.469907099E+00
     4
 # iter = 30500  time[fs]=30.50000
   C -0.158150518E+01 -0.475901482E-01  0.442885008E-01
   C  0.156074594E+01 -0.730166082E-01 -0.257572614E-01
   H -0.913580524E+01 -0.756886842E+00 -0.386053621E+00
   H  0.891128319E+01  0.105274312E+01 -0.486543745E+00
     4
 # iter = 31000  time[fs]=31.00000
   C -0.164825885E+01 -0.476481912E-01  0.466054904E-01
   C  0.162412588E+01 -0.764917575E-01 -0.254571473E-01
   H -0.950534347E+01 -0.787697191E+00 -0.403234360E+00
   H  0.926194882E+01  0.109551580E+01 -0.506205280E+00
     4
 # iter = 31500  time[fs]=31.50000
   C -0.171619336E+01 -0.476823013E-01  0.489668713E-01
   C  0.168869699E+01 -0.799806867E-01 -0.251657115E-01
   H -0.987667802E+01 -0.818609343E+00 -0.420446177E+00
   H  0.961462805E+01  0.113860975E+01 -0.525922992E+00
     4
 # iter = 32000  time[fs]=32.00000
   C -0.178490404E+01 -0.473791126E-01  0.516834077E-01
   C  0.175470968E+01 -0.831414908E-01 -0.245402147E-01
   H -0.102478391E+02 -0.847778128E+00 -0.435849232E+00
   H  0.997101489E+01  0.118384133E+01 -0.543853983E+00
     4
 # iter = 32500  time[fs]=32.50000
   C -0.185444143E+01 -0.468718838E-01  0.546196101E-01
   C  0.182193772E+01 -0.861176478E-01 -0.237235142E-01
   H -0.106194822E+02 -0.875970191E+00 -0.450214907E+00
   H  0.103302045E+02  0.123041631E+01 -0.560768426E+00
     4
 # iter = 33000  time[fs]=33.00000
   C -0.192500503E+01 -0.464350828E-01  0.574990938E-01
   C  0.189000925E+01 -0.892060913E-01 -0.230120908E-01
   H -0.109931006E+02 -0.904778451E+00 -0.465140358E+00
   H  0.106904784E+02  0.127671625E+01 -0.578262942E+00
     4
 # iter = 33500  time[fs]=33.50000
   C -0.199660751E+01 -0.461493524E-01  0.602395680E-01
   C  0.195877002E+01 -0.924930830E-01 -0.224918822E-01
   H -0.113690646E+02 -0.934663435E+00 -0.481089934E+00
   H  0.110512633E+02  0.132225823E+01 -0.596800761E+00
     4
 # iter = 34000  time[fs]=34.00000
   C -0.206907063E+01 -0.458981586E-01  0.629561456E-01
   C  0.202828635E+01 -0.958505901E-01 -0.220346327E-01
   H -0.117466008E+02 -0.964933676E+00 -0.497375632E+00
   H  0.114131495E+02  0.136771411E+01 -0.615692163E+00
     4
 # iter = 34500  time[fs]=34.50000
   C -0.214222436E+01 -0.455675748E-01  0.657615244E-01
   C  0.209862725E+01 -0.991534447E-01 -0.215150363E-01
   H -0.121249590E+02 -0.994913650E+00 -0.513325068E+00
   H  0.117767205E+02  0.141374163E+01 -0.634263187E+00
     4
 # iter = 35000  time[fs]=35.00000
   C -0.221601984E+01 -0.451598810E-01  0.686523569E-01
   C  0.216974039E+01 -0.102402826E+00 -0.209342043E-01
   H -0.125040759E+02 -0.102460784E+01 -0.528945583E+00
   H  0.121418875E+02  0.146031963E+01 -0.652520146E+00
     4
 # iter = 35500  time[fs]=35.50000
   C -0.229047619E+01 -0.447408548E-01  0.715619361E-01
   C  0.224150888E+01 -0.105668974E+00 -0.203623643E-01
   H -0.128842658E+02 -0.105439254E+01 -0.544616055E+00
   H  0.125081968E+02  0.150705633E+01 -0.670841224E+00
     4
 # iter = 36000  time[fs]=36.00000
   C -0.236558674E+01 -0.443464696E-01  0.744534773E-01
   C  0.231385220E+01 -0.108989780E+00 -0.198374402E-01
   H -0.132656747E+02 -0.108447030E+01 -0.560541431E+00
   H  0.128753750E+02  0.155373500E+01 -0.689430633E+00
     4
 # iter = 36500  time[fs]=36.50000
   C -0.244129729E+01 -0.439615593E-01  0.773414369E-01
   C  0.238674894E+01 -0.112347602E+00 -0.193418540E-01
   H -0.136481546E+02 -0.111474524E+01 -0.576627976E+00
   H  0.132434531E+02  0.160043878E+01 -0.708193787E+00
     4
 # iter = 37000  time[fs]=37.00000
   C -0.251754512E+01 -0.435591842E-01  0.802521320E-01
   C  0.246019371E+01 -0.115712050E+00 -0.188453088E-01
   H -0.140314933E+02 -0.114505306E+01 -0.592713415E+00
   H  0.136125357E+02  0.164732018E+01 -0.726967579E+00
     4
 # iter = 37500  time[fs]=37.50000
   C -0.259429098E+01 -0.431329744E-01  0.831913843E-01
   C  0.253416162E+01 -0.119075143E+00 -0.183399369E-01
   H -0.144156031E+02 -0.117535020E+01 -0.608756010E+00
   H  0.139826115E+02  0.169441187E+01 -0.745709581E+00
     4
 # iter = 38000  time[fs]=38.00000
   C -0.267151528E+01 -0.426935673E-01  0.861480737E-01
   C  0.260861188E+01 -0.122447437E+00 -0.178364220E-01
   H -0.148004994E+02 -0.120569290E+01 -0.624813708E+00
   H  0.143535731E+02  0.174164744E+01 -0.764477163E+00
     4
 # iter = 38500  time[fs]=38.50000
   C -0.274919935E+01 -0.422501489E-01  0.891125865E-01
   C  0.268350761E+01 -0.125837957E+00 -0.173439309E-01
   H -0.151861928E+02 -0.123612931E+01 -0.640936212E+00
   H  0.147253253E+02  0.178896933E+01 -0.783319500E+00
     4
 # iter = 39000  time[fs]=39.00000
   C -0.282731745E+01 -0.418027071E-01  0.920845566E-01
   C  0.275882403E+01 -0.129245778E+00 -0.168616874E-01
   H -0.155726428E+02 -0.126665412E+01 -0.657119675E+00
   H  0.150978296E+02  0.183637414E+01 -0.802232218E+00
     4
 # iter = 39500  time[fs]=39.50000
   C -0.290584174E+01 -0.413471653E-01  0.950677243E-01
   C  0.283454267E+01 -0.132665603E+00 -0.163845491E-01
   H -0.159597884E+02 -0.129723859E+01 -0.673336700E+00
   H  0.154710742E+02  0.188388251E+01 -0.821187418E+00
     4
 # iter = 40000  time[fs]=40.00000
   C -0.298474845E+01 -0.408817313E-01  0.980635826E-01
   C  0.291064430E+01 -0.136094659E+00 -0.159099031E-01
   H -0.163475843E+02 -0.132786764E+01 -0.689573446E+00
   H  0.158450363E+02  0.193150200E+01 -0.840170804E+00
     4
 # iter = 40500  time[fs]=40.50000
   C -0.306401841E+01 -0.404076513E-01  0.101070618E+00
   C  0.298710798E+01 -0.139533519E+00 -0.154384826E-01
   H -0.167360051E+02 -0.135854420E+01 -0.705834024E+00
   H  0.162196778E+02  0.197922261E+01 -0.859186072E+00
     4
 # iter = 41000  time[fs]=41.00000
   C -0.314363441E+01 -0.399266383E-01  0.104086880E+00
   C  0.306391365E+01 -0.142983302E+00 -0.149715678E-01
   H -0.171250306E+02 -0.138927421E+01 -0.722125447E+00
   H  0.165949599E+02  0.202703183E+01 -0.878239853E+00
     4
 # iter = 41500  time[fs]=41.50000
   C -0.322357941E+01 -0.394392622E-01  0.107111585E+00
   C  0.314104379E+01 -0.146443921E+00 -0.145092334E-01
   H -0.175146358E+02 -0.142005715E+01 -0.738448213E+00
   H  0.169708523E+02  0.207492402E+01 -0.897332283E+00
     4
 # iter = 42000  time[fs]=42.00000
   C -0.330383683E+01 -0.389453135E-01  0.110144749E+00
   C  0.321848294E+01 -0.149914479E+00 -0.140507409E-01
   H -0.179047928E+02 -0.145088817E+01 -0.754798412E+00
   H  0.173473311E+02  0.212289825E+01 -0.916459116E+00
     4
 # iter = 42500  time[fs]=42.50000
   C -0.338439128E+01 -0.384446834E-01  0.113186311E+00
   C  0.329621656E+01 -0.153394219E+00 -0.135954921E-01
   H -0.182954760E+02 -0.148176320E+01 -0.771172868E+00
   H  0.177243733E+02  0.217095318E+01 -0.935616857E+00
     4
 # iter = 43000  time[fs]=43.00000
   C -0.346522876E+01 -0.379376285E-01  0.116235858E+00
   C  0.337423075E+01 -0.156882814E+00 -0.131433158E-01
   H -0.186866636E+02 -0.151268051E+01 -0.787570680E+00
   H  0.181019555E+02  0.221908545E+01 -0.954804310E+00
     4
 # iter = 43500  time[fs]=43.50000
   C -0.354633632E+01 -0.374245285E-01  0.119292870E+00
   C  0.345251232E+01 -0.160380103E+00 -0.126942007E-01
   H -0.190783356E+02 -0.154363925E+01 -0.803991785E+00
   H  0.184800545E+02  0.226729112E+01 -0.974021138E+00
     4
 # iter = 44000  time[fs]=44.00000
   C -0.362770177E+01 -0.369056624E-01  0.122356943E+00
   C  0.353104908E+01 -0.163885840E+00 -0.122480512E-01
   H -0.194704730E+02 -0.157463817E+01 -0.820435657E+00
   H  0.188586494E+02  0.231556693E+01 -0.993266554E+00
     4
 # iter = 44500  time[fs]=44.50000
   C -0.370931362E+01 -0.363812042E-01  0.125427789E+00
   C  0.360982966E+01 -0.167399694E+00 -0.118046806E-01
   H -0.198630573E+02 -0.160567554E+01 -0.836901261E+00
   H  0.192377206E+02  0.236391037E+01 -0.101253928E+01
     4
 # iter = 45000  time[fs]=45.00000
   C -0.379116104E+01 -0.358513090E-01  0.128505147E+00
   C  0.368884345E+01 -0.170921338E+00 -0.113639033E-01
   H -0.202560710E+02 -0.163674968E+01 -0.853387560E+00
   H  0.196172501E+02  0.241231910E+01 -0.103183805E+01
     4
 # iter = 45500  time[fs]=45.50000
   C -0.387323395E+01 -0.353161551E-01  0.131588747E+00
   C  0.376808045E+01 -0.174450492E+00 -0.109255784E-01
   H -0.206494976E+02 -0.166785915E+01 -0.869893745E+00
   H  0.199972204E+02  0.246079076E+01 -0.105116184E+01
     4
 # iter = 46000  time[fs]=46.00000
   C -0.395552285E+01 -0.347759303E-01  0.134678315E+00
   C  0.384753122E+01 -0.177986912E+00 -0.104895940E-01
   H -0.210433217E+02 -0.169900273E+01 -0.886419158E+00
   H  0.203776150E+02  0.250932300E+01 -0.107050979E+01
     4
 # iter = 46500  time[fs]=46.50000
   C -0.403801883E+01 -0.342308105E-01  0.137773597E+00
   C  0.392718691E+01 -0.181530360E+00 -0.100558424E-01
   H -0.214375290E+02 -0.173017921E+01 -0.902963155E+00
   H  0.207584184E+02  0.255791361E+01 -0.108988106E+01
     4
 # iter = 47000  time[fs]=47.00000
   C -0.412071347E+01 -0.336809561E-01  0.140874362E+00
   C  0.400703919E+01 -0.185080601E+00 -0.962421523E-02
   H -0.218321055E+02 -0.176138743E+01 -0.919525082E+00
   H  0.211396159E+02  0.260656055E+01 -0.110927482E+01
     4
 # iter = 47500  time[fs]=47.50000
   C -0.420359884E+01 -0.331265177E-01  0.143980396E+00
   C  0.408708020E+01 -0.188637409E+00 -0.919460832E-02
   H -0.222270381E+02 -0.179262627E+01 -0.936104304E+00
   H  0.215211934E+02  0.265526190E+01 -0.112869026E+01
     4
 # iter = 48000  time[fs]=48.00000
   C -0.428666746E+01 -0.325676411E-01  0.147091492E+00
   C  0.416730254E+01 -0.192200570E+00 -0.876692615E-02
   H -0.226223144E+02 -0.182389465E+01 -0.952700230E+00
   H  0.219031378E+02  0.270401581E+01 -0.114812662E+01
     4
 # iter = 48500  time[fs]=48.50000
   C -0.436991226E+01 -0.320044669E-01  0.150207458E+00
   C  0.424769920E+01 -0.195769881E+00 -0.834108081E-02
   H -0.230179226E+02 -0.185519160E+01 -0.969312303E+00
   H  0.222854365E+02  0.275282053E+01 -0.116758321E+01
     4
 # iter = 49000  time[fs]=49.00000
   C -0.445332657E+01 -0.314371297E-01  0.153328109E+00
   C  0.432826356E+01 -0.199345149E+00 -0.791699000E-02
   H -0.234138516E+02 -0.188651615E+01 -0.985939998E+00
   H  0.226680775E+02  0.280167438E+01 -0.118705935E+01
     4
 # iter = 49500  time[fs]=49.50000
   C -0.453690406E+01 -0.308657580E-01  0.156453271E+00
   C  0.440898937E+01 -0.202926189E+00 -0.749457598E-02
   H -0.238100906E+02 -0.191786741E+01 -0.100258281E+01
   H  0.230510495E+02  0.285057577E+01 -0.120655438E+01
     4
 # iter = 50000  time[fs]=50.00000
   C -0.462063875E+01 -0.302904742E-01  0.159582780E+00
   C  0.448987068E+01 -0.206512823E+00 -0.707376548E-02
   H -0.242066296E+02 -0.194924452E+01 -0.101924026E+01
   H  0.234343416E+02  0.289952320E+01 -0.122606772E+01
     4
 # iter = 50500  time[fs]=50.50000
   C -0.470452497E+01 -0.297113960E-01  0.162716482E+00
   C  0.457090189E+01 -0.210104882E+00 -0.665448964E-02
   H -0.246034589E+02 -0.198064665E+01 -0.103591188E+01
   H  0.238179437E+02  0.294851522E+01 -0.124559876E+01
     4
 # iter = 51000  time[fs]=51.00000
   C -0.478855732E+01 -0.291286358E-01  0.165854227E+00
   C  0.465207766E+01 -0.213702203E+00 -0.623668372E-02
   H -0.250005693E+02 -0.201207302E+01 -0.105259724E+01
   H  0.242018458E+02  0.299755045E+01 -0.126514695E+01
     4
 # iter = 51500  time[fs]=51.50000
   C -0.487273071E+01 -0.285423016E-01  0.168995877E+00
   C  0.473339293E+01 -0.217304632E+00 -0.582028673E-02
   H -0.253979521E+02 -0.204352289E+01 -0.106929593E+01
   H  0.245860387E+02  0.304662757E+01 -0.128471177E+01
     4
 # iter = 52000  time[fs]=52.00000
   C -0.495704028E+01 -0.279524968E-01  0.172141298E+00
   C  0.481484289E+01 -0.220912019E+00 -0.540524112E-02
   H -0.257955988E+02 -0.207499555E+01 -0.108600753E+01
   H  0.249705133E+02  0.309574534E+01 -0.130429270E+01
     4
 # iter = 52500  time[fs]=52.50000
   C -0.504148141E+01 -0.273593207E-01  0.175290365E+00
   C  0.489642298E+01 -0.224524223E+00 -0.499149256E-02
   H -0.261935014E+02 -0.210649031E+01 -0.110273168E+01
   H  0.253552612E+02  0.314490255E+01 -0.132388927E+01
     4
 # iter = 53000  time[fs]=53.00000
   C -0.512604970E+01 -0.267628683E-01  0.178442955E+00
   C  0.497812883E+01 -0.228141105E+00 -0.457898971E-02
   H -0.265916524E+02 -0.213800653E+01 -0.111946800E+01
   H  0.257402742E+02  0.319409804E+01 -0.134350101E+01
     4
 # iter = 53500  time[fs]=53.50000
   C -0.521074098E+01 -0.261632312E-01  0.181598956E+00
   C  0.505995631E+01 -0.231762536E+00 -0.416768401E-02
   H -0.269900444E+02 -0.216954358E+01 -0.113621615E+01
   H  0.261255445E+02  0.324333073E+01 -0.136312747E+01
     4
 # iter = 54000  time[fs]=54.00000
   C -0.529555125E+01 -0.255604971E-01  0.184758258E+00
   C  0.514190147E+01 -0.235388388E+00 -0.375752951E-02
   H -0.273886705E+02 -0.220110086E+01 -0.115297579E+01
   H  0.265110646E+02  0.329259956E+01 -0.138276824E+01
     4
 # iter = 54500  time[fs]=54.50000
   C -0.538047672E+01 -0.249547502E-01  0.187920756E+00
   C  0.522396054E+01 -0.239018542E+00 -0.334848268E-02
   H -0.277875238E+02 -0.223267781E+01 -0.116974661E+01
   H  0.268968273E+02  0.334190351E+01 -0.140242291E+01
     4
 # iter = 55000  time[fs]=55.00000
   C -0.546551375E+01 -0.243460718E-01  0.191086353E+00
   C  0.530612994E+01 -0.242652881E+00 -0.294050226E-02
   H -0.281865981E+02 -0.226427387E+01 -0.118652828E+01
   H  0.272828259E+02  0.339124162E+01 -0.142209109E+01
     4
 # iter = 55500  time[fs]=55.50000
   C -0.555065890E+01 -0.237345398E-01  0.194254952E+00
   C  0.538840623E+01 -0.246291294E+00 -0.253354910E-02
   H -0.285858871E+02 -0.229588853E+01 -0.120332053E+01
   H  0.276690538E+02  0.344061296E+01 -0.144177241E+01
     4
 # iter = 56000  time[fs]=56.00000
   C -0.563590883E+01 -0.231202291E-01  0.197426463E+00
   C  0.547078615E+01 -0.249933672E+00 -0.212758603E-02
   H -0.289853850E+02 -0.232752127E+01 -0.122012306E+01
   H  0.280555046E+02  0.349001663E+01 -0.146146651E+01
     4
 # iter = 56500  time[fs]=56.50000
   C -0.572126040E+01 -0.225032120E-01  0.200600799E+00
   C  0.555326655E+01 -0.253579913E+00 -0.172257774E-02
   H -0.293850861E+02 -0.235917162E+01 -0.123693560E+01
   H  0.284421724E+02  0.353945179E+01 -0.148117304E+01
     4
 # iter = 57000  time[fs]=57.00000
   C -0.580671057E+01 -0.218835579E-01  0.203777878E+00
   C  0.563584444E+01 -0.257229917E+00 -0.131849067E-02
   H -0.297849849E+02 -0.239083910E+01 -0.125375790E+01
   H  0.288290512E+02  0.358891760E+01 -0.150089168E+01
     4
 # iter = 57500  time[fs]=57.50000
   C -0.589225645E+01 -0.212613338E-01  0.206957621E+00
   C  0.571851696E+01 -0.260883589E+00 -0.915292853E-03
   H -0.301850763E+02 -0.242252328E+01 -0.127058969E+01
   H  0.292161356E+02  0.363841327E+01 -0.152062211E+01
     4
 # iter = 58000  time[fs]=58.00000
   C -0.597789526E+01 -0.206366042E-01  0.210139950E+00
   C  0.580128136E+01 -0.264540837E+00 -0.512953894E-03
   H -0.305853551E+02 -0.245422372E+01 -0.128743074E+01
   H  0.296034202E+02  0.368793804E+01 -0.154036402E+01
     4
 # iter = 58500  time[fs]=58.50000
   C -0.606362435E+01 -0.200094313E-01  0.213324795E+00
   C  0.588413500E+01 -0.268201571E+00 -0.111444818E-03
   H -0.309858167E+02 -0.248594002E+01 -0.130428082E+01
   H  0.299908997E+02  0.373749118E+01 -0.156011712E+01
     4
 # iter = 59000  time[fs]=59.00000
   C -0.614944116E+01 -0.193798750E-01  0.216512084E+00
   C  0.596707537E+01 -0.271865705E+00  0.289261993E-03
   H -0.313864563E+02 -0.251767176E+01 -0.132113970E+01
   H  0.303785693E+02  0.378707199E+01 -0.157988113E+01
     4
 # iter = 59500  time[fs]=59.50000
   C -0.623534325E+01 -0.187479932E-01  0.219701750E+00
   C  0.605010004E+01 -0.275533158E+00  0.689192883E-03
   H -0.317872694E+02 -0.254941857E+01 -0.133800716E+01
   H  0.307664242E+02  0.383667977E+01 -0.159965577E+01
     4
 # iter = 60000  time[fs]=60.00000
   C -0.632132828E+01 -0.181138418E-01  0.222893730E+00
   C  0.613320670E+01 -0.279203850E+00  0.108837300E-02
   H -0.321882518E+02 -0.258118008E+01 -0.135488300E+01
   H  0.311544597E+02  0.388631388E+01 -0.161944079E+01
     4
 # iter = 60500  time[fs]=60.50000
   C -0.640739398E+01 -0.174774746E-01  0.226087962E+00
   C  0.621639310E+01 -0.282877703E+00  0.148682635E-02
   H -0.325893993E+02 -0.261295594E+01 -0.137176701E+01
   H  0.315426715E+02  0.393597368E+01 -0.163923593E+01
     4
 # iter = 61000  time[fs]=61.00000
   C -0.649353820E+01 -0.168389437E-01  0.229284385E+00
   C  0.629965712E+01 -0.286554643E+00  0.188457588E-02
   H -0.329907078E+02 -0.264474579E+01 -0.138865900E+01
   H  0.319310552E+02  0.398565857E+01 -0.165904095E+01
     4
 # iter = 61500  time[fs]=61.50000
   C -0.657975886E+01 -0.161982993E-01  0.232482944E+00
   C  0.638299668E+01 -0.290234599E+00  0.228164354E-02
   H -0.333921737E+02 -0.267654931E+01 -0.140555879E+01
   H  0.323196068E+02  0.403536795E+01 -0.167885562E+01
     4
 # iter = 62000  time[fs]=62.00000
   C -0.666605394E+01 -0.155555900E-01  0.235683582E+00
   C  0.646640981E+01 -0.293917501E+00  0.267805031E-02
   H -0.337937930E+02 -0.270836619E+01 -0.142246620E+01
   H  0.327083222E+02  0.408510125E+01 -0.169867970E+01
     4
 # iter = 62500  time[fs]=62.50000
   C -0.675242153E+01 -0.149108629E-01  0.238886248E+00
   C  0.654989461E+01 -0.297603282E+00  0.307381628E-02
   H -0.341955622E+02 -0.274019610E+01 -0.143938104E+01
   H  0.330971977E+02  0.413485793E+01 -0.171851298E+01
     4
 # iter = 63000  time[fs]=63.00000
   C -0.683885977E+01 -0.142641634E-01  0.242090891E+00
   C  0.663344923E+01 -0.301291877E+00  0.346896070E-02
   H -0.345974779E+02 -0.277203876E+01 -0.145630315E+01
   H  0.334862294E+02  0.418463746E+01 -0.173835524E+01
     4
 # iter = 63500  time[fs]=63.50000
   C -0.692536688E+01 -0.136155354E-01  0.245297461E+00
   C  0.671707192E+01 -0.304983224E+00  0.386350198E-02
   H -0.349995366E+02 -0.280389387E+01 -0.147323238E+01
   H  0.338754139E+02  0.423443932E+01 -0.175820629E+01
     4
 # iter = 64000  time[fs]=64.00000
   C -0.701194114E+01 -0.129650215E-01  0.248505911E+00
   C  0.680076098E+01 -0.308677262E+00  0.425745781E-02
   H -0.354017352E+02 -0.283576116E+01 -0.149016855E+01
   H  0.342647477E+02  0.428426302E+01 -0.177806592E+01
     4
 # iter = 64500  time[fs]=64.50000
   C -0.709858088E+01 -0.123126628E-01  0.251716195E+00
   C  0.688451475E+01 -0.312373932E+00  0.465084514E-02
   H -0.358040706E+02 -0.286764036E+01 -0.150711152E+01
   H  0.346542273E+02  0.433410808E+01 -0.179793395E+01
     4
 # iter = 65000  time[fs]=65.00000
   C -0.718528452E+01 -0.116584992E-01  0.254928270E+00
   C  0.696833167E+01 -0.316073178E+00  0.504368022E-02
   H -0.362065396E+02 -0.289953120E+01 -0.152406115E+01
   H  0.350438497E+02  0.438397403E+01 -0.181781019E+01
     4
 # iter = 65500  time[fs]=65.50000
   C -0.727205051E+01 -0.110025693E-01  0.258142094E+00
   C  0.705221020E+01 -0.319774945E+00  0.543597868E-02
   H -0.366091394E+02 -0.293143344E+01 -0.154101728E+01
   H  0.354336116E+02  0.443386042E+01 -0.183769446E+01
     4
 # iter = 66000  time[fs]=66.00000
   C -0.735887736E+01 -0.103449105E-01  0.261357625E+00
   C  0.713614888E+01 -0.323479178E+00  0.582775550E-02
   H -0.370118671E+02 -0.296334684E+01 -0.155797978E+01
   H  0.358235101E+02  0.448376683E+01 -0.185758659E+01
     4
 # iter = 66500  time[fs]=66.50000
   C -0.744576364E+01 -0.968555919E-02  0.264574824E+00
   C  0.722014628E+01 -0.327185827E+00  0.621902510E-02
   H -0.374147200E+02 -0.299527114E+01 -0.157494852E+01
   H  0.362135422E+02  0.453369282E+01 -0.187748641E+01
     4
 # iter = 67000  time[fs]=67.00000
   C -0.753270795E+01 -0.902455042E-02  0.267793652E+00
   C  0.730420104E+01 -0.330894841E+00  0.660980134E-02
   H -0.378176954E+02 -0.302720613E+01 -0.159192337E+01
   H  0.366037050E+02  0.458363800E+01 -0.189739375E+01
     4
 # iter = 67500  time[fs]=67.50000
   C -0.761970897E+01 -0.836191832E-02  0.271014073E+00
   C  0.738831182E+01 -0.334606171E+00  0.700009754E-02
   H -0.382207907E+02 -0.305915159E+01 -0.160890419E+01
   H  0.369939958E+02  0.463360196E+01 -0.191730848E+01
     4
 # iter = 68000  time[fs]=68.00000
   C -0.770676539E+01 -0.769769597E-02  0.274236052E+00
   C  0.747247735E+01 -0.338319772E+00  0.738992651E-02
   H -0.386240035E+02 -0.309110729E+01 -0.162589088E+01
   H  0.373844120E+02  0.468358432E+01 -0.193723042E+01
     4
 # iter = 68500  time[fs]=68.50000
   C -0.779387596E+01 -0.703191545E-02  0.277459553E+00
   C  0.755669639E+01 -0.342035596E+00  0.777930059E-02
   H -0.390273314E+02 -0.312307304E+01 -0.164288331E+01
   H  0.377749509E+02  0.473358471E+01 -0.195715943E+01
     4
 # iter = 69000  time[fs]=69.00000
   C -0.788103948E+01 -0.636460793E-02  0.280684543E+00
   C  0.764096773E+01 -0.345753600E+00  0.816823168E-02
   H -0.394307719E+02 -0.315504863E+01 -0.165988136E+01
   H  0.381656101E+02  0.478360276E+01 -0.197709537E+01
     4
 # iter = 69500  time[fs]=69.50000
   C -0.796825476E+01 -0.569580365E-02  0.283910990E+00
   C  0.772529024E+01 -0.349473740E+00  0.855673121E-02
   H -0.398343228E+02 -0.318703385E+01 -0.167688493E+01
   H  0.385563872E+02  0.483363814E+01 -0.199703810E+01
     4
 # iter = 70000  time[fs]=70.00000
   C -0.805552068E+01 -0.502553197E-02  0.287138863E+00
   C  0.780966277E+01 -0.353195974E+00  0.894481022E-02
   H -0.402379820E+02 -0.321902853E+01 -0.169389390E+01
   H  0.389472797E+02  0.488369049E+01 -0.201698749E+01
     4
 # iter = 70500  time[fs]=70.50000
   C -0.814283614E+01 -0.435382143E-02  0.290368132E+00
   C  0.789408425E+01 -0.356920263E+00  0.933247934E-02
   H -0.406417472E+02 -0.325103248E+01 -0.171090818E+01
   H  0.393382853E+02  0.493375949E+01 -0.203694340E+01
     4
 # iter = 71000  time[fs]=71.00000
   C -0.823020008E+01 -0.368069975E-02  0.293598766E+00
   C  0.797855362E+01 -0.360646565E+00  0.971974883E-02
   H -0.410456163E+02 -0.328304551E+01 -0.172792766E+01
   H  0.397294020E+02  0.498384482E+01 -0.205690571E+01
     4
 # iter = 71500  time[fs]=71.50000
   C -0.831761146E+01 -0.300619387E-02  0.296830739E+00
   C  0.806306987E+01 -0.364374844E+00  0.101066286E-01
   H -0.414495875E+02 -0.331506746E+01 -0.174495224E+01
   H  0.401206274E+02  0.503394616E+01 -0.207687429E+01
     4
 # iter = 72000  time[fs]=72.00000
   C -0.840506930E+01 -0.233032997E-02  0.300064021E+00
   C  0.814763201E+01 -0.368105062E+00  0.104931282E-01
   H -0.418536586E+02 -0.334709815E+01 -0.176198182E+01
   H  0.405119595E+02  0.508406321E+01 -0.209684902E+01
     4
 # iter = 72500  time[fs]=72.50000
   C -0.849257261E+01 -0.165313353E-02  0.303298586E+00
   C  0.823223909E+01 -0.371837182E+00  0.108792568E-01
   H -0.422578279E+02 -0.337913742E+01 -0.177901632E+01
   H  0.409033963E+02  0.513419569E+01 -0.211682980E+01
     4
 # iter = 73000  time[fs]=73.00000
   C -0.858012047E+01 -0.974629306E-03  0.306534410E+00
   C  0.831689017E+01 -0.375571169E+00  0.112650234E-01
   H -0.426620933E+02 -0.341118511E+01 -0.179605563E+01
   H  0.412949358E+02  0.518434329E+01 -0.213681650E+01
     4
 # iter = 73500  time[fs]=73.50000
   C -0.866771196E+01 -0.294841397E-03  0.309771465E+00
   C  0.840158436E+01 -0.379306989E+00  0.116504365E-01
   H -0.430664533E+02 -0.344324106E+01 -0.181309968E+01
   H  0.416865761E+02  0.523450575E+01 -0.215680901E+01
     4
 # iter = 74000  time[fs]=74.00000
   C -0.875534621E+01  0.386206755E-03  0.313009728E+00
   C  0.848632078E+01 -0.383044608E+00  0.120355045E-01
   H -0.434709059E+02 -0.347530513E+01 -0.183014837E+01
   H  0.420783153E+02  0.528468279E+01 -0.217680723E+01
     4
 # iter = 74500  time[fs]=74.50000
   C -0.884302234E+01  0.106849233E-02  0.316249176E+00
   C  0.857109859E+01 -0.386783995E+00  0.124202354E-01
   H -0.438754495E+02 -0.350737716E+01 -0.184720163E+01
   H  0.424701515E+02  0.533487415E+01 -0.219681105E+01
     4
 # iter = 75000  time[fs]=75.00000
   C -0.893073955E+01  0.175199312E-02  0.319489784E+00
   C  0.865591696E+01 -0.390525117E+00  0.128046370E-01
   H -0.442800824E+02 -0.353945701E+01 -0.186425937E+01
   H  0.428620831E+02  0.538507957E+01 -0.221682038E+01
     4
 # iter = 75500  time[fs]=75.50000
   C -0.901849701E+01  0.243668749E-02  0.322731532E+00
   C  0.874077510E+01 -0.394267943E+00  0.131887168E-01
   H -0.446848031E+02 -0.357154454E+01 -0.188132150E+01
   H  0.432541082E+02  0.543529880E+01 -0.223683511E+01
     4
 # iter = 76000  time[fs]=76.00000
   C -0.910629394E+01  0.312255437E-02  0.325974396E+00
   C  0.882567224E+01 -0.398012444E+00  0.135724822E-01
   H -0.450896099E+02 -0.360363962E+01 -0.189838796E+01
   H  0.436462253E+02  0.548553161E+01 -0.225685514E+01
     4
 # iter = 76500  time[fs]=76.50000
   C -0.919412958E+01  0.380957325E-02  0.329218357E+00
   C  0.891060761E+01 -0.401758590E+00  0.139559400E-01
   H -0.454945013E+02 -0.363574211E+01 -0.191545867E+01
   H  0.440384326E+02  0.553577774E+01 -0.227688039E+01
     4
 # iter = 77000  time[fs]=77.00000
   C -0.928200319E+01  0.449772414E-02  0.332463393E+00
   C  0.899558049E+01 -0.405506352E+00  0.143390973E-01
   H -0.458994758E+02 -0.366785189E+01 -0.193253356E+01
   H  0.444307286E+02  0.558603698E+01 -0.229691076E+01
     4
 # iter = 77500  time[fs]=77.50000
   C -0.936991405E+01  0.518698754E-02  0.335709484E+00
   C  0.908059016E+01 -0.409255704E+00  0.147219605E-01
   H -0.463045321E+02 -0.369996883E+01 -0.194961255E+01
   H  0.448231118E+02  0.563630910E+01 -0.231694616E+01
     4
 # iter = 78000  time[fs]=78.00000
   C -0.945786146E+01  0.587734446E-02  0.338956612E+00
   C  0.916563594E+01 -0.413006618E+00  0.151045361E-01
   H -0.467096686E+02 -0.373209280E+01 -0.196669557E+01
   H  0.452155806E+02  0.568659388E+01 -0.233698651E+01
     4
 # iter = 78500  time[fs]=78.50000
   C -0.954584474E+01  0.656877640E-02  0.342204756E+00
   C  0.925071715E+01 -0.416759068E+00  0.154868303E-01
   H -0.471148840E+02 -0.376422369E+01 -0.198378256E+01
   H  0.456081336E+02  0.573689110E+01 -0.235703173E+01
     4
 # iter = 79000  time[fs]=79.00000
   C -0.963386323E+01  0.726126528E-02  0.345453900E+00
   C  0.933583314E+01 -0.420513027E+00  0.158688492E-01
   H -0.475201769E+02 -0.379636138E+01 -0.200087345E+01
   H  0.460007693E+02  0.578720055E+01 -0.237708172E+01
     4
 # iter = 79500  time[fs]=79.50000
   C -0.972191629E+01  0.795479349E-02  0.348704024E+00
   C  0.942098326E+01 -0.424268471E+00  0.162505984E-01
   H -0.479255461E+02 -0.382850577E+01 -0.201796818E+01
   H  0.463934863E+02  0.583752205E+01 -0.239713642E+01
     4
 # iter = 80000  time[fs]=80.00000
   C -0.981000328E+01  0.864934386E-02  0.351955112E+00
   C  0.950616691E+01 -0.428025375E+00  0.166320838E-01
   H -0.483309903E+02 -0.386065672E+01 -0.203506668E+01
   H  0.467862833E+02  0.588785537E+01 -0.241719574E+01
