     4
 # iter = 25000  time[fs]=25.00000
   C -0.106730643E+01  0.412751643E-01  0.351923204E-01
   C  0.994058101E+00  0.253498727E-02 -0.265892846E-01
   H -0.531876282E+01 -0.564010141E+00 -0.562237281E+00
   H  0.538146862E+01  0.486994470E+00 -0.129557507E+00
     4
 # iter = 25500  time[fs]=25.50000
   C -0.112227098E+01  0.418819930E-01  0.369978778E-01
   C  0.103722875E+01 -0.759257722E-03 -0.282083630E-01
   H -0.566175908E+01 -0.610936463E+00 -0.605919746E+00
   H  0.569374867E+01  0.509310337E+00 -0.144095508E+00
     4
 # iter = 26000  time[fs]=26.00000
   C -0.118144889E+01  0.416302710E-01  0.379854864E-01
   C  0.108262881E+01 -0.517460607E-02 -0.309662083E-01
   H -0.601275627E+01 -0.663582022E+00 -0.655298973E+00
   H  0.600320524E+01  0.526469455E+00 -0.164087997E+00
     4
 # iter = 26500  time[fs]=26.50000
   C -0.124175067E+01  0.433123820E-01  0.409417715E-01
   C  0.113307967E+01 -0.759043268E-02 -0.317387391E-01
   H -0.635538595E+01 -0.705843311E+00 -0.694273490E+00
   H  0.632566996E+01  0.554543000E+00 -0.173434131E+00
     4
 # iter = 27000  time[fs]=27.00000
   C -0.130276790E+01  0.470616786E-01  0.459951692E-01
   C  0.118846461E+01 -0.784820853E-02 -0.303645607E-01
   H -0.668860905E+01 -0.736895724E+00 -0.722020466E+00
   H  0.666170504E+01  0.594305202E+00 -0.171333297E+00
     4
 # iter = 27500  time[fs]=27.50000
   C -0.136633465E+01  0.507919796E-01  0.510553143E-01
   C  0.124621845E+01 -0.826213756E-02 -0.291555317E-01
   H -0.702418034E+01 -0.768668967E+00 -0.750471156E+00
   H  0.699912629E+01  0.633760608E+00 -0.169757337E+00
     4
 # iter = 28000  time[fs]=28.00000
   C -0.143369987E+01  0.530260401E-01  0.546414276E-01
   C  0.130447751E+01 -0.104685469E-01 -0.297460231E-01
   H -0.737038578E+01 -0.809600010E+00 -0.788063904E+00
   H  0.732928122E+01  0.664418950E+00 -0.177176209E+00
     4
 # iter = 28500  time[fs]=28.50000
   C -0.150406779E+01  0.543545540E-01  0.573412300E-01
   C  0.136370356E+01 -0.138006722E-01 -0.314676150E-01
   H -0.772365274E+01 -0.856251773E+00 -0.831362874E+00
   H  0.765544357E+01  0.689690512E+00 -0.190162569E+00
     4
 # iter = 29000  time[fs]=29.00000
   C -0.157579865E+01  0.562332644E-01  0.606079565E-01
   C  0.142534213E+01 -0.166286781E-01 -0.326890889E-01
   H -0.807545884E+01 -0.900222325E+00 -0.871967257E+00
   H  0.798588456E+01  0.717963584E+00 -0.200313512E+00
     4
 # iter = 29500  time[fs]=29.50000
   C -0.164822662E+01  0.591625883E-01  0.649398959E-01
   C  0.148979279E+01 -0.183875596E-01 -0.328443136E-01
   H -0.842278958E+01 -0.938601422E+00 -0.906967807E+00
   H  0.832339034E+01  0.752128306E+00 -0.204725873E+00
     4
 # iter = 30000  time[fs]=30.00000
   C -0.172191329E+01  0.624322481E-01  0.696249571E-01
   C  0.155612288E+01 -0.198616127E-01 -0.327166802E-01
   H -0.876960320E+01 -0.975437065E+00 -0.940413412E+00
   H  0.866378951E+01  0.788106915E+00 -0.207465626E+00
     4
 # iter = 30500  time[fs]=30.50000
   C -0.179751684E+01  0.652506174E-01  0.738699679E-01
   C  0.162332391E+01 -0.219262816E-01 -0.331808996E-01
   H -0.912033898E+01 -0.101524748E+01 -0.976823087E+00
   H  0.900245222E+01  0.821353105E+00 -0.213068532E+00
     4
 # iter = 31000  time[fs]=31.00000
   C -0.187493159E+01  0.676038069E-01  0.776597202E-01
   C  0.169126701E+01 -0.245910756E-01 -0.342458783E-01
   H -0.947497895E+01 -0.105808563E+01 -0.101625053E+01
   H  0.933923398E+01  0.851796081E+00 -0.221596072E+00
     4
 # iter = 31500  time[fs]=31.50000
   C -0.195353859E+01  0.700034729E-01  0.815047414E-01
   C  0.176042050E+01 -0.272804978E-01 -0.353356244E-01
   H -0.983049531E+01 -0.110098781E+01 -0.105573268E+01
   H  0.967702273E+01  0.882389070E+00 -0.230086758E+00
     4
 # iter = 32000  time[fs]=32.00000
   C -0.203292499E+01  0.727660397E-01  0.857204848E-01
   C  0.183104557E+01 -0.296370044E-01 -0.360921933E-01
   H -0.101849907E+02 -0.114211412E+01 -0.109343023E+01
   H  0.100175888E+02  0.914961031E+00 -0.236704193E+00
     4
 # iter = 32500  time[fs]=32.50000
   C -0.211314118E+01  0.757541960E-01  0.901687998E-01
   C  0.190290714E+01 -0.318089587E-01 -0.366636284E-01
   H -0.105391827E+02 -0.118223329E+01 -0.113011246E+01
   H  0.103600959E+02  0.948728930E+00 -0.242224637E+00
     4
 # iter = 33000  time[fs]=33.00000
   C -0.219438941E+01  0.786873130E-01  0.945683296E-01
   C  0.197561858E+01 -0.341047631E-01 -0.373580771E-01
   H -0.108946190E+02 -0.122293912E+01 -0.116737366E+01
   H  0.107028874E+02  0.982084373E+00 -0.248250319E+00
     4
 # iter = 33500  time[fs]=33.50000
   C -0.227668226E+01  0.814819750E-01  0.988350256E-01
   C  0.204902021E+01 -0.366134479E-01 -0.382643658E-01
   H -0.112517202E+02 -0.126469400E+01 -0.120567666E+01
   H  0.110454456E+02  0.101455353E+01 -0.255249470E+00
     4
 # iter = 34000  time[fs]=34.00000
   C -0.235983851E+01  0.842553589E-01  0.103085513E+00
   C  0.212318224E+01 -0.392008777E-01 -0.392481970E-01
   H -0.116097594E+02 -0.130680930E+01 -0.124433325E+01
   H  0.113884112E+02  0.104681660E+01 -0.262536806E+00
     4
 # iter = 34500  time[fs]=34.50000
   C -0.244368539E+01  0.871221336E-01  0.107433977E+00
   C  0.219817774E+01 -0.417359997E-01 -0.401783902E-01
   H -0.119680291E+02 -0.134861212E+01 -0.128267090E+01
   H  0.117324131E+02  0.107953888E+01 -0.269442379E+00
     4
 # iter = 35000  time[fs]=35.00000
   C -0.252817349E+01  0.900789669E-01  0.111876662E+00
   C  0.227395341E+01 -0.442194873E-01 -0.410555208E-01
   H -0.123265037E+02 -0.139010861E+01 -0.132069612E+01
   H  0.120774042E+02  0.111270610E+01 -0.275976198E+00
     4
 # iter = 35500  time[fs]=35.50000
   C -0.261332252E+01  0.930580895E-01  0.116345422E+00
   C  0.235038862E+01 -0.467240395E-01 -0.419522140E-01
   H -0.126855316E+02 -0.143167617E+01 -0.135878663E+01
   H  0.124229682E+02  0.114593272E+01 -0.282519860E+00
     4
 # iter = 36000  time[fs]=36.00000
   C -0.269912606E+01  0.960221221E-01  0.120802548E+00
   C  0.242740062E+01 -0.492887128E-01 -0.429074720E-01
   H -0.130452899E+02 -0.147351851E+01 -0.139714644E+01
   H  0.127688665E+02  0.117900780E+01 -0.289280696E+00
     4
 # iter = 36500  time[fs]=36.50000
   C -0.278552941E+01  0.989857512E-01  0.125262433E+00
   C  0.250496825E+01 -0.518947523E-01 -0.439025017E-01
   H -0.134056595E+02 -0.151554110E+01 -0.143568127E+01
   H  0.131151615E+02  0.121201973E+01 -0.296166968E+00
     4
 # iter = 37000  time[fs]=37.00000
   C -0.287246921E+01  0.101975704E+00  0.129751540E+00
   C  0.258308697E+01 -0.545101684E-01 -0.449052879E-01
   H -0.137664548E+02 -0.155758097E+01 -0.147422844E+01
   H  0.134619870E+02  0.124512591E+01 -0.303018186E+00
     4
 # iter = 37500  time[fs]=37.50000
   C -0.295990600E+01  0.104997859E+00  0.134275518E+00
   C  0.266173189E+01 -0.571263589E-01 -0.459072144E-01
   H -0.141276125E+02 -0.159959563E+01 -0.151274567E+01
   H  0.138093581E+02  0.127836349E+01 -0.309794334E+00
     4
 # iter = 38000  time[fs]=38.00000
   C -0.304782027E+01  0.108040868E+00  0.138822806E+00
   C  0.274086149E+01 -0.597540679E-01 -0.469190198E-01
   H -0.144891704E+02 -0.164164221E+01 -0.155129032E+01
   H  0.141571921E+02  0.131167019E+01 -0.316555024E+00
     4
 # iter = 38500  time[fs]=38.50000
   C -0.313619345E+01  0.111094903E+00  0.143383391E+00
   C  0.282043828E+01 -0.624024763E-01 -0.479498868E-01
   H -0.148511594E+02 -0.168376966E+01 -0.158991154E+01
   H  0.145054165E+02  0.134499229E+01 -0.323351502E+00
     4
 # iter = 39000  time[fs]=39.00000
   C -0.322499980E+01  0.114159533E+00  0.147956672E+00
   C  0.290043733E+01 -0.650704221E-01 -0.489986613E-01
   H -0.152135584E+02 -0.172597347E+01 -0.162860503E+01
   H  0.148540136E+02  0.137832994E+01 -0.330181312E+00
     4
 # iter = 39500  time[fs]=39.50000
   C -0.331421142E+01  0.117238496E+00  0.152546235E+00
   C  0.298084023E+01 -0.677522104E-01 -0.500596608E-01
   H -0.155763238E+02 -0.176822567E+01 -0.166734299E+01
   H  0.152029911E+02  0.141170709E+01 -0.337018341E+00
     4
 # iter = 40000  time[fs]=40.00000
   C -0.340380449E+01  0.120333244E+00  0.157153394E+00
   C  0.306162775E+01 -0.704447977E-01 -0.511298583E-01
   H -0.159394269E+02 -0.181051184E+01 -0.170611116E+01
   H  0.155523443E+02  0.144513436E+01 -0.343849949E+00
     4
 # iter = 40500  time[fs]=40.50000
   C -0.349375992E+01  0.123442170E+00  0.161776417E+00
   C  0.314277878E+01 -0.731486420E-01 -0.522097313E-01
   H -0.163028576E+02 -0.185283555E+01 -0.174491328E+01
   H  0.159020517E+02  0.147860462E+01 -0.350681381E+00
     4
 # iter = 41000  time[fs]=41.00000
   C -0.358406056E+01  0.126563222E+00  0.166413140E+00
   C  0.322427315E+01 -0.758647859E-01 -0.533003442E-01
   H -0.166666098E+02 -0.189520330E+01 -0.178375598E+01
   H  0.162520902E+02  0.151210801E+01 -0.357520713E+00
     4
 # iter = 41500  time[fs]=41.50000
   C -0.367468942E+01  0.129695535E+00  0.171062593E+00
   C  0.330609326E+01 -0.785930296E-01 -0.544015210E-01
   H -0.170306717E+02 -0.193761508E+01 -0.182263941E+01
   H  0.166024439E+02  0.154564140E+01 -0.364369432E+00
     4
 # iter = 42000  time[fs]=42.00000
   C -0.376562995E+01  0.132839057E+00  0.175724631E+00
   C  0.338822360E+01 -0.813323393E-01 -0.555122532E-01
   H -0.173950278E+02 -0.198006653E+01 -0.186155933E+01
   H  0.169531025E+02  0.157920619E+01 -0.371224555E+00
     4
 # iter = 42500  time[fs]=42.50000
   C -0.385686681E+01  0.135993657E+00  0.180399036E+00
   C  0.347064963E+01 -0.840818401E-01 -0.566316922E-01
   H -0.177596640E+02 -0.202255406E+01 -0.190051227E+01
   H  0.173040559E+02  0.161280323E+01 -0.378083774E+00
     4
 # iter = 43000  time[fs]=43.00000
   C -0.394838605E+01  0.139158848E+00  0.185085242E+00
   C  0.355335738E+01 -0.868411135E-01 -0.577594466E-01
   H -0.181245693E+02 -0.206507634E+01 -0.193949703E+01
   H  0.176552922E+02  0.164643120E+01 -0.384947003E+00
     4
 # iter = 43500  time[fs]=43.50000
   C -0.404017478E+01  0.142334037E+00  0.189782583E+00
   C  0.363633366E+01 -0.896099192E-01 -0.588953037E-01
   H -0.184897340E+02 -0.210763293E+01 -0.197851326E+01
   H  0.180067997E+02  0.168008809E+01 -0.391814953E+00
     4
 # iter = 44000  time[fs]=44.00000
   C -0.413222087E+01  0.145518745E+00  0.194490516E+00
   C  0.371956621E+01 -0.923879399E-01 -0.600389741E-01
   H -0.188551485E+02 -0.215022293E+01 -0.201756018E+01
   H  0.183585676E+02  0.171377247E+01 -0.398687821E+00
     4
 # iter = 44500  time[fs]=44.50000
   C -0.422451286E+01  0.148712618E+00  0.199208622E+00
   C  0.380304368E+01 -0.951747731E-01 -0.611900834E-01
   H -0.192208031E+02 -0.219284495E+01 -0.205663649E+01
   H  0.187105863E+02  0.174748350E+01 -0.405565256E+00
     4
 # iter = 45000  time[fs]=45.00000
   C -0.431703999E+01  0.151915329E+00  0.203936520E+00
   C  0.388675542E+01 -0.979700272E-01 -0.623482679E-01
   H -0.195866889E+02 -0.223549763E+01 -0.209574093E+01
   H  0.190628470E+02  0.178122048E+01 -0.412446865E+00
     4
 # iter = 45500  time[fs]=45.50000
   C -0.440979220E+01  0.155126543E+00  0.208673822E+00
   C  0.397069140E+01 -0.100773366E+00 -0.635132198E-01
   H -0.199527972E+02 -0.227817983E+01 -0.213487244E+01
   H  0.194153409E+02  0.181498256E+01 -0.419332451E+00
     4
 # iter = 46000  time[fs]=46.00000
   C -0.450276006E+01  0.158345923E+00  0.213420142E+00
   C  0.405484219E+01 -0.103584494E+00 -0.646846695E-01
   H -0.203191203E+02 -0.232089060E+01 -0.217403017E+01
   H  0.197680598E+02  0.184876881E+01 -0.426221932E+00
     4
 # iter = 46500  time[fs]=46.50000
   C -0.459593469E+01  0.161573154E+00  0.218175122E+00
   C  0.413919892E+01 -0.106403124E+00 -0.658623599E-01
   H -0.206856505E+02 -0.236362901E+01 -0.221321324E+01
   H  0.201209957E+02  0.188257839E+01 -0.433115212E+00
     4
 # iter = 47000  time[fs]=47.00000
   C -0.468930771E+01  0.164807947E+00  0.222938428E+00
   C  0.422375323E+01 -0.109228981E+00 -0.670460401E-01
   H -0.210523809E+02 -0.240639412E+01 -0.225242082E+01
   H  0.204741412E+02  0.191641053E+01 -0.440012153E+00
     4
 # iter = 47500  time[fs]=47.50000
   C -0.478287124E+01  0.168050029E+00  0.227709751E+00
   C  0.430849727E+01 -0.112061797E+00 -0.682354708E-01
   H -0.214193044E+02 -0.244918505E+01 -0.229165207E+01
   H  0.208274893E+02  0.195026453E+01 -0.446912613E+00
     4
 # iter = 48000  time[fs]=48.00000
   C -0.487661783E+01  0.171299141E+00  0.232488795E+00
   C  0.439342361E+01 -0.114901324E+00 -0.694304281E-01
   H -0.217864148E+02 -0.249200094E+01 -0.233090622E+01
   H  0.211810334E+02  0.198413969E+01 -0.453816467E+00
     4
 # iter = 48500  time[fs]=48.50000
   C -0.497054044E+01  0.174555035E+00  0.237275277E+00
   C  0.447852524E+01 -0.117747324E+00 -0.706307019E-01
   H -0.221537058E+02 -0.253484101E+01 -0.237018255E+01
   H  0.215347669E+02  0.201803535E+01 -0.460723603E+00
     4
 # iter = 49000  time[fs]=49.00000
   C -0.506463244E+01  0.177817475E+00  0.242068933E+00
   C  0.456379553E+01 -0.120599576E+00 -0.718360937E-01
   H -0.225211715E+02 -0.257770449E+01 -0.240948035E+01
   H  0.218886840E+02  0.205195088E+01 -0.467633917E+00
     4
 # iter = 49500  time[fs]=49.50000
   C -0.515888753E+01  0.181086239E+00  0.246869507E+00
   C  0.464922821E+01 -0.123457865E+00 -0.730464150E-01
   H -0.228888066E+02 -0.262059067E+01 -0.244879897E+01
   H  0.222427786E+02  0.208588567E+01 -0.474547305E+00
     4
 # iter = 50000  time[fs]=50.00000
   C -0.525329976E+01  0.184361113E+00  0.251676762E+00
   C  0.473481734E+01 -0.126321989E+00 -0.742614870E-01
   H -0.232566055E+02 -0.266349885E+01 -0.248813777E+01
   H  0.225970454E+02  0.211983915E+01 -0.481463669E+00
     4
 # iter = 50500  time[fs]=50.50000
   C -0.534786348E+01  0.187641897E+00  0.256490470E+00
   C  0.482055730E+01 -0.129191756E+00 -0.754811402E-01
   H -0.236245633E+02 -0.270642837E+01 -0.252749614E+01
   H  0.229514791E+02  0.215381077E+01 -0.488382915E+00
     4
 # iter = 51000  time[fs]=51.00000
   C -0.544257332E+01  0.190928398E+00  0.261310413E+00
   C  0.490644273E+01 -0.132066981E+00 -0.767052139E-01
   H -0.239926751E+02 -0.274937861E+01 -0.256687350E+01
   H  0.233060747E+02  0.218780000E+01 -0.495304954E+00
     4
 # iter = 51500  time[fs]=51.50000
   C -0.553742422E+01  0.194220432E+00  0.266136387E+00
   C  0.499246857E+01 -0.134947490E+00 -0.779335553E-01
   H -0.243609364E+02 -0.279234895E+01 -0.260626931E+01
   H  0.236608273E+02  0.222180634E+01 -0.502229700E+00
     4
 # iter = 52000  time[fs]=52.00000
   C -0.563241132E+01  0.197517825E+00  0.270968195E+00
   C  0.507863000E+01 -0.137833116E+00 -0.791660194E-01
   H -0.247293426E+02 -0.283533882E+01 -0.264568302E+01
   H  0.240157323E+02  0.225582931E+01 -0.509157073E+00
     4
 # iter = 52500  time[fs]=52.50000
   C -0.572753004E+01  0.200820410E+00  0.275805650E+00
   C  0.516492245E+01 -0.140723699E+00 -0.804024680E-01
   H -0.250978897E+02 -0.287834767E+01 -0.268511414E+01
   H  0.243707854E+02  0.228986844E+01 -0.516086995E+00
     4
 # iter = 53000  time[fs]=53.00000
   C -0.582277600E+01  0.204128028E+00  0.280648574E+00
   C  0.525134154E+01 -0.143619088E+00 -0.816427695E-01
   H -0.254665734E+02 -0.292137497E+01 -0.272456218E+01
   H  0.247259823E+02  0.232392330E+01 -0.523019391E+00
     4
 # iter = 53500  time[fs]=53.50000
   C -0.591814504E+01  0.207440526E+00  0.285496797E+00
   C  0.533788314E+01 -0.146519137E+00 -0.828867989E-01
   H -0.258353901E+02 -0.296442021E+01 -0.276402667E+01
   H  0.250813190E+02  0.235799345E+01 -0.529954190E+00
     4
 # iter = 54000  time[fs]=54.00000
   C -0.601363319E+01  0.210757759E+00  0.290350156E+00
   C  0.542454328E+01 -0.149423707E+00 -0.841344366E-01
   H -0.262043359E+02 -0.300748290E+01 -0.280350717E+01
   H  0.254367916E+02  0.239207849E+01 -0.536891324E+00
     4
 # iter = 54500  time[fs]=54.50000
   C -0.610923665E+01  0.214079588E+00  0.295208498E+00
   C  0.551131819E+01 -0.152332665E+00 -0.853855688E-01
   H -0.265734073E+02 -0.305056258E+01 -0.284300324E+01
   H  0.257923964E+02  0.242617802E+01 -0.543830727E+00
     4
 # iter = 55000  time[fs]=55.00000
   C -0.620495183E+01  0.217405879E+00  0.300071673E+00
   C  0.559820427E+01 -0.155245884E+00 -0.866400867E-01
   H -0.269426009E+02 -0.309365880E+01 -0.288251447E+01
   H  0.261481299E+02  0.246029168E+01 -0.550772337E+00
     4
 # iter = 55500  time[fs]=55.50000
   C -0.630077526E+01  0.220736505E+00  0.304939539E+00
   C  0.568519808E+01 -0.158163242E+00 -0.878978865E-01
   H -0.273119134E+02 -0.313677112E+01 -0.292204048E+01
   H  0.265039887E+02  0.249441909E+01 -0.557716094E+00
     4
 # iter = 56000  time[fs]=56.00000
   C -0.639670365E+01  0.224071344E+00  0.309811961E+00
   C  0.577229633E+01 -0.161084622E+00 -0.891588687E-01
   H -0.276813417E+02 -0.317989914E+01 -0.296158087E+01
   H  0.268599693E+02  0.252855992E+01 -0.564661940E+00
     4
 # iter = 56500  time[fs]=56.50000
   C -0.649273385E+01  0.227410277E+00  0.314688808E+00
   C  0.585949589E+01 -0.164009913E+00 -0.904229386E-01
   H -0.280508828E+02 -0.322304245E+01 -0.300113529E+01
   H  0.272160688E+02  0.256271381E+01 -0.571609819E+00
     4
 # iter = 57000  time[fs]=57.00000
   C -0.658886284E+01  0.230753193E+00  0.319569957E+00
   C  0.594679375E+01 -0.166939006E+00 -0.916900052E-01
   H -0.284205337E+02 -0.326620067E+01 -0.304070338E+01
   H  0.275722840E+02  0.259688046E+01 -0.578559678E+00
     4
 # iter = 57500  time[fs]=57.50000
   C -0.668508774E+01  0.234099983E+00  0.324455286E+00
   C  0.603418704E+01 -0.169871798E+00 -0.929599815E-01
   H -0.287902916E+02 -0.330937343E+01 -0.308028480E+01
   H  0.279286120E+02  0.263105955E+01 -0.585511467E+00
     4
 # iter = 58000  time[fs]=58.00000
   C -0.678140578E+01  0.237450544E+00  0.329344683E+00
   C  0.612167299E+01 -0.172808190E+00 -0.942327840E-01
   H -0.291601540E+02 -0.335256037E+01 -0.311987922E+01
   H  0.282850500E+02  0.266525078E+01 -0.592465135E+00
     4
 # iter = 58500  time[fs]=58.50000
   C -0.687781430E+01  0.240804775E+00  0.334238036E+00
   C  0.620924898E+01 -0.175748087E+00 -0.955083330E-01
   H -0.295301180E+02 -0.339576115E+01 -0.315948633E+01
   H  0.286415954E+02  0.269945386E+01 -0.599420635E+00
     4
 # iter = 59000  time[fs]=59.00000
   C -0.697431078E+01  0.244162581E+00  0.339135240E+00
   C  0.629691245E+01 -0.178691398E+00 -0.967865517E-01
   H -0.299001814E+02 -0.343897545E+01 -0.319910583E+01
   H  0.289982454E+02  0.273366851E+01 -0.606377923E+00
     4
 # iter = 59500  time[fs]=59.50000
   C -0.707089276E+01  0.247523870E+00  0.344036193E+00
   C  0.638466100E+01 -0.181638034E+00 -0.980673666E-01
   H -0.302703416E+02 -0.348220293E+01 -0.323873743E+01
   H  0.293549975E+02  0.276789446E+01 -0.613336952E+00
     4
 # iter = 60000  time[fs]=60.00000
   C -0.716755791E+01  0.250888552E+00  0.348940798E+00
   C  0.647249228E+01 -0.184587910E+00 -0.993507070E-01
   H -0.306405963E+02 -0.352544330E+01 -0.327838084E+01
   H  0.297118494E+02  0.280213146E+01 -0.620297682E+00
     4
 # iter = 60500  time[fs]=60.50000
   C -0.726430398E+01  0.254256543E+00  0.353848960E+00
   C  0.656040406E+01 -0.187540946E+00 -0.100636505E+00
   H -0.310109434E+02 -0.356869625E+01 -0.331803578E+01
   H  0.300687987E+02  0.283637925E+01 -0.627260072E+00
     4
 # iter = 61000  time[fs]=61.00000
   C -0.736112882E+01  0.257627760E+00  0.358760590E+00
   C  0.664839419E+01 -0.190497061E+00 -0.101924696E+00
   H -0.313813806E+02 -0.361196150E+01 -0.335770201E+01
   H  0.304258432E+02  0.287063759E+01 -0.634224081E+00
     4
 # iter = 61500  time[fs]=61.50000
   C -0.745803033E+01  0.261002124E+00  0.363675599E+00
   C  0.673646059E+01 -0.193456181E+00 -0.103215216E+00
   H -0.317519058E+02 -0.365523877E+01 -0.339737925E+01
   H  0.307829805E+02  0.290490624E+01 -0.641189672E+00
     4
 # iter = 62000  time[fs]=62.00000
   C -0.755500654E+01  0.264379557E+00  0.368593905E+00
   C  0.682460128E+01 -0.196418232E+00 -0.104508006E+00
   H -0.321225171E+02 -0.369852780E+01 -0.343706727E+01
   H  0.311402087E+02  0.293918498E+01 -0.648156808E+00
     4
 # iter = 62500  time[fs]=62.50000
   C -0.765205551E+01  0.267759988E+00  0.373515426E+00
   C  0.691281435E+01 -0.199383144E+00 -0.105803007E+00
   H -0.324932125E+02 -0.374182832E+01 -0.347676583E+01
   H  0.314975257E+02  0.297347359E+01 -0.655125454E+00
     4
 # iter = 63000  time[fs]=63.00000
   C -0.774917539E+01  0.271143343E+00  0.378440085E+00
   C  0.700109795E+01 -0.202350850E+00 -0.107100163E+00
   H -0.328639901E+02 -0.378514008E+01 -0.351647469E+01
   H  0.318549295E+02  0.300777185E+01 -0.662095576E+00
     4
 # iter = 63500  time[fs]=63.50000
   C -0.784636441E+01  0.274529555E+00  0.383367805E+00
   C  0.708945030E+01 -0.205321282E+00 -0.108399421E+00
   H -0.332348481E+02 -0.382846285E+01 -0.355619364E+01
   H  0.322124182E+02  0.304207957E+01 -0.669067140E+00
     4
 # iter = 64000  time[fs]=64.00000
   C -0.794362084E+01  0.277918557E+00  0.388298516E+00
   C  0.717786971E+01 -0.208294379E+00 -0.109700729E+00
   H -0.336057848E+02 -0.387179638E+01 -0.359592246E+01
   H  0.325699899E+02  0.307639653E+01 -0.676040113E+00
     4
 # iter = 64500  time[fs]=64.50000
   C -0.804094304E+01  0.281310285E+00  0.393232146E+00
   C  0.726635451E+01 -0.211270078E+00 -0.111004037E+00
   H -0.339767984E+02 -0.391514044E+01 -0.363566095E+01
   H  0.329276430E+02  0.311072256E+01 -0.683014467E+00
     4
 # iter = 65000  time[fs]=65.00000
   C -0.813832940E+01  0.284704678E+00  0.398168628E+00
   C  0.735490312E+01 -0.214248321E+00 -0.112309296E+00
   H -0.343478873E+02 -0.395849483E+01 -0.367540889E+01
   H  0.332853755E+02  0.314505746E+01 -0.689990169E+00
     4
 # iter = 65500  time[fs]=65.50000
   C -0.823577839E+01  0.288101675E+00  0.403107897E+00
   C  0.744351402E+01 -0.217229051E+00 -0.113616460E+00
   H -0.347190499E+02 -0.400185932E+01 -0.371516610E+01
   H  0.336431860E+02  0.317940105E+01 -0.696967192E+00
     4
 # iter = 66000  time[fs]=66.00000
   C -0.833328851E+01  0.291501218E+00  0.408049890E+00
   C  0.753218571E+01 -0.220212212E+00 -0.114925483E+00
   H -0.350902846E+02 -0.404523371E+01 -0.375493238E+01
   H  0.340010727E+02  0.321375315E+01 -0.703945507E+00
     4
 # iter = 66500  time[fs]=66.50000
   C -0.843085835E+01  0.294903252E+00  0.412994546E+00
   C  0.762091677E+01 -0.223197751E+00 -0.116236324E+00
   H -0.354615900E+02 -0.408861780E+01 -0.379470755E+01
   H  0.343590341E+02  0.324811360E+01 -0.710925086E+00
     4
 # iter = 67000  time[fs]=67.00000
   C -0.852848650E+01  0.298307722E+00  0.417941805E+00
   C  0.770970582E+01 -0.226185616E+00 -0.117548938E+00
   H -0.358329645E+02 -0.413201139E+01 -0.383449143E+01
   H  0.347170686E+02  0.328248223E+01 -0.717905905E+00
     4
 # iter = 67500  time[fs]=67.50000
   C -0.862617163E+01  0.301714576E+00  0.422891612E+00
   C  0.779855152E+01 -0.229175756E+00 -0.118863287E+00
   H -0.362044069E+02 -0.417541429E+01 -0.387428385E+01
   H  0.350751748E+02  0.331685887E+01 -0.724887936E+00
     4
 # iter = 68000  time[fs]=68.00000
   C -0.872391245E+01  0.305123763E+00  0.427843909E+00
   C  0.788745260E+01 -0.232168124E+00 -0.120179331E+00
   H -0.365759157E+02 -0.421882632E+01 -0.391408464E+01
   H  0.354333512E+02  0.335124338E+01 -0.731871156E+00
     4
 # iter = 68500  time[fs]=68.50000
   C -0.882170770E+01  0.308535234E+00  0.432798644E+00
   C  0.797640780E+01 -0.235162673E+00 -0.121497031E+00
   H -0.369474896E+02 -0.426224731E+01 -0.395389364E+01
   H  0.357915964E+02  0.338563561E+01 -0.738855539E+00
     4
 # iter = 69000  time[fs]=69.00000
   C -0.891955617E+01  0.311948941E+00  0.437755766E+00
   C  0.806541591E+01 -0.238159356E+00 -0.122816352E+00
   H -0.373191273E+02 -0.430567707E+01 -0.399371069E+01
   H  0.361499092E+02  0.342003539E+01 -0.745841064E+00
     4
 # iter = 69500  time[fs]=69.50000
   C -0.901745670E+01  0.315364837E+00  0.442715223E+00
   C  0.815447578E+01 -0.241158130E+00 -0.124137258E+00
   H -0.376908276E+02 -0.434911545E+01 -0.403353563E+01
   H  0.365082881E+02  0.345444260E+01 -0.752827707E+00
     4
 # iter = 70000  time[fs]=70.00000
   C -0.911540815E+01  0.318782879E+00  0.447676968E+00
   C  0.824358627E+01 -0.244158952E+00 -0.125459714E+00
   H -0.380625892E+02 -0.439256228E+01 -0.407336832E+01
   H  0.368667320E+02  0.348885710E+01 -0.759815446E+00
     4
 # iter = 70500  time[fs]=70.50000
   C -0.921340942E+01  0.322203022E+00  0.452640953E+00
   C  0.833274630E+01 -0.247161780E+00 -0.126783687E+00
   H -0.384344110E+02 -0.443601740E+01 -0.411320862E+01
   H  0.372252395E+02  0.352327874E+01 -0.766804261E+00
     4
 # iter = 71000  time[fs]=71.00000
   C -0.931145945E+01  0.325625225E+00  0.457607133E+00
   C  0.842195479E+01 -0.250166575E+00 -0.128109145E+00
   H -0.388062918E+02 -0.447948065E+01 -0.415305637E+01
   H  0.375838094E+02  0.355770739E+01 -0.773794129E+00
     4
 # iter = 71500  time[fs]=71.50000
   C -0.940955721E+01  0.329049447E+00  0.462575462E+00
   C  0.851121074E+01 -0.253173296E+00 -0.129436057E+00
   H -0.391782306E+02 -0.452295189E+01 -0.419291144E+01
   H  0.379424407E+02  0.359214294E+01 -0.780785032E+00
     4
 # iter = 72000  time[fs]=72.00000
   C -0.950770169E+01  0.332475646E+00  0.467545899E+00
   C  0.860051313E+01 -0.256181906E+00 -0.130764393E+00
   H -0.395502262E+02 -0.456643098E+01 -0.423277370E+01
   H  0.383011321E+02  0.362658526E+01 -0.787776949E+00
     4
 # iter = 72500  time[fs]=72.50000
   C -0.960589194E+01  0.335903787E+00  0.472518401E+00
   C  0.868986102E+01 -0.259192369E+00 -0.132094123E+00
   H -0.399222776E+02 -0.460991776E+01 -0.427264302E+01
   H  0.386598826E+02  0.366103421E+01 -0.794769861E+00
     4
 # iter = 73000  time[fs]=73.00000
   C -0.970412702E+01  0.339333829E+00  0.477492928E+00
   C  0.877925347E+01 -0.262204648E+00 -0.133425219E+00
   H -0.402943838E+02 -0.465341211E+01 -0.431251927E+01
   H  0.390186910E+02  0.369548970E+01 -0.801763751E+00
     4
 # iter = 73500  time[fs]=73.50000
   C -0.980240600E+01  0.342765739E+00  0.482469441E+00
   C  0.886868956E+01 -0.265218709E+00 -0.134757652E+00
   H -0.406665438E+02 -0.469691388E+01 -0.435240233E+01
   H  0.393775564E+02  0.372995159E+01 -0.808758600E+00
     4
 # iter = 74000  time[fs]=74.00000
   C -0.990072802E+01  0.346199479E+00  0.487447901E+00
   C  0.895816843E+01 -0.268234518E+00 -0.136091398E+00
   H -0.410387565E+02 -0.474042295E+01 -0.439229208E+01
   H  0.397364777E+02  0.376441979E+01 -0.815754391E+00
     4
 # iter = 74500  time[fs]=74.50000
   C -0.999909221E+01  0.349635015E+00  0.492428271E+00
   C  0.904768922E+01 -0.271252041E+00 -0.137426428E+00
   H -0.414110211E+02 -0.478393919E+01 -0.443218840E+01
   H  0.400954539E+02  0.379889418E+01 -0.822751106E+00
     4
 # iter = 75000  time[fs]=75.00000
   C -0.100974977E+02  0.353072314E+00  0.497410514E+00
   C  0.913725110E+01 -0.274271248E+00 -0.138762719E+00
   H -0.417833367E+02 -0.482746247E+01 -0.447209118E+01
   H  0.404544840E+02  0.383337466E+01 -0.829748729E+00
     4
 # iter = 75500  time[fs]=75.50000
   C -0.101959438E+02  0.356511344E+00  0.502394597E+00
   C  0.922685326E+01 -0.277292107E+00 -0.140100245E+00
   H -0.421557024E+02 -0.487099268E+01 -0.451200031E+01
   H  0.408135672E+02  0.386786112E+01 -0.836747244E+00
     4
 # iter = 76000  time[fs]=76.00000
   C -0.102944296E+02  0.359952073E+00  0.507380485E+00
   C  0.931649493E+01 -0.280314587E+00 -0.141438983E+00
   H -0.425281172E+02 -0.491452970E+01 -0.455191568E+01
   H  0.411727024E+02  0.390235346E+01 -0.843746636E+00
     4
 # iter = 76500  time[fs]=76.50000
   C -0.103929544E+02  0.363394470E+00  0.512368144E+00
   C  0.940617534E+01 -0.283338660E+00 -0.142778909E+00
   H -0.429005804E+02 -0.495807341E+01 -0.459183719E+01
   H  0.415318889E+02  0.393685158E+01 -0.850746888E+00
     4
 # iter = 77000  time[fs]=77.00000
   C -0.104915174E+02  0.366838505E+00  0.517357543E+00
   C  0.949589376E+01 -0.286364297E+00 -0.144120002E+00
   H -0.432730910E+02 -0.500162370E+01 -0.463176472E+01
   H  0.418911257E+02  0.397135539E+01 -0.857747986E+00
     4
 # iter = 77500  time[fs]=77.50000
   C -0.105901180E+02  0.370284149E+00  0.522348649E+00
   C  0.958564946E+01 -0.289391469E+00 -0.145462239E+00
   H -0.436456484E+02 -0.504518046E+01 -0.467169819E+01
   H  0.422504120E+02  0.400586480E+01 -0.864749916E+00
     4
 # iter = 78000  time[fs]=78.00000
   C -0.106887554E+02  0.373731374E+00  0.527341433E+00
   C  0.967544176E+01 -0.292420151E+00 -0.146805598E+00
   H -0.440182518E+02 -0.508874358E+01 -0.471163750E+01
   H  0.426097469E+02  0.404037971E+01 -0.871752663E+00
     4
 # iter = 78500  time[fs]=78.50000
   C -0.107874289E+02  0.377180151E+00  0.532335864E+00
   C  0.976526998E+01 -0.295450315E+00 -0.148150060E+00
   H -0.443909002E+02 -0.513231297E+01 -0.475158254E+01
   H  0.429691297E+02  0.407490004E+01 -0.878756214E+00
     4
 # iter = 79000  time[fs]=79.00000
   C -0.108861379E+02  0.380630454E+00  0.537331914E+00
   C  0.985513345E+01 -0.298481935E+00 -0.149495604E+00
   H -0.447635931E+02 -0.517588852E+01 -0.479153323E+01
   H  0.433285595E+02  0.410942570E+01 -0.885760555E+00
     4
 # iter = 79500  time[fs]=79.50000
   C -0.109848817E+02  0.384082257E+00  0.542329553E+00
   C  0.994503153E+01 -0.301514987E+00 -0.150842211E+00
   H -0.451363297E+02 -0.521947012E+01 -0.483148948E+01
   H  0.436880357E+02  0.414395660E+01 -0.892765673E+00
     4
 # iter = 80000  time[fs]=80.00000
   C -0.110836597E+02  0.387535534E+00  0.547328756E+00
   C  0.100349636E+02 -0.304549446E+00 -0.152189861E+00
   H -0.455091093E+02 -0.526305770E+01 -0.487145119E+01
   H  0.440475574E+02  0.417849266E+01 -0.899771556E+00
