     4
 # iter = 25000  time[fs]=25.00000
   C -0.927342017E+00  0.580103135E-02  0.364683296E-01
   C  0.102680078E+01  0.165661285E-01  0.273333591E-01
   H -0.519295764E+01 -0.278280390E+00  0.446959824E+00
   H  0.527767575E+01  0.486934973E+00 -0.629516641E+00
     4
 # iter = 25500  time[fs]=25.50000
   C -0.970341661E+00  0.458947417E-02  0.349957755E-01
   C  0.106968475E+01  0.135693073E-01  0.291077398E-01
   H -0.552955989E+01 -0.306278119E+00  0.466672667E+00
   H  0.558502623E+01  0.507250526E+00 -0.677898307E+00
     4
 # iter = 26000  time[fs]=26.00000
   C -0.101695822E+01  0.229482129E-02  0.324492843E-01
   C  0.111423868E+01  0.969965099E-02  0.300183830E-01
   H -0.587426365E+01 -0.339846256E+00  0.481220722E+00
   H  0.588965126E+01  0.522417347E+00 -0.732053400E+00
     4
 # iter = 26500  time[fs]=26.50000
   C -0.106377938E+01  0.212364394E-02  0.320288692E-01
   C  0.116285089E+01  0.755475810E-02  0.326680010E-01
   H -0.621067786E+01 -0.362887278E+00  0.506654814E+00
   H  0.620736825E+01  0.548503837E+00 -0.775849490E+00
     4
 # iter = 27000  time[fs]=27.00000
   C -0.111045341E+01  0.423695043E-02  0.338902440E-01
   C  0.121545586E+01  0.726132772E-02  0.371870468E-01
   H -0.653775186E+01 -0.374590027E+00  0.543748055E+00
   H  0.653872848E+01  0.586282722E+00 -0.808457316E+00
     4
 # iter = 27500  time[fs]=27.50000
   C -0.115918631E+01  0.625343225E-02  0.356478857E-01
   C  0.126994236E+01  0.688350623E-02  0.416423019E-01
   H -0.686723822E+01 -0.386904144E+00  0.580519529E+00
   H  0.687153955E+01  0.623758051E+00 -0.841822604E+00
     4
 # iter = 28000  time[fs]=28.00000
   C -0.121150218E+01  0.648835967E-02  0.356138504E-01
   C  0.132477989E+01  0.505149114E-02  0.446658270E-01
   H -0.720741999E+01 -0.408282456E+00  0.608489479E+00
   H  0.719714184E+01  0.652439088E+00 -0.884392945E+00
     4
 # iter = 28500  time[fs]=28.50000
   C -0.126657150E+01  0.562437787E-02  0.344684426E-01
   C  0.138037299E+01  0.231739078E-02  0.468110403E-01
   H -0.755471543E+01 -0.435294189E+00  0.631064721E+00
   H  0.751880219E+01  0.675735205E+00 -0.932722643E+00
     4
 # iter = 29000  time[fs]=29.00000
   C -0.132258796E+01  0.533408255E-02  0.338825964E-01
   C  0.143794305E+01  0.372436430E-04  0.494348109E-01
   H -0.790059093E+01 -0.459539174E+00  0.656624237E+00
   H  0.784478543E+01  0.702033658E+00 -0.978393282E+00
     4
 # iter = 29500  time[fs]=29.50000
   C -0.137885232E+01  0.619544654E-02  0.344331173E-01
   C  0.149783637E+01 -0.132079965E-02  0.530056829E-01
   H -0.824202527E+01 -0.478111866E+00  0.688055198E+00
   H  0.817787249E+01  0.734223922E+00 -0.101848772E+01
     4
 # iter = 30000  time[fs]=30.00000
   C -0.143606383E+01  0.739944261E-02  0.353101869E-01
   C  0.155928587E+01 -0.241384330E-02  0.568665913E-01
   H -0.858297528E+01 -0.495069079E+00  0.721284903E+00
   H  0.851388783E+01  0.768227991E+00 -0.105705907E+01
     4
 # iter = 30500  time[fs]=30.50000
   C -0.149502572E+01  0.804343933E-02  0.356106957E-01
   C  0.162145920E+01 -0.397472655E-02  0.602844890E-01
   H -0.892787965E+01 -0.514937487E+00  0.751772693E+00
   H  0.884819808E+01  0.799499423E+00 -0.109863154E+01
     4
 # iter = 31000  time[fs]=31.00000
   C -0.155566022E+01  0.811508905E-02  0.353220796E-01
   C  0.168425587E+01 -0.601365698E-02  0.632487960E-01
   H -0.927671722E+01 -0.537774756E+00  0.779448355E+00
   H  0.918065548E+01  0.827967153E+00 -0.114325659E+01
     4
 # iter = 31500  time[fs]=31.50000
   C -0.161729643E+01  0.820354668E-02  0.350334785E-01
   C  0.174807194E+01 -0.805258200E-02  0.662370727E-01
   H -0.962645539E+01 -0.560619226E+00  0.807262246E+00
   H  0.951414491E+01  0.856584049E+00 -0.118796395E+01
     4
 # iter = 32000  time[fs]=32.00000
   C -0.167949501E+01  0.867404247E-02  0.351102521E-01
   C  0.181312957E+01 -0.979502739E-02  0.695452057E-01
   H -0.997519320E+01 -0.581633450E+00  0.837041684E+00
   H  0.985043403E+01  0.887178802E+00 -0.123090933E+01
     4
 # iter = 32500  time[fs]=32.50000
   C -0.174234339E+01  0.937187190E-02  0.353979276E-01
   C  0.187923603E+01 -0.113663318E-01  0.730471977E-01
   H -0.103236466E+02 -0.601590121E+00  0.868004913E+00
   H  0.101886844E+02  0.918968255E+00 -0.127286167E+01
     4
 # iter = 33000  time[fs]=33.00000
   C -0.180609954E+01  0.997794415E-02  0.355777234E-01
   C  0.194607145E+01 -0.130251665E-01  0.764836743E-01
   H -0.106733625E+02 -0.622087281E+00  0.898545736E+00
   H  0.105272373E+02  0.950343956E+00 -0.131541656E+01
     4
 # iter = 33500  time[fs]=33.50000
   C -0.187080129E+01  0.103988102E-01  0.355565589E-01
   C  0.201350460E+01 -0.148470681E-01  0.797783742E-01
   H -0.110247603E+02 -0.643590433E+00  0.928191246E+00
   H  0.108655735E+02  0.980831997E+00 -0.135903622E+01
     4
 # iter = 34000  time[fs]=34.00000
   C -0.193626185E+01  0.107705562E-01  0.354709308E-01
   C  0.208159544E+01 -0.167212891E-01  0.830413133E-01
   H -0.113771112E+02 -0.665413011E+00  0.957621263E+00
   H  0.112043320E+02  0.101111247E+01 -0.140302996E+01
     4
 # iter = 34500  time[fs]=34.50000
   C -0.200230189E+01  0.112262153E-01  0.354543103E-01
   C  0.215040592E+01 -0.185395346E-01  0.863800561E-01
   H -0.117297058E+02 -0.686883946E+00  0.987500703E+00
   H  0.115441404E+02  0.104185059E+01 -0.144672291E+01
     4
 # iter = 35000  time[fs]=35.00000
   C -0.206888140E+01  0.117635170E-01  0.355048792E-01
   C  0.221989219E+01 -0.203032840E-01  0.897924005E-01
   H -0.120825173E+02 -0.708011543E+00  0.101781564E+01
   H  0.118849500E+02  0.107303203E+01 -0.149012052E+01
     4
 # iter = 35500  time[fs]=35.50000
   C -0.213603785E+01  0.123062516E-01  0.355468871E-01
   C  0.228995403E+01 -0.220740063E-01  0.932161682E-01
   H -0.124358935E+02 -0.729175434E+00  0.104818129E+01
   H  0.122263439E+02  0.110427124E+01 -0.153360020E+01
     4
 # iter = 36000  time[fs]=36.00000
   C -0.220377729E+01  0.128128909E-01  0.355392666E-01
   C  0.236052257E+01 -0.238850294E-01  0.966173401E-01
   H -0.127900107E+02 -0.750581305E+00  0.107838725E+01
   H  0.125680820E+02  0.113535726E+01 -0.157736542E+01
     4
 # iter = 36500  time[fs]=36.50000
   C -0.227204910E+01  0.133014267E-01  0.355004665E-01
   C  0.243158014E+01 -0.257213893E-01  0.100010211E+00
   H -0.131447488E+02 -0.772136205E+00  0.110852212E+01
   H  0.129102262E+02  0.116637846E+01 -0.162132091E+01
     4
 # iter = 37000  time[fs]=37.00000
   C -0.234079161E+01  0.138035400E-01  0.354626183E-01
   C  0.250312279E+01 -0.275570194E-01  0.103420200E+00
   H -0.134999214E+02 -0.793678605E+00  0.113874339E+01
   H  0.132529093E+02  0.119749222E+01 -0.166530290E+01
     4
 # iter = 37500  time[fs]=37.50000
   C -0.240996948E+01  0.143269470E-01  0.354338786E-01
   C  0.257512947E+01 -0.293853054E-01  0.106853299E+00
   H -0.138554645E+02 -0.815167415E+00  0.116908846E+01
   H  0.135961456E+02  0.122873570E+01 -0.170926834E+01
     4
 # iter = 38000  time[fs]=38.00000
   C -0.247956932E+01  0.148595487E-01  0.354025771E-01
   C  0.264756519E+01 -0.312157200E-01  0.110299437E+00
   H -0.142114153E+02 -0.836661141E+00  0.119949536E+01
   H  0.139398519E+02  0.126004661E+01 -0.175327404E+01
     4
 # iter = 38500  time[fs]=38.50000
   C -0.254957799E+01  0.153909196E-01  0.353587044E-01
   C  0.272039827E+01 -0.330563883E-01  0.113749915E+00
   H -0.145678042E+02 -0.858210008E+00  0.122991067E+01
   H  0.142839550E+02  0.129137125E+01 -0.179736860E+01
     4
 # iter = 39000  time[fs]=39.00000
   C -0.261997343E+01  0.159213294E-01  0.353029320E-01
   C  0.279360743E+01 -0.349067685E-01  0.117204726E+00
   H -0.149246095E+02 -0.879810666E+00  0.126033478E+01
   H  0.146284367E+02  0.132270977E+01 -0.184154714E+01
     4
 # iter = 39500  time[fs]=39.50000
   C -0.269073044E+01  0.164557648E-01  0.352406346E-01
   C  0.286717681E+01 -0.367625025E-01  0.120667702E+00
   H -0.152817874E+02 -0.901436192E+00  0.129079184E+01
   H  0.149733042E+02  0.135408614E+01 -0.188578128E+01
     4
 # iter = 40000  time[fs]=40.00000
   C -0.276182797E+01  0.169965403E-01  0.351745002E-01
   C  0.294108984E+01 -0.386214115E-01  0.124140520E+00
   H -0.156393084E+02 -0.923073180E+00  0.132129266E+01
   H  0.153185522E+02  0.138551098E+01 -0.193005624E+01
     4
 # iter = 40500  time[fs]=40.50000
   C -0.283324981E+01  0.175424205E-01  0.351036522E-01
   C  0.301532836E+01 -0.404842090E-01  0.127621988E+00
   H -0.159971622E+02 -0.944726139E+00  0.135183033E+01
   H  0.156641591E+02  0.141697720E+01 -0.197437529E+01
     4
 # iter = 41000  time[fs]=41.00000
   C -0.290498156E+01  0.180916150E-01  0.350266447E-01
   C  0.308987497E+01 -0.423520698E-01  0.131110473E+00
   H -0.163553424E+02 -0.966402452E+00  0.138239520E+01
   H  0.160101011E+02  0.144847495E+01 -0.201874463E+01
     4
 # iter = 41500  time[fs]=41.50000
   C -0.297700856E+01  0.186436530E-01  0.349433375E-01
   C  0.316471444E+01 -0.442251094E-01  0.134605423E+00
   H -0.167138367E+02 -0.988102961E+00  0.141298431E+01
   H  0.163563622E+02  0.148000111E+01 -0.206316401E+01
     4
 # iter = 42000  time[fs]=42.00000
   C -0.304931628E+01  0.191989605E-01  0.348544735E-01
   C  0.323983326E+01 -0.461027263E-01  0.138107022E+00
   H -0.170726294E+02 -0.100982409E+01  0.144359926E+01
   H  0.167029317E+02  0.151155712E+01 -0.210762880E+01
     4
 # iter = 42500  time[fs]=42.50000
   C -0.312189126E+01  0.197578373E-01  0.347606557E-01
   C  0.331521876E+01 -0.479844323E-01  0.141615363E+00
   H -0.174317063E+02 -0.103156295E+01  0.147424104E+01
   H  0.170497991E+02  0.154314383E+01 -0.215213515E+01
     4
 # iter = 43000  time[fs]=43.00000
   C -0.319472131E+01  0.203201477E-01  0.346620389E-01
   C  0.339085871E+01 -0.498701027E-01  0.145130189E+00
   H -0.177910559E+02 -0.105331895E+01  0.150490852E+01
   H  0.173969525E+02  0.157475996E+01 -0.219668152E+01
     4
 # iter = 43500  time[fs]=43.50000
   C -0.326779517E+01  0.208856047E-01  0.345586145E-01
   C  0.346674158E+01 -0.517597453E-01  0.148651133E+00
   H -0.181506684E+02 -0.107509228E+01  0.153559983E+01
   H  0.177443796E+02  0.160640352E+01 -0.224126724E+01
     4
 # iter = 44000  time[fs]=44.00000
   C -0.334110220E+01  0.214540304E-01  0.344504705E-01
   C  0.354285661E+01 -0.536532891E-01  0.152177919E+00
   H -0.185105338E+02 -0.109688266E+01  0.156631369E+01
   H  0.180920697E+02  0.163807309E+01 -0.228589122E+01
     4
 # iter = 44500  time[fs]=44.50000
   C -0.341463231E+01  0.220253614E-01  0.343377985E-01
   C  0.361919379E+01 -0.555505793E-01  0.155710373E+00
   H -0.188706425E+02 -0.111868930E+01  0.159704942E+01
   H  0.184400130E+02  0.166976788E+01 -0.233055188E+01
     4
 # iter = 45000  time[fs]=45.00000
   C -0.348837600E+01  0.225995493E-01  0.342207935E-01
   C  0.369574375E+01 -0.574514576E-01  0.159248339E+00
   H -0.192309852E+02 -0.114051138E+01  0.162780645E+01
   H  0.187882002E+02  0.170148720E+01 -0.237524768E+01
     4
 # iter = 45500  time[fs]=45.50000
   C -0.356232439E+01  0.231765118E-01  0.340996071E-01
   C  0.377249762E+01 -0.593558016E-01  0.162791639E+00
   H -0.195915531E+02 -0.116234830E+01  0.165858405E+01
   H  0.191366226E+02  0.173323021E+01 -0.241997732E+01
     4
 # iter = 46000  time[fs]=46.00000
   C -0.363646911E+01  0.237561497E-01  0.339743630E-01
   C  0.384944706E+01 -0.612635105E-01  0.166340087E+00
   H -0.199523383E+02 -0.118419961E+01  0.168938143E+01
   H  0.194852716E+02  0.176499602E+01 -0.246473968E+01
     4
 # iter = 46500  time[fs]=46.50000
   C -0.371080229E+01  0.243383714E-01  0.338451836E-01
   C  0.392658419E+01 -0.631744853E-01  0.169893507E+00
   H -0.203133330E+02 -0.120606484E+01  0.172019786E+01
   H  0.198341393E+02  0.179678382E+01 -0.250953367E+01
     4
 # iter = 47000  time[fs]=47.00000
   C -0.378531650E+01  0.249230980E-01  0.337121949E-01
   C  0.400390160E+01 -0.650886235E-01  0.173451741E+00
   H -0.206745301E+02 -0.122794352E+01  0.175103271E+01
   H  0.201832182E+02  0.182859285E+01 -0.255435822E+01
     4
 # iter = 47500  time[fs]=47.50000
   C -0.386000470E+01  0.255102567E-01  0.335755200E-01
   C  0.408139229E+01 -0.670058250E-01  0.177014636E+00
   H -0.210359225E+02 -0.124983518E+01  0.178188536E+01
   H  0.205325009E+02  0.186042243E+01 -0.259921230E+01
     4
 # iter = 48000  time[fs]=48.00000
   C -0.393486026E+01  0.260997755E-01  0.334352748E-01
   C  0.415904965E+01 -0.689259955E-01  0.180582049E+00
   H -0.213975037E+02 -0.127173938E+01  0.181275525E+01
   H  0.208819808E+02  0.189227190E+01 -0.264409495E+01
     4
 # iter = 48500  time[fs]=48.50000
   C -0.400987689E+01  0.266915836E-01  0.332915688E-01
   C  0.423686740E+01 -0.708490457E-01  0.184153839E+00
   H -0.217592674E+02 -0.129365572E+01  0.184364180E+01
   H  0.212316513E+02  0.192414061E+01 -0.268900523E+01
     4
 # iter = 49000  time[fs]=49.00000
   C -0.408504866E+01  0.272856131E-01  0.331445065E-01
   C  0.431483964E+01 -0.727748907E-01  0.187729870E+00
   H -0.221212077E+02 -0.131558382E+01  0.187454449E+01
   H  0.215815063E+02  0.195602795E+01 -0.273394228E+01
     4
 # iter = 49500  time[fs]=49.50000
   C -0.416036993E+01  0.278817992E-01  0.329941885E-01
   C  0.439296073E+01 -0.747034481E-01  0.191310016E+00
   H -0.224833189E+02 -0.133752330E+01  0.190546280E+01
   H  0.219315399E+02  0.198793334E+01 -0.277890526E+01
     4
 # iter = 50000  time[fs]=50.00000
   C -0.423583536E+01  0.284800797E-01  0.328407117E-01
   C  0.447122536E+01 -0.766346389E-01  0.194894153E+00
   H -0.228455957E+02 -0.135947382E+01  0.193639626E+01
   H  0.222817465E+02  0.201985622E+01 -0.282389338E+01
     4
 # iter = 50500  time[fs]=50.50000
   C -0.431143987E+01  0.290803953E-01  0.326841687E-01
   C  0.454962847E+01 -0.785683874E-01  0.198482164E+00
   H -0.232080328E+02 -0.138143503E+01  0.196734440E+01
   H  0.226321207E+02  0.205179607E+01 -0.286890587E+01
     4
 # iter = 51000  time[fs]=51.00000
   C -0.438717866E+01  0.296826885E-01  0.325246485E-01
   C  0.462816527E+01 -0.805046209E-01  0.202073935E+00
   H -0.235706253E+02 -0.140340661E+01  0.199830679E+01
   H  0.229826574E+02  0.208375239E+01 -0.291394201E+01
     4
 # iter = 51500  time[fs]=51.50000
   C -0.446304713E+01  0.302869041E-01  0.323622363E-01
   C  0.470683117E+01 -0.824432697E-01  0.205669360E+00
   H -0.239333687E+02 -0.142538826E+01  0.202928300E+01
   H  0.233333518E+02  0.211572469E+01 -0.295900110E+01
     4
 # iter = 52000  time[fs]=52.00000
   C -0.453904094E+01  0.308929892E-01  0.321970139E-01
   C  0.478562186E+01 -0.843842667E-01  0.209268333E+00
   H -0.242962583E+02 -0.144737968E+01  0.206027263E+01
   H  0.236841991E+02  0.214771250E+01 -0.300408248E+01
     4
 # iter = 52500  time[fs]=52.50000
   C -0.461515594E+01  0.315008927E-01  0.320290600E-01
   C  0.486453319E+01 -0.863275475E-01  0.212870756E+00
   H -0.246592899E+02 -0.146938059E+01  0.209127529E+01
   H  0.240351950E+02  0.217971539E+01 -0.304918552E+01
     4
 # iter = 53000  time[fs]=53.00000
   C -0.469138817E+01  0.321105656E-01  0.318584500E-01
   C  0.494356122E+01 -0.882730502E-01  0.216476533E+00
   H -0.250224594E+02 -0.149139072E+01  0.212229062E+01
   H  0.243863352E+02  0.221173293E+01 -0.309430959E+01
     4
 # iter = 53500  time[fs]=53.50000
   C -0.476773387E+01  0.327219607E-01  0.316852566E-01
   C  0.502270220E+01 -0.902207151E-01  0.220085573E+00
   H -0.253857629E+02 -0.151340982E+01  0.215331827E+01
   H  0.247376155E+02  0.224376472E+01 -0.313945412E+01
     4
 # iter = 54000  time[fs]=54.00000
   C -0.484418944E+01  0.333350326E-01  0.315095494E-01
   C  0.510195255E+01 -0.921704851E-01  0.223697786E+00
   H -0.257491966E+02 -0.153543764E+01  0.218435789E+01
   H  0.250890321E+02  0.227581036E+01 -0.318461856E+01
     4
 # iter = 54500  time[fs]=54.50000
   C -0.492075146E+01  0.339497374E-01  0.313313958E-01
   C  0.518130886E+01 -0.941223049E-01  0.227313089E+00
   H -0.261127568E+02 -0.155747393E+01  0.221540916E+01
   H  0.254405812E+02  0.230786949E+01 -0.322980235E+01
     4
 # iter = 55000  time[fs]=55.00000
   C -0.499741664E+01  0.345660331E-01  0.311508601E-01
   C  0.526076785E+01 -0.960761214E-01  0.230931399E+00
   H -0.264764403E+02 -0.157951848E+01  0.224647176E+01
   H  0.257922592E+02  0.233994174E+01 -0.327500498E+01
     4
 # iter = 55500  time[fs]=55.50000
   C -0.507418186E+01  0.351838789E-01  0.309680046E-01
   C  0.534032641E+01 -0.980318835E-01  0.234552638E+00
   H -0.268402435E+02 -0.160157106E+01  0.227754540E+01
   H  0.261440626E+02  0.237202676E+01 -0.332022597E+01
     4
 # iter = 56000  time[fs]=56.00000
   C -0.515104412E+01  0.358032358E-01  0.307828892E-01
   C  0.541998155E+01 -0.999895419E-01  0.238176730E+00
   H -0.272041634E+02 -0.162363146E+01  0.230862980E+01
   H  0.264959882E+02  0.240412423E+01 -0.336546482E+01
     4
 # iter = 56500  time[fs]=56.50000
   C -0.522800055E+01  0.364240659E-01  0.305955715E-01
   C  0.549973041E+01 -0.101949049E+00  0.241803604E+00
   H -0.275681968E+02 -0.164569949E+01  0.233972466E+01
   H  0.268480327E+02  0.243623383E+01 -0.341072109E+01
     4
 # iter = 57000  time[fs]=57.00000
   C -0.530504841E+01  0.370463328E-01  0.304061070E-01
   C  0.557957027E+01 -0.103910359E+00  0.245433188E+00
   H -0.279323408E+02 -0.166777494E+01  0.237082973E+01
   H  0.272001930E+02  0.246835526E+01 -0.345599433E+01
     4
 # iter = 57500  time[fs]=57.50000
   C -0.538218506E+01  0.376700014E-01  0.302145494E-01
   C  0.565949850E+01 -0.105873428E+00  0.249065415E+00
   H -0.282965927E+02 -0.168985763E+01  0.240194476E+01
   H  0.275524662E+02  0.250048820E+01 -0.350128413E+01
     4
 # iter = 58000  time[fs]=58.00000
   C -0.545940800E+01  0.382950376E-01  0.300209503E-01
   C  0.573951258E+01 -0.107838213E+00  0.252700219E+00
   H -0.286609495E+02 -0.171194738E+01  0.243306948E+01
   H  0.279048494E+02  0.253263239E+01 -0.354659006E+01
     4
 # iter = 58500  time[fs]=58.50000
   C -0.553671479E+01  0.389214088E-01  0.298253596E-01
   C  0.581961012E+01 -0.109804673E+00  0.256337539E+00
   H -0.290254089E+02 -0.173404402E+01  0.246420367E+01
   H  0.282573400E+02  0.256478755E+01 -0.359191173E+01
     4
 # iter = 59000  time[fs]=59.00000
   C -0.561410311E+01  0.395490832E-01  0.296278253E-01
   C  0.589978880E+01 -0.111772769E+00  0.259977313E+00
   H -0.293899681E+02 -0.175614738E+01  0.249534710E+01
   H  0.286099353E+02  0.259695341E+01 -0.363724878E+01
     4
 # iter = 59500  time[fs]=59.50000
   C -0.569157075E+01  0.401780304E-01  0.294283939E-01
   C  0.598004640E+01 -0.113742461E+00  0.263619483E+00
   H -0.297546248E+02 -0.177825730E+01  0.252649954E+01
   H  0.289626327E+02  0.262912972E+01 -0.368260082E+01
     4
 # iter = 60000  time[fs]=60.00000
   C -0.576911556E+01  0.408082207E-01  0.292271102E-01
   C  0.606038080E+01 -0.115713713E+00  0.267263993E+00
   H -0.301193766E+02 -0.180037363E+01  0.255766079E+01
   H  0.293154298E+02  0.266131623E+01 -0.372796751E+01
     4
 # iter = 60500  time[fs]=60.50000
   C -0.584673548E+01  0.414396255E-01  0.290240175E-01
   C  0.614078993E+01 -0.117686489E+00  0.270910787E+00
   H -0.304842212E+02 -0.182249620E+01  0.258883063E+01
   H  0.296683242E+02  0.269351271E+01 -0.377334851E+01
     4
 # iter = 61000  time[fs]=61.00000
   C -0.592442855E+01  0.420722172E-01  0.288191578E-01
   C  0.622127184E+01 -0.119660754E+00  0.274559813E+00
   H -0.308491566E+02 -0.184462489E+01  0.262000887E+01
   H  0.300213136E+02  0.272571893E+01 -0.381874348E+01
     4
 # iter = 61500  time[fs]=61.50000
   C -0.600219284E+01  0.427059691E-01  0.286125714E-01
   C  0.630182462E+01 -0.121636475E+00  0.278211020E+00
   H -0.312141805E+02 -0.186675954E+01  0.265119532E+01
   H  0.303743959E+02  0.275793466E+01 -0.386415212E+01
     4
 # iter = 62000  time[fs]=62.00000
   C -0.608002654E+01  0.433408553E-01  0.284042975E-01
   C  0.638244646E+01 -0.123613619E+00  0.281864359E+00
   H -0.315792909E+02 -0.188890003E+01  0.268238979E+01
   H  0.307275689E+02  0.279015970E+01 -0.390957410E+01
     4
 # iter = 62500  time[fs]=62.50000
   C -0.615792788E+01  0.439768508E-01  0.281943739E-01
   C  0.646313560E+01 -0.125592155E+00  0.285519782E+00
   H -0.319444859E+02 -0.191104623E+01  0.271359210E+01
   H  0.310808305E+02  0.282239383E+01 -0.395500915E+01
     4
 # iter = 63000  time[fs]=63.00000
   C -0.623589517E+01  0.446139312E-01  0.279828374E-01
   C  0.654389035E+01 -0.127572052E+00  0.289177243E+00
   H -0.323097635E+02 -0.193319800E+01  0.274480208E+01
   H  0.314341789E+02  0.285463686E+01 -0.400045696E+01
     4
 # iter = 63500  time[fs]=63.50000
   C -0.631392676E+01  0.452520732E-01  0.277697233E-01
   C  0.662470908E+01 -0.129553282E+00  0.292836697E+00
   H -0.326751220E+02 -0.195535522E+01  0.277601956E+01
   H  0.317876119E+02  0.288688858E+01 -0.404591726E+01
     4
 # iter = 64000  time[fs]=64.00000
   C -0.639202109E+01  0.458912539E-01  0.275550660E-01
   C  0.670559023E+01 -0.131535815E+00  0.296498101E+00
   H -0.330405595E+02 -0.197751779E+01  0.280724439E+01
   H  0.321411279E+02  0.291914883E+01 -0.409138978E+01
     4
 # iter = 64500  time[fs]=64.50000
   C -0.647017662E+01  0.465314512E-01  0.273388987E-01
   C  0.678653226E+01 -0.133519624E+00  0.300161414E+00
   H -0.334060743E+02 -0.199968558E+01  0.283847639E+01
   H  0.324947249E+02  0.295141741E+01 -0.413687426E+01
     4
 # iter = 65000  time[fs]=65.00000
   C -0.654839190E+01  0.471726439E-01  0.271212537E-01
   C  0.686753373E+01 -0.135504682E+00  0.303826594E+00
   H -0.337716648E+02 -0.202185848E+01  0.286971543E+01
   H  0.328484013E+02  0.298369414E+01 -0.418237046E+01
     4
 # iter = 65500  time[fs]=65.50000
   C -0.662666550E+01  0.478148112E-01  0.269021621E-01
   C  0.694859323E+01 -0.137490963E+00  0.307493602E+00
   H -0.341373293E+02 -0.204403638E+01  0.290096135E+01
   H  0.332021554E+02  0.301597887E+01 -0.422787811E+01
     4
 # iter = 66000  time[fs]=66.00000
   C -0.670499606E+01  0.484579329E-01  0.266816543E-01
   C  0.702970938E+01 -0.139478443E+00  0.311162400E+00
   H -0.345030663E+02 -0.206621919E+01  0.293221401E+01
   H  0.335559855E+02  0.304827142E+01 -0.427339700E+01
     4
 # iter = 66500  time[fs]=66.50000
   C -0.678338226E+01  0.491019896E-01  0.264597595E-01
   C  0.711088089E+01 -0.141467095E+00  0.314832952E+00
   H -0.348688742E+02 -0.208840680E+01  0.296347328E+01
   H  0.339098901E+02  0.308057163E+01 -0.431892689E+01
     4
 # iter = 67000  time[fs]=67.00000
   C -0.686182282E+01  0.497469624E-01  0.262365063E-01
   C  0.719210646E+01 -0.143456898E+00  0.318505221E+00
   H -0.352347517E+02 -0.211059911E+01  0.299473901E+01
   H  0.342638676E+02  0.311287935E+01 -0.436446755E+01
     4
 # iter = 67500  time[fs]=67.50000
   C -0.694031650E+01  0.503928327E-01  0.260119223E-01
   C  0.727338489E+01 -0.145447828E+00  0.322179173E+00
   H -0.356006972E+02 -0.213279604E+01  0.302601109E+01
   H  0.346179165E+02  0.314519443E+01 -0.441001877E+01
     4
 # iter = 68000  time[fs]=68.00000
   C -0.701886212E+01  0.510395829E-01  0.257860342E-01
   C  0.735471497E+01 -0.147439861E+00  0.325854773E+00
   H -0.359667095E+02 -0.215499747E+01  0.305728937E+01
   H  0.349720354E+02  0.317751673E+01 -0.445558034E+01
     4
 # iter = 68500  time[fs]=68.50000
   C -0.709745851E+01  0.516871956E-01  0.255588681E-01
   C  0.743609556E+01 -0.149432978E+00  0.329531990E+00
   H -0.363327871E+02 -0.217720334E+01  0.308857375E+01
   H  0.353262229E+02  0.320984609E+01 -0.450115207E+01
     4
 # iter = 69000  time[fs]=69.00000
   C -0.717610456E+01  0.523356539E-01  0.253304493E-01
   C  0.751752554E+01 -0.151427157E+00  0.333210791E+00
   H -0.366989288E+02 -0.219941355E+01  0.311986410E+01
   H  0.356804777E+02  0.324218239E+01 -0.454673374E+01
     4
 # iter = 69500  time[fs]=69.50000
   C -0.725479920E+01  0.529849414E-01  0.251008022E-01
   C  0.759900385E+01 -0.153422376E+00  0.336891145E+00
   H -0.370651333E+02 -0.222162802E+01  0.315116031E+01
   H  0.360347983E+02  0.327452550E+01 -0.459232517E+01
     4
 # iter = 70000  time[fs]=70.00000
   C -0.733354136E+01  0.536350424E-01  0.248699508E-01
   C  0.768052944E+01 -0.155418617E+00  0.340573023E+00
   H -0.374313994E+02 -0.224384666E+01  0.318246226E+01
   H  0.363891836E+02  0.330687527E+01 -0.463792617E+01
     4
 # iter = 70500  time[fs]=70.50000
   C -0.741233004E+01  0.542859413E-01  0.246379181E-01
   C  0.776210129E+01 -0.157415860E+00  0.344256395E+00
   H -0.377977259E+02 -0.226606939E+01  0.321376985E+01
   H  0.367436323E+02  0.333923159E+01 -0.468353657E+01
     4
 # iter = 71000  time[fs]=71.00000
   C -0.749116426E+01  0.549376231E-01  0.244047268E-01
   C  0.784371843E+01 -0.159414087E+00  0.347941233E+00
   H -0.381641116E+02 -0.228829615E+01  0.324508297E+01
   H  0.370981432E+02  0.337159433E+01 -0.472915618E+01
     4
 # iter = 71500  time[fs]=71.50000
   C -0.757004306E+01  0.555900732E-01  0.241703986E-01
   C  0.792537991E+01 -0.161413278E+00  0.351627509E+00
   H -0.385305555E+02 -0.231052686E+01  0.327640151E+01
   H  0.374527152E+02  0.340396337E+01 -0.477478484E+01
     4
 # iter = 72000  time[fs]=72.00000
   C -0.764896552E+01  0.562432773E-01  0.239349549E-01
   C  0.800708482E+01 -0.163413416E+00  0.355315196E+00
   H -0.388970564E+02 -0.233276143E+01  0.330772538E+01
   H  0.378073470E+02  0.343633861E+01 -0.482042238E+01
     4
 # iter = 72500  time[fs]=72.50000
   C -0.772793074E+01  0.568972217E-01  0.236984164E-01
   C  0.808883226E+01 -0.165414484E+00  0.359004269E+00
   H -0.392636132E+02 -0.235499981E+01  0.333905448E+01
   H  0.381620375E+02  0.346871991E+01 -0.486606863E+01
     4
 # iter = 73000  time[fs]=73.00000
   C -0.780693786E+01  0.575518928E-01  0.234608032E-01
   C  0.817062136E+01 -0.167416465E+00  0.362694703E+00
   H -0.396302251E+02 -0.237724191E+01  0.337038872E+01
   H  0.385167858E+02  0.350110719E+01 -0.491172344E+01
     4
 # iter = 73500  time[fs]=73.50000
   C -0.788598603E+01  0.582072776E-01  0.232221350E-01
   C  0.825245129E+01 -0.169419342E+00  0.366386471E+00
   H -0.399968908E+02 -0.239948769E+01  0.340172800E+01
   H  0.388715907E+02  0.353350032E+01 -0.495738667E+01
     4
 # iter = 74000  time[fs]=74.00000
   C -0.796507443E+01  0.588633632E-01  0.229824308E-01
   C  0.833432123E+01 -0.171423100E+00  0.370079551E+00
   H -0.403636096E+02 -0.242173706E+01  0.343307223E+01
   H  0.392264512E+02  0.356589921E+01 -0.500305814E+01
     4
 # iter = 74500  time[fs]=74.50000
   C -0.804420228E+01  0.595201373E-01  0.227417091E-01
   C  0.841623040E+01 -0.173427722E+00  0.373773919E+00
   H -0.407303803E+02 -0.244398997E+01  0.346442133E+01
   H  0.395813663E+02  0.359830376E+01 -0.504873773E+01
     4
 # iter = 75000  time[fs]=75.00000
   C -0.812336879E+01  0.601775877E-01  0.224999882E-01
   C  0.849817802E+01 -0.175433195E+00  0.377469552E+00
   H -0.410972022E+02 -0.246624635E+01  0.349577522E+01
   H  0.399363351E+02  0.363071386E+01 -0.509442530E+01
     4
 # iter = 75500  time[fs]=75.50000
   C -0.820257321E+01  0.608357027E-01  0.222572855E-01
   C  0.858016335E+01 -0.177439503E+00  0.381166428E+00
   H -0.414640743E+02 -0.248850615E+01  0.352713379E+01
   H  0.402913567E+02  0.366312942E+01 -0.514012069E+01
     4
 # iter = 76000  time[fs]=76.00000
   C -0.828181483E+01  0.614944707E-01  0.220136183E-01
   C  0.866218566E+01 -0.179446631E+00  0.384864525E+00
   H -0.418309957E+02 -0.251076930E+01  0.355849699E+01
   H  0.406464300E+02  0.369555034E+01 -0.518582379E+01
     4
 # iter = 76500  time[fs]=76.50000
   C -0.836109293E+01  0.621538805E-01  0.217690034E-01
   C  0.874424425E+01 -0.181454565E+00  0.388563823E+00
   H -0.421979655E+02 -0.253303576E+01  0.358986473E+01
   H  0.410015542E+02  0.372797654E+01 -0.523153445E+01
     4
 # iter = 77000  time[fs]=77.00000
   C -0.844040682E+01  0.628139212E-01  0.215234569E-01
   C  0.882633844E+01 -0.183463293E+00  0.392264300E+00
   H -0.425649830E+02 -0.255530545E+01  0.362123693E+01
   H  0.413567285E+02  0.376040793E+01 -0.527725256E+01
     4
 # iter = 77500  time[fs]=77.50000
   C -0.851975584E+01  0.634745822E-01  0.212769948E-01
   C  0.890846755E+01 -0.185472800E+00  0.395965937E+00
   H -0.429320474E+02 -0.257757833E+01  0.365261351E+01
   H  0.417119519E+02  0.379284442E+01 -0.532297798E+01
     4
 # iter = 78000  time[fs]=78.00000
   C -0.859913933E+01  0.641358530E-01  0.210296326E-01
   C  0.899063094E+01 -0.187483074E+00  0.399668714E+00
   H -0.432991577E+02 -0.259985435E+01  0.368399442E+01
   H  0.420672237E+02  0.382528593E+01 -0.536871060E+01
     4
 # iter = 78500  time[fs]=78.50000
   C -0.867855666E+01  0.647977235E-01  0.207813853E-01
   C  0.907282799E+01 -0.189494102E+00  0.403372613E+00
   H -0.436663134E+02 -0.262213346E+01  0.371537956E+01
   H  0.424225431E+02  0.385773237E+01 -0.541445030E+01
     4
 # iter = 79000  time[fs]=79.00000
   C -0.875800722E+01  0.654601838E-01  0.205322679E-01
   C  0.915505807E+01 -0.191505871E+00  0.407077613E+00
   H -0.440335135E+02 -0.264441559E+01  0.374676888E+01
   H  0.427779092E+02  0.389018366E+01 -0.546019695E+01
     4
 # iter = 79500  time[fs]=79.50000
   C -0.883749040E+01  0.661232243E-01  0.202822945E-01
   C  0.923732059E+01 -0.193518370E+00  0.410783699E+00
   H -0.444007575E+02 -0.266670071E+01  0.377816231E+01
   H  0.431333213E+02  0.392263973E+01 -0.550595046E+01
     4
 # iter = 80000  time[fs]=80.00000
   C -0.891700562E+01  0.667868355E-01  0.200314793E-01
   C  0.931961497E+01 -0.195531586E+00  0.414490851E+00
   H -0.447680445E+02 -0.268898876E+01  0.380955978E+01
   H  0.434887787E+02  0.395510049E+01 -0.555171071E+01
