     4
 # iter = 25000  time[fs]=25.00000
   C -0.988159734E+00  0.316760657E-01  0.581687695E-01
   C  0.969678555E+00 -0.339009457E-01 -0.129504792E-01
   H -0.520660428E+01  0.215418374E+00 -0.663858816E+00
   H  0.523170965E+01 -0.241840435E+00  0.512335156E+00
     4
 # iter = 25500  time[fs]=25.50000
   C -0.103518088E+01  0.306527690E-01  0.608547991E-01
   C  0.100940417E+01 -0.354574063E-01 -0.172128438E-01
   H -0.554458098E+01  0.220561530E+00 -0.718312714E+00
   H  0.553991782E+01 -0.265254212E+00  0.534176074E+00
     4
 # iter = 26000  time[fs]=26.00000
   C -0.108626260E+01  0.287109367E-01  0.626892144E-01
   C  0.105125746E+01 -0.380352849E-01 -0.225441184E-01
   H -0.589354845E+01  0.220533990E+00 -0.779009879E+00
   H  0.584819003E+01 -0.294339478E+00  0.551184922E+00
     4
 # iter = 26500  time[fs]=26.50000
   C -0.113812905E+01  0.288655725E-01  0.666875138E-01
   C  0.109774207E+01 -0.388625398E-01 -0.261759127E-01
   H -0.623676859E+01  0.231385206E+00 -0.829775368E+00
   H  0.617204552E+01 -0.312978799E+00  0.579391523E+00
     4
 # iter = 27000  time[fs]=27.00000
   C -0.119039504E+01  0.312566057E-01  0.729896599E-01
   C  0.114875665E+01 -0.377930070E-01 -0.279640890E-01
   H -0.657290783E+01  0.253888295E+00 -0.869734219E+00
   H  0.651177101E+01 -0.320352155E+00  0.619537970E+00
     4
 # iter = 27500  time[fs]=27.50000
   C -0.124509277E+01  0.336241785E-01  0.793353831E-01
   C  0.120202919E+01 -0.368725085E-01 -0.299551975E-01
   H -0.691348734E+01  0.276062861E+00 -0.910783590E+00
   H  0.685493901E+01 -0.328410359E+00  0.659603891E+00
     4
 # iter = 28000  time[fs]=28.00000
   C -0.130361433E+01  0.343678533E-01  0.841231683E-01
   C  0.125590632E+01 -0.375471719E-01 -0.335953049E-01
   H -0.726658993E+01  0.289429593E+00 -0.961330889E+00
   H  0.719268731E+01 -0.345605597E+00  0.691077394E+00
     4
 # iter = 28500  time[fs]=28.50000
   C -0.136513377E+01  0.341245592E-01  0.879881995E-01
   C  0.131079177E+01 -0.392234149E-01 -0.382902837E-01
   H -0.762845365E+01  0.297395913E+00 -0.101790422E+01
   H  0.752811132E+01 -0.368497747E+00  0.717348534E+00
     4
 # iter = 29000  time[fs]=29.00000
   C -0.142790691E+01  0.344673929E-01  0.925014127E-01
   C  0.136795915E+01 -0.404550108E-01 -0.425929488E-01
   H -0.799038475E+01  0.308341476E+00 -0.107206671E+01
   H  0.786932855E+01 -0.388674039E+00  0.746787274E+00
     4
 # iter = 29500  time[fs]=29.50000
   C -0.149123873E+01  0.359365588E-01  0.982006997E-01
   C  0.142775527E+01 -0.407395203E-01 -0.459995094E-01
   H -0.834922443E+01  0.325153621E+00 -0.112088150E+01
   H  0.821898967E+01 -0.403221896E+00  0.782268224E+00
     4
 # iter = 30000  time[fs]=30.00000
   C -0.155575821E+01  0.377630740E-01  0.104314722E+00
   C  0.148934701E+01 -0.407702174E-01 -0.492015876E-01
   H -0.870881218E+01  0.343759222E+00 -0.116837913E+01
   H  0.857280267E+01 -0.416197820E+00  0.819700723E+00
     4
 # iter = 30500  time[fs]=30.50000
   C -0.162219577E+01  0.390902272E-01  0.109984368E+00
   C  0.155183408E+01 -0.413214705E-01 -0.529717383E-01
   H -0.907348401E+01  0.359617235E+00 -0.121906319E+01
   H  0.892603090E+01 -0.432128924E+00  0.854527256E+00
     4
 # iter = 31000  time[fs]=31.00000
   C -0.169045297E+01  0.399027305E-01  0.115191909E+00
   C  0.161509525E+01 -0.424008481E-01 -0.573156583E-01
   H -0.944312636E+01  0.372657628E+00 -0.127297014E+01
   H  0.927843575E+01 -0.451069492E+00  0.886666800E+00
     4
 # iter = 31500  time[fs]=31.50000
   C -0.175987404E+01  0.407538965E-01  0.120488215E+00
   C  0.167953833E+01 -0.434979098E-01 -0.617210215E-01
   H -0.981462330E+01  0.385831282E+00 -0.132711881E+01
   H  0.963282187E+01 -0.470052031E+00  0.919063231E+00
     4
 # iter = 32000  time[fs]=32.00000
   C -0.183002428E+01  0.419859886E-01  0.126213171E+00
   C  0.174538795E+01 -0.442954345E-01 -0.658687211E-01
   H -0.101859998E+02  0.400965843E+00 -0.137965448E+01
   H  0.999088525E+01 -0.487234722E+00  0.953537206E+00
     4
 # iter = 32500  time[fs]=32.50000
   C -0.190096857E+01  0.434505869E-01  0.132216073E+00
   C  0.181242961E+01 -0.449244636E-01 -0.698879299E-01
   H -0.105579064E+02  0.417279491E+00 -0.143133482E+01
   H  0.103517229E+02 -0.503388706E+00  0.989298427E+00
     4
 # iter = 33000  time[fs]=33.00000
   C -0.197293473E+01  0.448443233E-01  0.138191365E+00
   C  0.188031495E+01 -0.456579142E-01 -0.740497386E-01
   H -0.109318318E+02  0.433165873E+00 -0.148374449E+01
   H  0.107136179E+02 -0.520111473E+00  0.102473205E+01
     4
 # iter = 33500  time[fs]=33.50000
   C -0.204594435E+01  0.460771914E-01  0.144046947E+00
   C  0.194889699E+01 -0.465744799E-01 -0.784310779E-01
   H -0.113081424E+02  0.448152124E+00 -0.153733671E+01
   H  0.110759987E+02 -0.537867038E+00  0.105935840E+01
     4
 # iter = 34000  time[fs]=34.00000
   C -0.211980842E+01  0.472761879E-01  0.149907817E+00
   C  0.201823269E+01 -0.475552492E-01 -0.829113468E-01
   H -0.116860617E+02  0.462918290E+00 -0.159141358E+01
   H  0.114394569E+02 -0.555966380E+00  0.109385231E+01
     4
 # iter = 34500  time[fs]=34.50000
   C -0.219434632E+01  0.485656214E-01  0.155896387E+00
   C  0.208838190E+01 -0.484840916E-01 -0.873728001E-01
   H -0.120648365E+02  0.478129498E+00 -0.164529367E+01
   H  0.118045773E+02 -0.573736173E+00  0.112887422E+01
     4
 # iter = 35000  time[fs]=35.00000
   C -0.226951009E+01  0.499421824E-01  0.162007553E+00
   C  0.215929286E+01 -0.493615958E-01 -0.918144862E-01
   H -0.124444010E+02  0.493771911E+00 -0.169897600E+01
   H  0.121712723E+02 -0.591183302E+00  0.116440546E+01
     4
 # iter = 35500  time[fs]=35.50000
   C -0.234532603E+01  0.513328734E-01  0.168166624E+00
   C  0.223085453E+01 -0.502521820E-01 -0.962993607E-01
   H -0.128250671E+02  0.509460783E+00 -0.175283178E+01
   H  0.125390894E+02 -0.608686474E+00  0.120005653E+01
     4
 # iter = 36000  time[fs]=36.00000
   C -0.242179161E+01  0.526975723E-01  0.174331881E+00
   C  0.230298971E+01 -0.511904985E-01 -0.100860683E+00
   H -0.132069784E+02  0.524985766E+00 -0.180705893E+01
   H  0.129077561E+02 -0.626450379E+00  0.123561285E+01
     4
 # iter = 36500  time[fs]=36.50000
   C -0.249885163E+01  0.540524731E-01  0.180518008E+00
   C  0.237567601E+01 -0.521600085E-01 -0.105480601E+00
   H -0.135899852E+02  0.540435575E+00 -0.186155733E+01
   H  0.132773045E+02 -0.644380866E+00  0.127115947E+01
     4
 # iter = 37000  time[fs]=37.00000
   C -0.257644117E+01  0.554267902E-01  0.186752800E+00
   C  0.244890603E+01 -0.531324668E-01 -0.110129628E+00
   H -0.139738734E+02  0.555967843E+00 -0.191615884E+01
   H  0.136478400E+02 -0.662315230E+00  0.130685071E+01
     4
 # iter = 37500  time[fs]=37.50000
   C -0.265452077E+01  0.568271852E-01  0.193041578E+00
   C  0.252265458E+01 -0.541003551E-01 -0.114799069E+00
   H -0.143585540E+02  0.571620048E+00 -0.197081627E+01
   H  0.140193521E+02 -0.680211409E+00  0.134272091E+01
     4
 # iter = 38000  time[fs]=38.00000
   C -0.273307229E+01  0.582416752E-01  0.199371098E+00
   C  0.259688199E+01 -0.550732986E-01 -0.119497440E+00
   H -0.147440408E+02  0.587330320E+00 -0.202558252E+01
   H  0.143917342E+02 -0.698127113E+00  0.137870521E+01
     4
 # iter = 38500  time[fs]=38.50000
   C -0.281207833E+01  0.596599183E-01  0.205729831E+00
   C  0.267155234E+01 -0.560595442E-01 -0.124231940E+00
   H -0.151303431E+02  0.603045322E+00 -0.208050263E+01
   H  0.147648919E+02 -0.716111829E+00  0.141474748E+01
     4
 # iter = 39000  time[fs]=39.00000
   C -0.289151348E+01  0.610817260E-01  0.212116469E+00
   C  0.274664101E+01 -0.570581815E-01 -0.129000669E+00
   H -0.155174193E+02  0.618765519E+00 -0.213556841E+01
   H  0.151387873E+02 -0.734161471E+00  0.145084566E+01
     4
 # iter = 39500  time[fs]=39.50000
   C -0.297134980E+01  0.625114110E-01  0.218534271E+00
   C  0.282212937E+01 -0.580642876E-01 -0.133797770E+00
   H -0.159052073E+02  0.634515158E+00 -0.219074845E+01
   H  0.155134092E+02 -0.752248410E+00  0.148702165E+01
     4
 # iter = 40000  time[fs]=40.00000
   C -0.305156360E+01  0.639508031E-01  0.224984070E+00
   C  0.289799820E+01 -0.590752885E-01 -0.138619785E+00
   H -0.162936606E+02  0.650305149E+00 -0.224602516E+01
   H  0.158887356E+02 -0.770358598E+00  0.152328416E+01
     4
 # iter = 40500  time[fs]=40.50000
   C -0.313213610E+01  0.653984158E-01  0.231463443E+00
   C  0.297422677E+01 -0.600917119E-01 -0.143466410E+00
   H -0.166827533E+02  0.666128651E+00 -0.230139916E+01
   H  0.162647288E+02 -0.788495963E+00  0.155962429E+01
     4
 # iter = 41000  time[fs]=41.00000
   C -0.321305050E+01  0.668522701E-01  0.237969526E+00
   C  0.305079530E+01 -0.611146019E-01 -0.148337900E+00
   H -0.170724641E+02  0.681976100E+00 -0.235687419E+01
   H  0.166413504E+02 -0.806667353E+00  0.159603055E+01
     4
 # iter = 41500  time[fs]=41.50000
   C -0.329429002E+01  0.683116614E-01  0.244500779E+00
   C  0.312768645E+01 -0.621439013E-01 -0.153233455E+00
   H -0.174627672E+02  0.697844612E+00 -0.241244770E+01
   H  0.170185708E+02 -0.824873103E+00  0.163249825E+01
     4
 # iter = 42000  time[fs]=42.00000
   C -0.337583826E+01  0.697767572E-01  0.251056579E+00
   C  0.320488481E+01 -0.631788117E-01 -0.158151571E+00
   H -0.178536341E+02  0.713735859E+00 -0.246811291E+01
   H  0.173963664E+02 -0.843109157E+00  0.166902737E+01
     4
 # iter = 42500  time[fs]=42.50000
   C -0.345768000E+01  0.712476276E-01  0.257636251E+00
   C  0.328237597E+01 -0.642186735E-01 -0.163090922E+00
   H -0.182450385E+02  0.729650918E+00 -0.252386396E+01
   H  0.177747149E+02 -0.861372196E+00  0.170561741E+01
     4
 # iter = 43000  time[fs]=43.00000
   C -0.353980144E+01  0.727239517E-01  0.264238768E+00
   C  0.336014609E+01 -0.652632285E-01 -0.168050620E+00
   H -0.186369580E+02  0.745588721E+00 -0.257969743E+01
   H  0.181535930E+02 -0.879661188E+00  0.174226580E+01
     4
 # iter = 43500  time[fs]=43.50000
   C -0.362218982E+01  0.742052832E-01  0.270863016E+00
   C  0.343818214E+01 -0.663123736E-01 -0.173029963E+00
   H -0.190293720E+02  0.761547476E+00 -0.263561088E+01
   H  0.185329781E+02 -0.897975952E+00  0.177896934E+01
     4
 # iter = 44000  time[fs]=44.00000
   C -0.370483312E+01  0.756912944E-01  0.277508034E+00
   C  0.351647199E+01 -0.673659345E-01 -0.178028212E+00
   H -0.194222612E+02  0.777525967E+00 -0.269160157E+01
   H  0.189128496E+02 -0.916315847E+00  0.181572550E+01
     4
 # iter = 44500  time[fs]=44.50000
   C -0.378772000E+01  0.771817801E-01  0.284173018E+00
   C  0.359500437E+01 -0.684236587E-01 -0.183044577E+00
   H -0.198156063E+02  0.793523581E+00 -0.274766634E+01
   H  0.192931882E+02 -0.934679732E+00  0.185253241E+01
     4
 # iter = 45000  time[fs]=45.00000
   C -0.387083979E+01  0.786765620E-01  0.290857221E+00
   C  0.367376875E+01 -0.694853000E-01 -0.188078301E+00
   H -0.202093894E+02  0.809539806E+00 -0.280380217E+01
   H  0.196739763E+02 -0.953066469E+00  0.188938839E+01
     4
 # iter = 45500  time[fs]=45.50000
   C -0.395418251E+01  0.801754413E-01  0.297559905E+00
   C  0.375275518E+01 -0.705506586E-01 -0.193128702E+00
   H -0.206035937E+02  0.825573981E+00 -0.286000638E+01
   H  0.200551968E+02 -0.971475157E+00  0.192629165E+01
     4
 # iter = 46000  time[fs]=46.00000
   C -0.403773881E+01  0.816782132E-01  0.304280352E+00
   C  0.383195431E+01 -0.716195660E-01 -0.198195151E+00
   H -0.209982035E+02  0.841625380E+00 -0.291627653E+01
   H  0.204368333E+02 -0.989905049E+00  0.196324041E+01
     4
 # iter = 46500  time[fs]=46.50000
   C -0.412149989E+01  0.831846896E-01  0.311017889E+00
   C  0.391135736E+01 -0.726918618E-01 -0.203277051E+00
   H -0.213932039E+02  0.857693334E+00 -0.297261031E+01
   H  0.208188707E+02 -0.100835542E+01  0.200023300E+01
     4
 # iter = 47000  time[fs]=47.00000
   C -0.420545744E+01  0.846947027E-01  0.317771884E+00
   C  0.399095603E+01 -0.737673886E-01 -0.208373829E+00
   H -0.217885807E+02  0.873777252E+00 -0.302900546E+01
   H  0.212012945E+02 -0.102682553E+01  0.203726789E+01
     4
 # iter = 47500  time[fs]=47.50000
   C -0.428960363E+01  0.862080981E-01  0.324541743E+00
   C  0.407074254E+01 -0.748459966E-01 -0.213484939E+00
   H -0.221843204E+02  0.889876591E+00 -0.308545985E+01
   H  0.215840910E+02 -0.104531469E+01  0.207434363E+01
     4
 # iter = 48000  time[fs]=48.00000
   C -0.437393109E+01  0.877247291E-01  0.331326900E+00
   C  0.415070951E+01 -0.759275471E-01 -0.218609866E+00
   H -0.225804103E+02  0.905990823E+00 -0.314197144E+01
   H  0.219672472E+02 -0.106382221E+01  0.211145884E+01
     4
 # iter = 48500  time[fs]=48.50000
   C -0.445843283E+01  0.892444563E-01  0.338126817E+00
   C  0.423085001E+01 -0.770119116E-01 -0.223748122E+00
   H -0.229768384E+02  0.922119439E+00 -0.319853832E+01
   H  0.223507507E+02 -0.108234749E+01  0.214861219E+01
     4
 # iter = 49000  time[fs]=49.00000
   C -0.454310226E+01  0.907671485E-01  0.344940982E+00
   C  0.431115745E+01 -0.780989694E-01 -0.228899244E+00
   H -0.233735932E+02  0.938261955E+00 -0.325515867E+01
   H  0.227345899E+02 -0.110088994E+01  0.218580243E+01
     4
 # iter = 49500  time[fs]=49.50000
   C -0.462793313E+01  0.922926829E-01  0.351768908E+00
   C  0.439162562E+01 -0.791886066E-01 -0.234062793E+00
   H -0.237706638E+02  0.954417914E+00 -0.331183076E+01
   H  0.231187536E+02 -0.111944899E+01  0.222302836E+01
     4
 # iter = 50000  time[fs]=50.00000
   C -0.471291955E+01  0.938209440E-01  0.358610135E+00
   C  0.447224862E+01 -0.802807158E-01 -0.239238348E+00
   H -0.241680399E+02  0.970586880E+00 -0.336855292E+01
   H  0.235032312E+02 -0.113802410E+01  0.226028885E+01
     4
 # iter = 50500  time[fs]=50.50000
   C -0.479805590E+01  0.953518228E-01  0.365464222E+00
   C  0.455302087E+01 -0.813751959E-01 -0.244425511E+00
   H -0.245657115E+02  0.986768438E+00 -0.342532359E+01
   H  0.238880125E+02 -0.115661477E+01  0.229758281E+01
     4
 # iter = 51000  time[fs]=51.00000
   C -0.488333687E+01  0.968852164E-01  0.372330751E+00
   C  0.463393707E+01 -0.824719515E-01 -0.249623902E+00
   H -0.249636693E+02  0.100296219E+01 -0.348214125E+01
   H  0.242730881E+02 -0.117522050E+01  0.233490921E+01
     4
 # iter = 51500  time[fs]=51.50000
   C -0.496875741E+01  0.984210275E-01  0.379209322E+00
   C  0.471499219E+01 -0.835708929E-01 -0.254833160E+00
   H -0.253619042E+02  0.101916777E+01 -0.353900448E+01
   H  0.246584486E+02 -0.119384084E+01  0.237226705E+01
     4
 # iter = 52000  time[fs]=52.00000
   C -0.505431273E+01  0.999591640E-01  0.386099555E+00
   C  0.479618146E+01 -0.846719350E-01 -0.260052937E+00
   H -0.257604078E+02  0.103538481E+01 -0.359591190E+01
   H  0.250440853E+02 -0.121247533E+01  0.240965540E+01
     4
 # iter = 52500  time[fs]=52.50000
   C -0.513999826E+01  0.101499539E+00  0.393001085E+00
   C  0.487750032E+01 -0.857749975E-01 -0.265282906E+00
   H -0.261591718E+02  0.105161296E+01 -0.365286220E+01
   H  0.254299899E+02 -0.123112356E+01  0.244707335E+01
     4
 # iter = 53000  time[fs]=53.00000
   C -0.522580967E+01  0.103042070E+00  0.399913565E+00
   C  0.495894446E+01 -0.868800043E-01 -0.270522752E+00
   H -0.265581885E+02  0.106785189E+01 -0.370985412E+01
   H  0.258161543E+02 -0.124978511E+01  0.248452004E+01
     4
 # iter = 53500  time[fs]=53.50000
   C -0.531174282E+01  0.104586679E+00  0.406836664E+00
   C  0.504050976E+01 -0.879868834E-01 -0.275772173E+00
   H -0.269574503E+02  0.108410130E+01 -0.376688648E+01
   H  0.262025709E+02 -0.126845960E+01  0.252199465E+01
     4
 # iter = 54000  time[fs]=54.00000
   C -0.539779378E+01  0.106133292E+00  0.413770064E+00
   C  0.512219229E+01 -0.890955666E-01 -0.281030882E+00
   H -0.273569502E+02  0.110036088E+01 -0.382395811E+01
   H  0.265892324E+02 -0.128714666E+01  0.255949637E+01
     4
 # iter = 54500  time[fs]=54.50000
   C -0.548395878E+01  0.107681839E+00  0.420713462E+00
   C  0.520398831E+01 -0.902059891E-01 -0.286298604E+00
   H -0.277566812E+02  0.111663033E+01 -0.388106792E+01
   H  0.269761317E+02 -0.130584593E+01  0.259702446E+01
     4
 # iter = 55000  time[fs]=55.00000
   C -0.557023424E+01  0.109232252E+00  0.427666566E+00
   C  0.528589425E+01 -0.913180893E-01 -0.291575076E+00
   H -0.281566369E+02  0.113290940E+01 -0.393821485E+01
   H  0.273632622E+02 -0.132455706E+01  0.263457819E+01
     4
 # iter = 55500  time[fs]=55.50000
   C -0.565661674E+01  0.110784468E+00  0.434629098E+00
   C  0.536790670E+01 -0.924318088E-01 -0.296860045E+00
   H -0.285568109E+02  0.114919780E+01 -0.399539789E+01
   H  0.277506173E+02 -0.134327974E+01  0.267215685E+01
     4
 # iter = 56000  time[fs]=56.00000
   C -0.574310301E+01  0.112338426E+00  0.441600792E+00
   C  0.545002241E+01 -0.935470920E-01 -0.302153270E+00
   H -0.289571973E+02  0.116549528E+01 -0.405261606E+01
   H  0.281381910E+02 -0.136201365E+01  0.270975979E+01
     4
 # iter = 56500  time[fs]=56.50000
   C -0.582968992E+01  0.113894069E+00  0.448581391E+00
   C  0.553223825E+01 -0.946638860E-01 -0.307454518E+00
   H -0.293577901E+02  0.118180161E+01 -0.410986844E+01
   H  0.285259773E+02 -0.138075849E+01  0.274738634E+01
     4
 # iter = 57000  time[fs]=57.00000
   C -0.591637448E+01  0.115451342E+00  0.455570649E+00
   C  0.561455125E+01 -0.957821405E-01 -0.312763568E+00
   H -0.297585840E+02  0.119811654E+01 -0.416715412E+01
   H  0.289139704E+02 -0.139951396E+01  0.278503591E+01
     4
 # iter = 57500  time[fs]=57.50000
   C -0.600315383E+01  0.117010192E+00  0.462568331E+00
   C  0.569695855E+01 -0.969018074E-01 -0.318080205E+00
   H -0.301595736E+02  0.121443985E+01 -0.422447225E+01
   H  0.293021650E+02 -0.141827979E+01  0.282270788E+01
     4
 # iter = 58000  time[fs]=58.00000
   C -0.609002522E+01  0.118570569E+00  0.469574210E+00
   C  0.577945743E+01 -0.980228410E-01 -0.323404225E+00
   H -0.305607536E+02  0.123077132E+01 -0.428182199E+01
   H  0.296905558E+02 -0.143705572E+01  0.286040170E+01
     4
 # iter = 58500  time[fs]=58.50000
   C -0.617698603E+01  0.120132427E+00  0.476588068E+00
   C  0.586204526E+01 -0.991451976E-01 -0.328735431E+00
   H -0.309621193E+02  0.124711074E+01 -0.433920254E+01
   H  0.300791376E+02 -0.145584147E+01  0.289811681E+01
     4
 # iter = 59000  time[fs]=59.00000
   C -0.626403373E+01  0.121695718E+00  0.483609696E+00
   C  0.594471954E+01 -0.100268836E+00 -0.334073633E+00
   H -0.313636658E+02  0.126345792E+01 -0.439661313E+01
   H  0.304679057E+02 -0.147463682E+01  0.293585267E+01
     4
 # iter = 59500  time[fs]=59.50000
   C -0.635116590E+01  0.123260399E+00  0.490638894E+00
   C  0.602747786E+01 -0.101393715E+00 -0.339418649E+00
   H -0.317653887E+02  0.127981266E+01 -0.445405304E+01
   H  0.308568553E+02 -0.149344150E+01  0.297360879E+01
     4
 # iter = 60000  time[fs]=60.00000
   C -0.643838023E+01  0.124826430E+00  0.497675466E+00
   C  0.611031791E+01 -0.102519798E+00 -0.344770305E+00
   H -0.321672834E+02  0.129617477E+01 -0.451152153E+01
   H  0.312459820E+02 -0.151225531E+01  0.301138466E+01
     4
 # iter = 60500  time[fs]=60.50000
   C -0.652567449E+01  0.126393769E+00  0.504719227E+00
   C  0.619323747E+01 -0.103647048E+00 -0.350128430E+00
   H -0.325693458E+02  0.131254408E+01 -0.456901792E+01
   H  0.316352814E+02 -0.153107801E+01  0.304917981E+01
     4
 # iter = 61000  time[fs]=61.00000
   C -0.661304654E+01  0.127962379E+00  0.511769996E+00
   C  0.627623441E+01 -0.104775430E+00 -0.355492863E+00
   H -0.329715718E+02  0.132892041E+01 -0.462654155E+01
   H  0.320247492E+02 -0.154990939E+01  0.308699379E+01
     4
 # iter = 61500  time[fs]=61.50000
   C -0.670049431E+01  0.129532222E+00  0.518827602E+00
   C  0.635930667E+01 -0.105904910E+00 -0.360863447E+00
   H -0.333739575E+02  0.134530359E+01 -0.468409178E+01
   H  0.324143816E+02 -0.156874925E+01  0.312482615E+01
     4
 # iter = 62000  time[fs]=62.00000
   C -0.678801583E+01  0.131103264E+00  0.525891876E+00
   C  0.644245228E+01 -0.107035458E+00 -0.366240031E+00
   H -0.337764990E+02  0.136169346E+01 -0.474166799E+01
   H  0.328041744E+02 -0.158759739E+01  0.316267646E+01
     4
 # iter = 62500  time[fs]=62.50000
   C -0.687560919E+01  0.132675472E+00  0.532962658E+00
   C  0.652566936E+01 -0.108167041E+00 -0.371622470E+00
   H -0.341791928E+02  0.137808987E+01 -0.479926958E+01
   H  0.331941241E+02 -0.160645360E+01  0.320054432E+01
     4
 # iter = 63000  time[fs]=63.00000
   C -0.696327256E+01  0.134248812E+00  0.540039792E+00
   C  0.660895607E+01 -0.109299631E+00 -0.377010623E+00
   H -0.345820351E+02  0.139449266E+01 -0.485689598E+01
   H  0.335842269E+02 -0.162531772E+01  0.323842933E+01
     4
 # iter = 63500  time[fs]=63.50000
   C -0.705100418E+01  0.135823253E+00  0.547123129E+00
   C  0.669231066E+01 -0.110433200E+00 -0.382404355E+00
   H -0.349850228E+02  0.141090170E+01 -0.491454662E+01
   H  0.339744794E+02 -0.164418956E+01  0.327633109E+01
     4
 # iter = 64000  time[fs]=64.00000
   C -0.713880233E+01  0.137398767E+00  0.554212524E+00
   C  0.677573143E+01 -0.111567720E+00 -0.387803535E+00
   H -0.353881524E+02  0.142731684E+01 -0.497222097E+01
   H  0.343648782E+02 -0.166306894E+01  0.331424925E+01
     4
 # iter = 64500  time[fs]=64.50000
   C -0.722666539E+01  0.138975323E+00  0.561307837E+00
   C  0.685921675E+01 -0.112703165E+00 -0.393208036E+00
   H -0.357914207E+02  0.144373794E+01 -0.502991851E+01
   H  0.347554199E+02 -0.168195570E+01  0.335218344E+01
     4
 # iter = 65000  time[fs]=65.00000
   C -0.731459177E+01  0.140552895E+00  0.568408932E+00
   C  0.694276505E+01 -0.113839511E+00 -0.398617737E+00
   H -0.361948247E+02  0.146016488E+01 -0.508763874E+01
   H  0.351461014E+02 -0.170084968E+01  0.339013331E+01
     4
 # iter = 65500  time[fs]=65.50000
   C -0.740257995E+01  0.142131456E+00  0.575515681E+00
   C  0.702637480E+01 -0.114976733E+00 -0.404032519E+00
   H -0.365983614E+02  0.147659753E+01 -0.514538116E+01
   H  0.355369197E+02 -0.171975071E+01  0.342809852E+01
     4
 # iter = 66000  time[fs]=66.00000
   C -0.749062845E+01  0.143710981E+00  0.582627955E+00
   C  0.711004455E+01 -0.116114808E+00 -0.409452269E+00
   H -0.370020278E+02  0.149303576E+01 -0.520314529E+01
   H  0.359278717E+02 -0.173865866E+01  0.346607875E+01
     4
 # iter = 66500  time[fs]=66.50000
   C -0.757873585E+01  0.145291444E+00  0.589745633E+00
   C  0.719377288E+01 -0.117253714E+00 -0.414876876E+00
   H -0.374058213E+02  0.150947945E+01 -0.526093070E+01
   H  0.363189547E+02 -0.175757336E+01  0.350407368E+01
     4
 # iter = 67000  time[fs]=67.00000
   C -0.766690079E+01  0.146872823E+00  0.596868596E+00
   C  0.727755842E+01 -0.118393430E+00 -0.420306233E+00
   H -0.378097391E+02  0.152592850E+01 -0.531873692E+01
   H  0.367101657E+02 -0.177649469E+01  0.354208301E+01
     4
 # iter = 67500  time[fs]=67.50000
   C -0.775512192E+01  0.148455093E+00  0.603996731E+00
   C  0.736139985E+01 -0.119533935E+00 -0.425740237E+00
   H -0.382137786E+02  0.154238278E+01 -0.537656353E+01
   H  0.371015022E+02 -0.179542249E+01  0.358010644E+01
     4
 # iter = 68000  time[fs]=68.00000
   C -0.784339798E+01  0.150038235E+00  0.611129926E+00
   C  0.744529590E+01 -0.120675208E+00 -0.431178788E+00
   H -0.386179372E+02  0.155884220E+01 -0.543441012E+01
   H  0.374929615E+02 -0.181435664E+01  0.361814368E+01
     4
 # iter = 68500  time[fs]=68.50000
   C -0.793172773E+01  0.151622225E+00  0.618268074E+00
   C  0.752924533E+01 -0.121817231E+00 -0.436621788E+00
   H -0.390222124E+02  0.157530663E+01 -0.549227628E+01
   H  0.378845410E+02 -0.183329700E+01  0.365619446E+01
     4
 # iter = 69000  time[fs]=69.00000
   C -0.802010996E+01  0.153207044E+00  0.625411072E+00
   C  0.761324695E+01 -0.122959986E+00 -0.442069145E+00
   H -0.394266020E+02  0.159177600E+01 -0.555016161E+01
   H  0.382762384E+02 -0.185224346E+01  0.369425849E+01
     4
 # iter = 69500  time[fs]=69.50000
   C -0.810854351E+01  0.154792672E+00  0.632558817E+00
   C  0.769729961E+01 -0.124103454E+00 -0.447520768E+00
   H -0.398311035E+02  0.160825018E+01 -0.560806574E+01
   H  0.386680512E+02 -0.187119589E+01  0.373233552E+01
     4
 # iter = 70000  time[fs]=70.00000
   C -0.819702727E+01  0.156379089E+00  0.639711213E+00
   C  0.778140219E+01 -0.125247618E+00 -0.452976567E+00
   H -0.402357148E+02  0.162472910E+01 -0.566598829E+01
   H  0.390599771E+02 -0.189015416E+01  0.377042530E+01
     4
 # iter = 70500  time[fs]=70.50000
   C -0.828556015E+01  0.157966278E+00  0.646868165E+00
   C  0.786555361E+01 -0.126392463E+00 -0.458436457E+00
   H -0.406404336E+02  0.164121265E+01 -0.572392891E+01
   H  0.394520139E+02 -0.190911818E+01  0.380852757E+01
     4
 # iter = 71000  time[fs]=71.00000
   C -0.837414109E+01  0.159554220E+00  0.654029580E+00
   C  0.794975282E+01 -0.127537970E+00 -0.463900356E+00
   H -0.410452578E+02  0.165770075E+01 -0.578188725E+01
   H  0.398441594E+02 -0.192808781E+01  0.384664210E+01
     4
 # iter = 71500  time[fs]=71.50000
   C -0.846276907E+01  0.161142899E+00  0.661195370E+00
   C  0.803399881E+01 -0.128684126E+00 -0.469368183E+00
   H -0.414501854E+02  0.167419330E+01 -0.583986298E+01
   H  0.402364115E+02 -0.194706296E+01  0.388476865E+01
     4
 # iter = 72000  time[fs]=72.00000
   C -0.855144312E+01  0.162732297E+00  0.668365448E+00
   C  0.811829060E+01 -0.129830915E+00 -0.474839859E+00
   H -0.418552144E+02  0.169069023E+01 -0.589785575E+01
   H  0.406287682E+02 -0.196604353E+01  0.392290699E+01
     4
 # iter = 72500  time[fs]=72.50000
   C -0.864016226E+01  0.164322399E+00  0.675539729E+00
   C  0.820262722E+01 -0.130978323E+00 -0.480315309E+00
   H -0.422603428E+02  0.170719145E+01 -0.595586526E+01
   H  0.410212273E+02 -0.198502940E+01  0.396105691E+01
     4
 # iter = 73000  time[fs]=73.00000
   C -0.872892558E+01  0.165913189E+00  0.682718133E+00
   C  0.828700776E+01 -0.132126335E+00 -0.485794460E+00
   H -0.426655688E+02  0.172369687E+01 -0.601389118E+01
   H  0.414137871E+02 -0.200402047E+01  0.399921819E+01
     4
 # iter = 73500  time[fs]=73.50000
   C -0.881773216E+01  0.167504651E+00  0.689900579E+00
   C  0.837143133E+01 -0.133274939E+00 -0.491277239E+00
   H -0.430708905E+02  0.174020643E+01 -0.607193323E+01
   H  0.418064456E+02 -0.202301666E+01  0.403739062E+01
     4
 # iter = 74000  time[fs]=74.00000
   C -0.890658115E+01  0.169096772E+00  0.697086991E+00
   C  0.845589705E+01 -0.134424120E+00 -0.496763577E+00
   H -0.434763062E+02  0.175672004E+01 -0.612999110E+01
   H  0.421992010E+02 -0.204201787E+01  0.407557399E+01
     4
 # iter = 74500  time[fs]=74.50000
   C -0.899547168E+01  0.170689537E+00  0.704277293E+00
   C  0.854040407E+01 -0.135573867E+00 -0.502253407E+00
   H -0.438818141E+02  0.177323763E+01 -0.618806452E+01
   H  0.425920515E+02 -0.206102400E+01  0.411376811E+01
     4
 # iter = 75000  time[fs]=75.00000
   C -0.908440294E+01  0.172282932E+00  0.711471413E+00
   C  0.862495159E+01 -0.136724167E+00 -0.507746663E+00
   H -0.442874125E+02  0.178975914E+01 -0.624615319E+01
   H  0.429849954E+02 -0.208003497E+01  0.415197279E+01
     4
 # iter = 75500  time[fs]=75.50000
   C -0.917337412E+01  0.173876944E+00  0.718669281E+00
   C  0.870953879E+01 -0.137875007E+00 -0.513243280E+00
   H -0.446930998E+02  0.180628448E+01 -0.630425685E+01
   H  0.433780309E+02 -0.209905069E+01  0.419018784E+01
     4
 # iter = 76000  time[fs]=76.00000
   C -0.926238445E+01  0.175471561E+00  0.725870826E+00
   C  0.879416492E+01 -0.139026378E+00 -0.518743198E+00
   H -0.450988744E+02  0.182281359E+01 -0.636237523E+01
   H  0.437711565E+02 -0.211807108E+01  0.422841308E+01
     4
 # iter = 76500  time[fs]=76.50000
   C -0.935143318E+01  0.177066769E+00  0.733075982E+00
   C  0.887882922E+01 -0.140178267E+00 -0.524246355E+00
   H -0.455047347E+02  0.183934640E+01 -0.642050809E+01
   H  0.441643705E+02 -0.213709605E+01  0.426664833E+01
     4
 # iter = 77000  time[fs]=77.00000
   C -0.944051957E+01  0.178662557E+00  0.740284683E+00
   C  0.896353096E+01 -0.141330663E+00 -0.529752692E+00
   H -0.459106793E+02  0.185588286E+01 -0.647865516E+01
   H  0.445576714E+02 -0.215612552E+01  0.430489342E+01
     4
 # iter = 77500  time[fs]=77.50000
   C -0.952964291E+01  0.180258912E+00  0.747496867E+00
   C  0.904826944E+01 -0.142483556E+00 -0.535262152E+00
   H -0.463167066E+02  0.187242289E+01 -0.653681621E+01
   H  0.449510577E+02 -0.217515942E+01  0.434314817E+01
     4
 # iter = 78000  time[fs]=78.00000
   C -0.961880250E+01  0.181855824E+00  0.754712471E+00
   C  0.913304395E+01 -0.143636936E+00 -0.540774680E+00
   H -0.467228153E+02  0.188896643E+01 -0.659499099E+01
   H  0.453445278E+02 -0.219419767E+01  0.438141243E+01
     4
 # iter = 78500  time[fs]=78.50000
   C -0.970799768E+01  0.183453281E+00  0.761931435E+00
   C  0.921785384E+01 -0.144790794E+00 -0.546290222E+00
   H -0.471290039E+02  0.190551343E+01 -0.665317928E+01
   H  0.457380804E+02 -0.221324019E+01  0.441968603E+01
     4
 # iter = 79000  time[fs]=79.00000
   C -0.979722778E+01  0.185051273E+00  0.769153700E+00
   C  0.930269844E+01 -0.145945118E+00 -0.551808723E+00
   H -0.475352710E+02  0.192206383E+01 -0.671138084E+01
   H  0.461317141E+02 -0.223228692E+01  0.445796881E+01
     4
 # iter = 79500  time[fs]=79.50000
   C -0.988649217E+01  0.186649788E+00  0.776379209E+00
   C  0.938757713E+01 -0.147099900E+00 -0.557330134E+00
   H -0.479416154E+02  0.193861756E+01 -0.676959546E+01
   H  0.465254274E+02 -0.225133778E+01  0.449626064E+01
     4
 # iter = 80000  time[fs]=80.00000
   C -0.997579023E+01  0.188248818E+00  0.783607907E+00
   C  0.947248929E+01 -0.148255131E+00 -0.562854403E+00
   H -0.483480358E+02  0.195517458E+01 -0.682782293E+01
   H  0.469192191E+02 -0.227039271E+01  0.453456135E+01
