     4
 # iter = 25000  time[fs]=25.00000
   C -0.100289336E+01  0.342798919E-01 -0.557234924E-02
   C  0.945759128E+00 -0.337286365E-01 -0.564438113E-02
   H -0.527971694E+01  0.511965794E+00  0.505809359E+00
   H  0.515738005E+01 -0.368661827E+00 -0.248810163E+00
     4
 # iter = 25500  time[fs]=25.50000
   C -0.104975394E+01  0.327298930E-01 -0.859762845E-02
   C  0.982543317E+00 -0.346275997E-01 -0.645862702E-02
   H -0.561716710E+01  0.535253094E+00  0.528139368E+00
   H  0.546181229E+01 -0.398788113E+00 -0.274531124E+00
     4
 # iter = 26000  time[fs]=26.00000
   C -0.110095214E+01  0.303969280E-01 -0.125288203E-01
   C  0.102175487E+01 -0.366467426E-01 -0.827553856E-02
   H -0.596268228E+01  0.553405074E+00  0.545338609E+00
   H  0.576363773E+01 -0.434536356E+00 -0.305813404E+00
     4
 # iter = 26500  time[fs]=26.50000
   C -0.115355595E+01  0.299162934E-01 -0.147183140E-01
   C  0.106611650E+01 -0.367652965E-01 -0.808598004E-02
   H -0.629987543E+01  0.582475750E+00  0.573460185E+00
   H  0.607865565E+01 -0.459790101E+00 -0.326547808E+00
     4
 # iter = 27000  time[fs]=27.00000
   C -0.120716640E+01  0.314067654E-01 -0.150361650E-01
   C  0.111550978E+01 -0.348218638E-01 -0.573914992E-02
   H -0.662770225E+01  0.623235737E+00  0.613274061E+00
   H  0.640740404E+01 -0.473733357E+00 -0.335924570E+00
     4
 # iter = 27500  time[fs]=27.50000
   C -0.126350413E+01  0.328866678E-01 -0.154539992E-01
   C  0.116744958E+01 -0.330420820E-01 -0.347024933E-02
   H -0.695792414E+01  0.663696886E+00  0.652791629E+00
   H  0.673768096E+01 -0.488322855E+00 -0.345905795E+00
     4
 # iter = 28000  time[fs]=28.00000
   C -0.132373365E+01  0.329521800E-01 -0.173666708E-01
   C  0.122012479E+01 -0.329989884E-01 -0.286087391E-02
   H -0.729883087E+01  0.695373965E+00  0.683527299E+00
   H  0.706081885E+01 -0.512015825E+00 -0.364953253E+00
     4
 # iter = 28500  time[fs]=28.50000
   C -0.138708234E+01  0.321587583E-01 -0.202107696E-01
   C  0.127396621E+01 -0.340449641E-01 -0.327102040E-02
   H -0.764684283E+01  0.721673383E+00  0.708887196E+00
   H  0.738007700E+01 -0.541375463E+00 -0.389633915E+00
     4
 # iter = 29000  time[fs]=29.00000
   C -0.145197828E+01  0.318818798E-01 -0.226037712E-01
   C  0.133035311E+01 -0.346042533E-01 -0.313169434E-02
   H -0.799342632E+01  0.750975946E+00  0.737251890E+00
   H  0.770371342E+01 -0.567991389E+00 -0.411540603E+00
     4
 # iter = 29500  time[fs]=29.50000
   C -0.151777219E+01  0.325931017E-01 -0.240678693E-01
   C  0.138965571E+01 -0.341290978E-01 -0.190113835E-02
   H -0.833556144E+01  0.786168617E+00  0.771508163E+00
   H  0.803450354E+01 -0.588953319E+00 -0.427765822E+00
     4
 # iter = 30000  time[fs]=30.00000
   C -0.158497780E+01  0.336181088E-01 -0.252718370E-01
   C  0.145095934E+01 -0.333740195E-01 -0.339199296E-03
   H -0.867720839E+01  0.823175841E+00  0.807580318E+00
   H  0.836826770E+01 -0.608320094E+00 -0.442370880E+00
     4
 # iter = 30500  time[fs]=30.50000
   C -0.165420136E+01  0.342060035E-01 -0.269616585E-01
   C  0.151327689E+01 -0.331819728E-01  0.706445435E-03
   H -0.902280899E+01  0.857454057E+00  0.840924673E+00
   H  0.870036907E+01 -0.630621020E+00 -0.459887249E+00
     4
 # iter = 31000  time[fs]=31.00000
   C -0.172532694E+01  0.343426991E-01 -0.291470652E-01
   C  0.157647063E+01 -0.335609560E-01  0.122360812E-02
   H -0.937234331E+01  0.888932064E+00  0.871469931E+00
   H  0.903065656E+01 -0.655912318E+00 -0.480373042E+00
     4
 # iter = 31500  time[fs]=31.50000
   C -0.179775381E+01  0.345120451E-01 -0.313403413E-01
   C  0.164097992E+01 -0.339549374E-01  0.176459945E-02
   H -0.972277865E+01  0.920560547E+00  0.902166690E+00
   H  0.936201187E+01 -0.681228176E+00 -0.500864106E+00
     4
 # iter = 32000  time[fs]=32.00000
   C -0.187107753E+01  0.350132576E-01 -0.332388304E-01
   C  0.170704521E+01 -0.340183943E-01  0.267163078E-02
   H -0.100722142E+02  0.954166783E+00  0.934842155E+00
   H  0.969619995E+01 -0.704728229E+00 -0.519521549E+00
     4
 # iter = 32500  time[fs]=32.50000
   C -0.194533346E+01  0.357160898E-01 -0.349697116E-01
   C  0.177442908E+01 -0.338940460E-01  0.379903017E-02
   H -0.104213670E+02  0.988967996E+00  0.968713488E+00
   H  0.100323801E+02 -0.727184878E+00 -0.537119092E+00
     4
 # iter = 33000  time[fs]=33.00000
   C -0.202070175E+01  0.363547247E-01 -0.367960603E-01
   C  0.184274883E+01 -0.338791576E-01  0.484689426E-02
   H -0.107717851E+02  0.102335670E+01  0.100217315E+01
   H  0.103688917E+02 -0.750196752E+00 -0.555256551E+00
     4
 # iter = 33500  time[fs]=33.50000
   C -0.209718401E+01  0.368501915E-01 -0.387943936E-01
   C  0.191184152E+01 -0.340594936E-01  0.572709742E-02
   H -0.111238885E+02  0.105685923E+01  0.103474743E+01
   H  0.107052138E+02 -0.774228930E+00 -0.574400067E+00
     4
 # iter = 34000  time[fs]=34.00000
   C -0.217459920E+01  0.373135423E-01 -0.408514581E-01
   C  0.198176674E+01 -0.343056302E-01  0.656694513E-02
   H -0.114769485E+02  0.109015514E+01  0.106711583E+01
   H  0.110419835E+02 -0.798593387E+00 -0.593862573E+00
     4
 # iter = 34500  time[fs]=34.50000
   C -0.225277519E+01  0.378535174E-01 -0.428565338E-01
   C  0.205258759E+01 -0.344911914E-01  0.749090913E-02
   H -0.118302557E+02  0.112390912E+01  0.109994303E+01
   H  0.113798270E+02 -0.822617682E+00 -0.612972491E+00
     4
 # iter = 35000  time[fs]=35.00000
   C -0.233165732E+01  0.384671705E-01 -0.448107826E-01
   C  0.212424586E+01 -0.346169323E-01  0.849651816E-02
   H -0.121837838E+02  0.115810681E+01  0.113321460E+01
   H  0.117186943E+02 -0.846309476E+00 -0.631738266E+00
     4
 # iter = 35500  time[fs]=35.50000
   C -0.241125717E+01  0.390905746E-01 -0.467765194E-01
   C  0.219661903E+01 -0.347531333E-01  0.951194153E-02
   H -0.125378806E+02  0.119236284E+01  0.116654517E+01
   H  0.120581671E+02 -0.870048165E+00 -0.650540012E+00
     4
 # iter = 36000  time[fs]=36.00000
   C -0.249156216E+01  0.396886018E-01 -0.487874121E-01
   C  0.226962164E+01 -0.349376526E-01  0.104979179E-01
   H -0.128927228E+02  0.122646636E+01  0.119972384E+01
   H  0.123980044E+02 -0.894039077E+00 -0.669583708E+00
     4
 # iter = 36500  time[fs]=36.50000
   C -0.257251456E+01  0.402754411E-01 -0.508279471E-01
   C  0.234322816E+01 -0.351526027E-01  0.114710621E-01
   H -0.132481905E+02  0.126050564E+01  0.123283886E+01
   H  0.127382669E+02 -0.918188658E+00 -0.688776394E+00
     4
 # iter = 37000  time[fs]=37.00000
   C -0.265404897E+01  0.408766920E-01 -0.528713202E-01
   C  0.241742952E+01 -0.353673445E-01  0.124608557E-01
   H -0.136040971E+02  0.129463792E+01  0.126604745E+01
   H  0.130790865E+02 -0.942334745E+00 -0.707956458E+00
     4
 # iter = 37500  time[fs]=37.50000
   C -0.273612307E+01  0.414982208E-01 -0.549105670E-01
   C  0.249219741E+01 -0.355738120E-01  0.134743106E-01
   H -0.139603788E+02  0.132890029E+01  0.129938669E+01
   H  0.134204767E+02 -0.966435769E+00 -0.727082830E+00
     4
 # iter = 38000  time[fs]=38.00000
   C -0.281871386E+01  0.421295794E-01 -0.569551330E-01
   C  0.256748786E+01 -0.357826086E-01  0.144998610E-01
   H -0.143170726E+02  0.136323050E+01  0.133279429E+01
   H  0.137623534E+02 -0.990549886E+00 -0.746214129E+00
     4
 # iter = 38500  time[fs]=38.50000
   C -0.290179960E+01  0.427617617E-01 -0.590131065E-01
   C  0.264326112E+01 -0.360028331E-01  0.155275273E-01
   H -0.146742093E+02  0.139757483E+01  0.136621653E+01
   H  0.141046425E+02 -0.101472699E+01 -0.765400677E+00
     4
 # iter = 39000  time[fs]=39.00000
   C -0.298535212E+01  0.433946539E-01 -0.610837601E-01
   C  0.271948984E+01 -0.362336073E-01  0.165573809E-01
   H -0.150317670E+02  0.143193342E+01  0.139965351E+01
   H  0.144473254E+02 -0.103896338E+01 -0.784639163E+00
     4
 # iter = 39500  time[fs]=39.50000
   C -0.306934149E+01  0.440320854E-01 -0.631624912E-01
   C  0.279615325E+01 -0.364696789E-01  0.175939328E-01
   H -0.153897018E+02  0.146633021E+01  0.143312917E+01
   H  0.147904085E+02 -0.106323176E+01 -0.803902674E+00
     4
 # iter = 40000  time[fs]=40.00000
   C -0.315374196E+01  0.446757141E-01 -0.652469306E-01
   C  0.287323000E+01 -0.367083505E-01  0.186391988E-01
   H -0.157479843E+02  0.150077580E+01  0.146665409E+01
   H  0.151338860E+02 -0.108751843E+01 -0.823177822E+00
     4
 # iter = 40500  time[fs]=40.50000
   C -0.323853246E+01  0.453242956E-01 -0.673376668E-01
   C  0.295069718E+01 -0.369502981E-01  0.196918743E-01
   H -0.161066042E+02  0.153526306E+01  0.150022113E+01
   H  0.154777355E+02 -0.111182759E+01 -0.842469147E+00
     4
 # iter = 41000  time[fs]=41.00000
   C -0.332369404E+01  0.459761548E-01 -0.694357691E-01
   C  0.302853296E+01 -0.371967569E-01  0.207501442E-01
   H -0.164655550E+02  0.156978216E+01  0.153382044E+01
   H  0.158219329E+02 -0.113616637E+01 -0.861784064E+00
     4
 # iter = 41500  time[fs]=41.50000
   C -0.340920807E+01  0.466307324E-01 -0.715412362E-01
   C  0.310671820E+01 -0.374477576E-01  0.218134410E-01
   H -0.168248244E+02  0.160432996E+01  0.156744886E+01
   H  0.161664616E+02 -0.116053536E+01 -0.881123437E+00
     4
 # iter = 42000  time[fs]=42.00000
   C -0.349505656E+01  0.472882320E-01 -0.736533453E-01
   C  0.318523591E+01 -0.377025206E-01  0.228820476E-01
   H -0.171843966E+02  0.163890788E+01  0.160110781E+01
   H  0.165113104E+02 -0.118493074E+01 -0.900483700E+00
     4
 # iter = 42500  time[fs]=42.50000
   C -0.358122281E+01  0.479487713E-01 -0.757714967E-01
   C  0.326407022E+01 -0.379604127E-01  0.239561360E-01
   H -0.175442574E+02  0.167351676E+01  0.163479812E+01
   H  0.168564685E+02 -0.120934940E+01 -0.919861993E+00
     4
 # iter = 43000  time[fs]=43.00000
   C -0.366769162E+01  0.486121246E-01 -0.778954679E-01
   C  0.334320592E+01 -0.382212349E-01  0.250354769E-01
   H -0.179043951E+02  0.170815532E+01  0.166851849E+01
   H  0.172019233E+02 -0.123379052E+01 -0.939257710E+00
     4
 # iter = 43500  time[fs]=43.50000
   C -0.375444892E+01  0.492779556E-01 -0.800251783E-01
   C  0.342262869E+01 -0.384849530E-01  0.261197059E-01
   H -0.182648000E+02  0.174282154E+01  0.170226690E+01
   H  0.175476625E+02 -0.125825411E+01 -0.958671070E+00
     4
 # iter = 44000  time[fs]=44.00000
   C -0.384148148E+01  0.499460304E-01 -0.821604731E-01
   C  0.350232522E+01 -0.387514519E-01  0.272085665E-01
   H -0.186254621E+02  0.177751401E+01  0.173604192E+01
   H  0.178936747E+02 -0.128273970E+01 -0.978101805E+00
     4
 # iter = 44500  time[fs]=44.50000
   C -0.392877685E+01  0.506162212E-01 -0.843011171E-01
   C  0.358228317E+01 -0.390205279E-01  0.283019162E-01
   H -0.189863715E+02  0.181223193E+01  0.176984273E+01
   H  0.182399498E+02 -0.130724631E+01 -0.997549124E+00
     4
 # iter = 45000  time[fs]=45.00000
   C -0.401632335E+01  0.512884220E-01 -0.864468770E-01
   C  0.366249098E+01 -0.392919811E-01  0.293996308E-01
   H -0.193475189E+02  0.184697459E+01  0.180366863E+01
   H  0.185864784E+02 -0.133177295E+01 -0.101701222E+01
     4
 # iter = 45500  time[fs]=45.50000
   C -0.410411005E+01  0.519625078E-01 -0.885975605E-01
   C  0.374293780E+01 -0.395656589E-01  0.305015600E-01
   H -0.197088956E+02  0.188174115E+01  0.183751878E+01
   H  0.189332512E+02 -0.135631887E+01 -0.103649049E+01
     4
 # iter = 46000  time[fs]=46.00000
   C -0.419212670E+01  0.526383467E-01 -0.907530021E-01
   C  0.382361339E+01 -0.398414400E-01  0.316075415E-01
   H -0.200704935E+02  0.191653073E+01  0.187139225E+01
   H  0.192802596E+02 -0.138088346E+01 -0.105598349E+01
     4
 # iter = 46500  time[fs]=46.50000
   C -0.428036369E+01  0.533158200E-01 -0.929130412E-01
   C  0.390450816E+01 -0.401192090E-01  0.327174244E-01
   H -0.204323049E+02  0.195134248E+01  0.190528823E+01
   H  0.196274951E+02 -0.140546611E+01 -0.107549076E+01
     4
 # iter = 47000  time[fs]=47.00000
   C -0.436881194E+01  0.539948255E-01 -0.950775180E-01
   C  0.398561307E+01 -0.403988512E-01  0.338310736E-01
   H -0.207943224E+02  0.198617567E+01  0.193920594E+01
   H  0.199749501E+02 -0.143006621E+01 -0.109501182E+01
     4
 # iter = 47500  time[fs]=47.50000
   C -0.445746292E+01  0.546752710E-01 -0.972462783E-01
   C  0.406691963E+01 -0.406802577E-01  0.349483632E-01
   H -0.211565389E+02  0.202102959E+01  0.197314470E+01
   H  0.203226170E+02 -0.145468317E+01 -0.111454620E+01
     4
 # iter = 48000  time[fs]=48.00000
   C -0.454630855E+01  0.553570698E-01 -0.994191767E-01
   C  0.414841982E+01 -0.409633292E-01  0.360691713E-01
   H -0.215189479E+02  0.205590358E+01  0.200710381E+01
   H  0.206704888E+02 -0.147931641E+01 -0.113409348E+01
     4
 # iter = 48500  time[fs]=48.50000
   C -0.463534125E+01  0.560401401E-01 -0.101596076E+00
   C  0.423010607E+01 -0.412479753E-01  0.371933804E-01
   H -0.218815430E+02  0.209079699E+01  0.204108264E+01
   H  0.210185588E+02 -0.150396542E+01 -0.115365325E+01
     4
 # iter = 49000  time[fs]=49.00000
   C -0.472455384E+01  0.567244061E-01 -0.103776847E+00
   C  0.431197123E+01 -0.415341117E-01  0.383208782E-01
   H -0.222443183E+02  0.212570921E+01  0.207508055E+01
   H  0.213668206E+02 -0.152862970E+01 -0.117322513E+01
     4
 # iter = 49500  time[fs]=49.50000
   C -0.481393952E+01  0.574097979E-01 -0.105961363E+00
   C  0.439400855E+01 -0.418216599E-01  0.394515581E-01
   H -0.226072679E+02  0.216063964E+01  0.210909695E+01
   H  0.217152680E+02 -0.155330878E+01 -0.119280873E+01
     4
 # iter = 50000  time[fs]=50.00000
   C -0.490349188E+01  0.580962507E-01 -0.108149506E+00
   C  0.447621163E+01 -0.421105462E-01  0.405853185E-01
   H -0.229703865E+02  0.219558773E+01  0.214313128E+01
   H  0.220638954E+02 -0.157800219E+01 -0.121240372E+01
     4
 # iter = 50500  time[fs]=50.50000
   C -0.499320482E+01  0.587837042E-01 -0.110341162E+00
   C  0.455857441E+01 -0.424007019E-01  0.417220627E-01
   H -0.233336689E+02  0.223055295E+01  0.217718300E+01
   H  0.224126971E+02 -0.160270950E+01 -0.123200974E+01
     4
 # iter = 51000  time[fs]=51.00000
   C -0.508307257E+01  0.594721022E-01 -0.112536222E+00
   C  0.464109115E+01 -0.426920631E-01  0.428616978E-01
   H -0.236971100E+02  0.226553479E+01  0.221125160E+01
   H  0.227616678E+02 -0.162743031E+01 -0.125162649E+01
     4
 # iter = 51500  time[fs]=51.50000
   C -0.517308966E+01  0.601613923E-01 -0.114734582E+00
   C  0.472375639E+01 -0.429845699E-01  0.440041352E-01
   H -0.240607051E+02  0.230053277E+01  0.224533658E+01
   H  0.231108026E+02 -0.165216420E+01 -0.127125364E+01
     4
 # iter = 52000  time[fs]=52.00000
   C -0.526325090E+01  0.608515256E-01 -0.116936143E+00
   C  0.480656497E+01 -0.432781663E-01  0.451492902E-01
   H -0.244244496E+02  0.233554641E+01  0.227943748E+01
   H  0.234600965E+02 -0.167691080E+01 -0.129089090E+01
     4
 # iter = 52500  time[fs]=52.50000
   C -0.535355134E+01  0.615424565E-01 -0.119140810E+00
   C  0.488951197E+01 -0.435727999E-01  0.462970815E-01
   H -0.247883393E+02  0.237057528E+01  0.231355384E+01
   H  0.238095449E+02 -0.170166976E+01 -0.131053799E+01
     4
 # iter = 53000  time[fs]=53.00000
   C -0.544398628E+01  0.622341422E-01 -0.121348492E+00
   C  0.497259270E+01 -0.438684213E-01  0.474474316E-01
   H -0.251523700E+02  0.240561893E+01  0.234768522E+01
   H  0.241591435E+02 -0.172644071E+01 -0.133019463E+01
     4
 # iter = 53500  time[fs]=53.50000
   C -0.553455125E+01  0.629265430E-01 -0.123559101E+00
   C  0.505580273E+01 -0.441649844E-01  0.486002660E-01
   H -0.255165376E+02  0.244067698E+01  0.238183122E+01
   H  0.245088879E+02 -0.175122332E+01 -0.134986058E+01
     4
 # iter = 54000  time[fs]=54.00000
   C -0.562524199E+01  0.636196215E-01 -0.125772555E+00
   C  0.513913780E+01 -0.444624456E-01  0.497555134E-01
   H -0.258808385E+02  0.247574902E+01  0.241599144E+01
   H  0.248587742E+02 -0.177601729E+01 -0.136953556E+01
     4
 # iter = 54500  time[fs]=54.50000
   C -0.571605444E+01  0.643133425E-01 -0.127988772E+00
   C  0.522259389E+01 -0.447607642E-01  0.509131054E-01
   H -0.262452688E+02  0.251083467E+01  0.245016550E+01
   H  0.252087984E+02 -0.180082229E+01 -0.138921936E+01
     4
 # iter = 55000  time[fs]=55.00000
   C -0.580698473E+01  0.650076732E-01 -0.130207676E+00
   C  0.530616714E+01 -0.450599018E-01  0.520729765E-01
   H -0.266098251E+02  0.254593358E+01  0.248435302E+01
   H  0.255589567E+02 -0.182563803E+01 -0.140891172E+01
     4
 # iter = 55500  time[fs]=55.50000
   C -0.589802917E+01  0.657025829E-01 -0.132429194E+00
   C  0.538985386E+01 -0.453598220E-01  0.532350637E-01
   H -0.269745041E+02  0.258104539E+01  0.251855367E+01
   H  0.259092456E+02 -0.185046424E+01 -0.142861245E+01
     4
 # iter = 56000  time[fs]=56.00000
   C -0.598918423E+01  0.663980424E-01 -0.134653254E+00
   C  0.547365056E+01 -0.456604907E-01  0.543993064E-01
   H -0.273393024E+02  0.261616978E+01  0.255276709E+01
   H  0.262596617E+02 -0.187530064E+01 -0.144832131E+01
     4
 # iter = 56500  time[fs]=56.50000
   C -0.608044653E+01  0.670940246E-01 -0.136879788E+00
   C  0.555755387E+01 -0.459618758E-01  0.555656466E-01
   H -0.277042170E+02  0.265130642E+01  0.258699297E+01
   H  0.266102016E+02 -0.190014696E+01 -0.146803810E+01
     4
 # iter = 57000  time[fs]=57.00000
   C -0.617181284E+01  0.677905037E-01 -0.139108730E+00
   C  0.564156059E+01 -0.462639467E-01  0.567340284E-01
   H -0.280692449E+02  0.268645500E+01  0.262123100E+01
   H  0.269608622E+02 -0.192500297E+01 -0.148776263E+01
     4
 # iter = 57500  time[fs]=57.50000
   C -0.626328010E+01  0.684874557E-01 -0.141340019E+00
   C  0.572566765E+01 -0.465666746E-01  0.579043982E-01
   H -0.284343832E+02  0.272161523E+01  0.265548086E+01
   H  0.273116403E+02 -0.194986840E+01 -0.150749471E+01
     4
 # iter = 58000  time[fs]=58.00000
   C -0.635484534E+01  0.691848577E-01 -0.143573593E+00
   C  0.580987210E+01 -0.468700325E-01  0.590767042E-01
   H -0.287996291E+02  0.275678682E+01  0.268974227E+01
   H  0.276625331E+02 -0.197474304E+01 -0.152723415E+01
     4
 # iter = 58500  time[fs]=58.50000
   C -0.644650573E+01  0.698826884E-01 -0.145809393E+00
   C  0.589417114E+01 -0.471739944E-01  0.602508967E-01
   H -0.291649800E+02  0.279196949E+01  0.272401496E+01
   H  0.280135376E+02 -0.199962665E+01 -0.154698078E+01
     4
 # iter = 59000  time[fs]=59.00000
   C -0.653825856E+01  0.705809274E-01 -0.148047365E+00
   C  0.597856207E+01 -0.474785361E-01  0.614269279E-01
   H -0.295304333E+02  0.282716298E+01  0.275829864E+01
   H  0.283646512E+02 -0.202451903E+01 -0.156673443E+01
     4
 # iter = 59500  time[fs]=59.50000
   C -0.663010123E+01  0.712795556E-01 -0.150287452E+00
   C  0.606304230E+01 -0.477836343E-01  0.626047516E-01
   H -0.298959865E+02  0.286236702E+01  0.279259307E+01
   H  0.287158712E+02 -0.204941995E+01 -0.158649492E+01
     4
 # iter = 60000  time[fs]=60.00000
   C -0.672203125E+01  0.719785549E-01 -0.152529605E+00
   C  0.614760934E+01 -0.480892672E-01  0.637843233E-01
   H -0.302616372E+02  0.289758138E+01  0.282689798E+01
   H  0.290671950E+02 -0.207432923E+01 -0.160626211E+01
     4
 # iter = 60500  time[fs]=60.50000
   C -0.681404623E+01  0.726779082E-01 -0.154773771E+00
   C  0.623226083E+01 -0.483954140E-01  0.649656002E-01
   H -0.306273831E+02  0.293280582E+01  0.286121315E+01
   H  0.294186203E+02 -0.209924666E+01 -0.162603584E+01
     4
 # iter = 61000  time[fs]=61.00000
   C -0.690614386E+01  0.733775995E-01 -0.157019904E+00
   C  0.631699446E+01 -0.487020548E-01  0.661485409E-01
   H -0.309932220E+02  0.296804009E+01  0.289553833E+01
   H  0.297701446E+02 -0.212417206E+01 -0.164581596E+01
     4
 # iter = 61500  time[fs]=61.50000
   C -0.699832193E+01  0.740776132E-01 -0.159267955E+00
   C  0.640180805E+01 -0.490091709E-01  0.673331056E-01
   H -0.313591517E+02  0.300328399E+01  0.292987329E+01
   H  0.301217656E+02 -0.214910524E+01 -0.166560233E+01
     4
 # iter = 62000  time[fs]=62.00000
   C -0.709057832E+01  0.747779351E-01 -0.161517880E+00
   C  0.648669948E+01 -0.493167445E-01  0.685192558E-01
   H -0.317251703E+02  0.303853728E+01  0.296421782E+01
   H  0.304734812E+02 -0.217404604E+01 -0.168539481E+01
     4
 # iter = 62500  time[fs]=62.50000
   C -0.718291099E+01  0.754785512E-01 -0.163769635E+00
   C  0.657166671E+01 -0.496247585E-01  0.697069543E-01
   H -0.320912756E+02  0.307379978E+01  0.299857172E+01
   H  0.308252892E+02 -0.219899428E+01 -0.170519327E+01
     4
 # iter = 63000  time[fs]=63.00000
   C -0.727531798E+01  0.761794486E-01 -0.166023177E+00
   C  0.665670779E+01 -0.499331967E-01  0.708961651E-01
   H -0.324574657E+02  0.310907127E+01  0.303293476E+01
   H  0.311771876E+02 -0.222394980E+01 -0.172499757E+01
     4
 # iter = 63500  time[fs]=63.50000
   C -0.736779737E+01  0.768806149E-01 -0.168278467E+00
   C  0.674182084E+01 -0.502420438E-01  0.720868536E-01
   H -0.328237387E+02  0.314435155E+01  0.306730676E+01
   H  0.315291742E+02 -0.224891244E+01 -0.174480759E+01
     4
 # iter = 64000  time[fs]=64.00000
   C -0.746034737E+01  0.775820384E-01 -0.170535465E+00
   C  0.682700405E+01 -0.505512850E-01  0.732789863E-01
   H -0.331900929E+02  0.317964045E+01  0.310168753E+01
   H  0.318812473E+02 -0.227388204E+01 -0.176462322E+01
     4
 # iter = 64500  time[fs]=64.50000
   C -0.755296620E+01  0.782837079E-01 -0.172794133E+00
   C  0.691225567E+01 -0.508609063E-01  0.744725307E-01
   H -0.335565265E+02  0.321493778E+01  0.313607687E+01
   H  0.322334050E+02 -0.229885846E+01 -0.178444432E+01
     4
 # iter = 65000  time[fs]=65.00000
   C -0.764565218E+01  0.789856128E-01 -0.175054433E+00
   C  0.699757401E+01 -0.511708944E-01  0.756674554E-01
   H -0.339230378E+02  0.325024335E+01  0.317047461E+01
   H  0.325856454E+02 -0.232384156E+01 -0.180427080E+01
     4
 # iter = 65500  time[fs]=65.50000
   C -0.773840368E+01  0.796877431E-01 -0.177316331E+00
   C  0.708295745E+01 -0.514812366E-01  0.768637301E-01
   H -0.342896251E+02  0.328555701E+01  0.320488058E+01
   H  0.329379668E+02 -0.234883119E+01 -0.182410253E+01
     4
 # iter = 66000  time[fs]=66.00000
   C -0.783121911E+01  0.803900891E-01 -0.179579791E+00
   C  0.716840443E+01 -0.517919206E-01  0.780613253E-01
   H -0.346562869E+02  0.332087858E+01  0.323929461E+01
   H  0.332903674E+02 -0.237382723E+01 -0.184393942E+01
     4
 # iter = 66500  time[fs]=66.50000
   C -0.792409696E+01  0.810926418E-01 -0.181844781E+00
   C  0.725391343E+01 -0.521029347E-01  0.792602128E-01
   H -0.350230216E+02  0.335620790E+01  0.327371653E+01
   H  0.336428458E+02 -0.239882953E+01 -0.186378135E+01
     4
 # iter = 67000  time[fs]=67.00000
   C -0.801703576E+01  0.817953925E-01 -0.184111268E+00
   C  0.733948300E+01 -0.524142680E-01  0.804603648E-01
   H -0.353898277E+02  0.339154481E+01  0.330814618E+01
   H  0.339954001E+02 -0.242383797E+01 -0.188362823E+01
     4
 # iter = 67500  time[fs]=67.50000
   C -0.811003410E+01  0.824983329E-01 -0.186379220E+00
   C  0.742511172E+01 -0.527259096E-01  0.816617547E-01
   H -0.357567037E+02  0.342688918E+01  0.334258342E+01
   H  0.343480290E+02 -0.244885244E+01 -0.190347996E+01
     4
 # iter = 68000  time[fs]=68.00000
   C -0.820309060E+01  0.832014551E-01 -0.188648607E+00
   C  0.751079823E+01 -0.530378495E-01  0.828643566E-01
   H -0.361236483E+02  0.346224083E+01  0.337702809E+01
   H  0.347007309E+02 -0.247387280E+01 -0.192333644E+01
     4
 # iter = 68500  time[fs]=68.50000
   C -0.829620394E+01  0.839047516E-01 -0.190919400E+00
   C  0.759654122E+01 -0.533500778E-01  0.840681454E-01
   H -0.364906601E+02  0.349759965E+01  0.341148004E+01
   H  0.350535044E+02 -0.249889895E+01 -0.194319759E+01
     4
 # iter = 69000  time[fs]=69.00000
   C -0.838937284E+01  0.846082152E-01 -0.193191570E+00
   C  0.768233941E+01 -0.536625853E-01  0.852730969E-01
   H -0.368577378E+02  0.353296548E+01  0.344593914E+01
   H  0.354063480E+02 -0.252393078E+01 -0.196306331E+01
     4
 # iter = 69500  time[fs]=69.50000
   C -0.848259606E+01  0.853118392E-01 -0.195465089E+00
   C  0.776819158E+01 -0.539753630E-01  0.864791873E-01
   H -0.372248800E+02  0.356833819E+01  0.348040525E+01
   H  0.357592603E+02 -0.254896816E+01 -0.198293352E+01
     4
 # iter = 70000  time[fs]=70.00000
   C -0.857587241E+01  0.860156169E-01 -0.197739931E+00
   C  0.785409652E+01 -0.542884023E-01  0.876863938E-01
   H -0.375920855E+02  0.360371765E+01  0.351487824E+01
   H  0.361122402E+02 -0.257401100E+01 -0.200280813E+01
     4
 # iter = 70500  time[fs]=70.50000
   C -0.866920072E+01  0.867195422E-01 -0.200016069E+00
   C  0.794005310E+01 -0.546016949E-01  0.888946942E-01
   H -0.379593532E+02  0.363910373E+01  0.354935798E+01
   H  0.364652861E+02 -0.259905920E+01 -0.202268706E+01
     4
 # iter = 71000  time[fs]=71.00000
   C -0.876257987E+01  0.874236091E-01 -0.202293477E+00
   C  0.802606018E+01 -0.549152330E-01  0.901040669E-01
   H -0.383266818E+02  0.367449632E+01  0.358384434E+01
   H  0.368183970E+02 -0.262411265E+01 -0.204257022E+01
     4
 # iter = 71500  time[fs]=71.50000
   C -0.885600878E+01  0.881278120E-01 -0.204572132E+00
   C  0.811211670E+01 -0.552290091E-01  0.913144909E-01
   H -0.386940702E+02  0.370989528E+01  0.361833720E+01
   H  0.371715716E+02 -0.264917125E+01 -0.206245756E+01
     4
 # iter = 72000  time[fs]=72.00000
   C -0.894948640E+01  0.888321453E-01 -0.206852009E+00
   C  0.819822160E+01 -0.555430157E-01  0.925259459E-01
   H -0.390615172E+02  0.374530051E+01  0.365283644E+01
   H  0.375248086E+02 -0.267423492E+01 -0.208234897E+01
     4
 # iter = 72500  time[fs]=72.50000
   C -0.904301169E+01  0.895366039E-01 -0.209133085E+00
   C  0.828437387E+01 -0.558572460E-01  0.937384122E-01
   H -0.394290219E+02  0.378071188E+01  0.368734194E+01
   H  0.378781070E+02 -0.269930356E+01 -0.210224441E+01
     4
 # iter = 73000  time[fs]=73.00000
   C -0.913658367E+01  0.902411828E-01 -0.211415337E+00
   C  0.837057253E+01 -0.561716933E-01  0.949518704E-01
   H -0.397965831E+02  0.381612930E+01  0.372185360E+01
   H  0.382314656E+02 -0.272437707E+01 -0.212214378E+01
     4
 # iter = 73500  time[fs]=73.50000
   C -0.923020139E+01  0.909458772E-01 -0.213698743E+00
   C  0.845681661E+01 -0.564863510E-01  0.961663019E-01
   H -0.401641998E+02  0.385155265E+01  0.375637131E+01
   H  0.385848833E+02 -0.274945538E+01 -0.214204703E+01
     4
 # iter = 74000  time[fs]=74.00000
   C -0.932386391E+01  0.916506827E-01 -0.215983283E+00
   C  0.854310521E+01 -0.568012129E-01  0.973816885E-01
   H -0.405318710E+02  0.388698182E+01  0.379089495E+01
   H  0.389383591E+02 -0.277453839E+01 -0.216195408E+01
     4
 # iter = 74500  time[fs]=74.50000
   C -0.941757033E+01  0.923555948E-01 -0.218268934E+00
   C  0.862943741E+01 -0.571162731E-01  0.985980126E-01
   H -0.408995958E+02  0.392241672E+01  0.382542443E+01
   H  0.392918919E+02 -0.279962603E+01 -0.218186487E+01
     4
 # iter = 75000  time[fs]=75.00000
   C -0.951131976E+01  0.930606094E-01 -0.220555678E+00
   C  0.871581234E+01 -0.574315259E-01  0.998152569E-01
   H -0.412673731E+02  0.395785724E+01  0.385995964E+01
   H  0.396454807E+02 -0.282471822E+01 -0.220177933E+01
     4
 # iter = 75500  time[fs]=75.50000
   C -0.960511137E+01  0.937657224E-01 -0.222843493E+00
   C  0.880222917E+01 -0.577469657E-01  0.101033405E+00
   H -0.416352022E+02  0.399330329E+01  0.389450049E+01
   H  0.399991246E+02 -0.284981487E+01 -0.222169741E+01
     4
 # iter = 76000  time[fs]=76.00000
   C -0.969894432E+01  0.944709300E-01 -0.225132362E+00
   C  0.888868706E+01 -0.580625872E-01  0.102252440E+00
   H -0.420030820E+02  0.402875477E+01  0.392904688E+01
   H  0.403528225E+02 -0.287491590E+01 -0.224161904E+01
     4
 # iter = 76500  time[fs]=76.50000
   C -0.979281781E+01  0.951762286E-01 -0.227422265E+00
   C  0.897518523E+01 -0.583783852E-01  0.103472346E+00
   H -0.423710117E+02  0.406421160E+01  0.396359871E+01
   H  0.407065736E+02 -0.290002126E+01 -0.226154416E+01
     4
 # iter = 77000  time[fs]=77.00000
   C -0.988673106E+01  0.958816146E-01 -0.229713183E+00
   C  0.906172289E+01 -0.586943549E-01  0.104693109E+00
   H -0.427389905E+02  0.409967368E+01  0.399815590E+01
   H  0.410603769E+02 -0.292513085E+01 -0.228147271E+01
     4
 # iter = 77500  time[fs]=77.50000
   C -0.998068332E+01  0.965870846E-01 -0.232005101E+00
   C  0.914829929E+01 -0.590104914E-01  0.105914712E+00
   H -0.431070175E+02  0.413514092E+01  0.403271835E+01
   H  0.414142316E+02 -0.295024462E+01 -0.230140464E+01
     4
 # iter = 78000  time[fs]=78.00000
   C -0.100746738E+02  0.972926354E-01 -0.234297999E+00
   C  0.923491370E+01 -0.593267901E-01  0.107137142E+00
   H -0.434750920E+02  0.417061325E+01  0.406728599E+01
   H  0.417681369E+02 -0.297536248E+01 -0.232133989E+01
     4
 # iter = 78500  time[fs]=78.50000
   C -0.101687019E+02  0.979982638E-01 -0.236591862E+00
   C  0.932156541E+01 -0.596432466E-01  0.108360384E+00
   H -0.438432130E+02  0.420609057E+01  0.410185871E+01
   H  0.421220917E+02 -0.300048438E+01 -0.234127841E+01
     4
 # iter = 79000  time[fs]=79.00000
   C -0.102627668E+02  0.987039670E-01 -0.238886672E+00
   C  0.940825372E+01 -0.599598567E-01  0.109584424E+00
   H -0.442113799E+02  0.424157280E+01  0.413643646E+01
   H  0.424760954E+02 -0.302561026E+01 -0.236122014E+01
     4
 # iter = 79500  time[fs]=79.50000
   C -0.103568679E+02  0.994097419E-01 -0.241182415E+00
   C  0.949497796E+01 -0.602766162E-01  0.110809248E+00
   H -0.445795920E+02  0.427705987E+01  0.417101913E+01
   H  0.428301472E+02 -0.305074003E+01 -0.238116503E+01
     4
 # iter = 80000  time[fs]=80.00000
   C -0.104510045E+02  0.100115586E+00 -0.243479074E+00
   C  0.958173747E+01 -0.605935211E-01  0.112034844E+00
   H -0.449478484E+02  0.431255170E+01  0.420560665E+01
   H  0.431842462E+02 -0.307587365E+01 -0.240111304E+01
