     4
 # iter = 25000  time[fs]=25.00000
   C -0.978938708E+00  0.275882753E-01 -0.118154334E-01
   C  0.105155210E+01 -0.287626735E-02  0.133219190E-01
   H -0.528404192E+01 -0.443067424E+00 -0.259432198E+00
   H  0.540247252E+01  0.565042810E-01  0.497053080E+00
     4
 # iter = 25500  time[fs]=25.50000
   C -0.102631539E+01  0.289817531E-01 -0.129293296E-01
   C  0.109653108E+01 -0.441106603E-02  0.105828951E-01
   H -0.562704018E+01 -0.477671066E+00 -0.285675478E+00
   H  0.571965866E+01  0.530071903E-01  0.518224484E+00
     4
 # iter = 26000  time[fs]=26.00000
   C -0.107762650E+01  0.293799993E-01 -0.151472243E-01
   C  0.114351093E+01 -0.687535680E-02  0.696668263E-02
   H -0.598104365E+01 -0.518216870E+00 -0.317632647E+00
   H  0.603666577E+01  0.441619626E-01  0.534497037E+00
     4
 # iter = 26500  time[fs]=26.50000
   C -0.112942513E+01  0.319855788E-01 -0.152547403E-01
   C  0.119488749E+01 -0.762389812E-02  0.511317322E-02
   H -0.632931288E+01 -0.548562436E+00 -0.339191418E+00
   H  0.636904309E+01  0.460541599E-01  0.561908868E+00
     4
 # iter = 27000  time[fs]=27.00000
   C -0.118133046E+01  0.369516725E-01 -0.130884349E-01
   C  0.125056484E+01 -0.652436854E-02  0.514992863E-02
   H -0.667051371E+01 -0.567859461E+00 -0.349527332E+00
   H  0.671710277E+01  0.594747974E-01  0.601208811E+00
     4
 # iter = 27500  time[fs]=27.50000
   C -0.123552485E+01  0.418860189E-01 -0.110316458E-01
   C  0.130837034E+01 -0.554209497E-02  0.510742511E-02
   H -0.701616721E+01 -0.588026994E+00 -0.360578506E+00
   H  0.706843887E+01  0.724466957E-01  0.640382028E+00
     4
 # iter = 28000  time[fs]=28.00000
   C -0.129351027E+01  0.450949001E-01 -0.107702677E-01
   C  0.136672429E+01 -0.606708519E-02  0.359186551E-02
   H -0.737435606E+01 -0.617491637E+00 -0.380787687E+00
   H  0.741420762E+01  0.764949041E-01  0.670921310E+00
     4
 # iter = 28500  time[fs]=28.50000
   C -0.135443439E+01  0.472564997E-01 -0.116192209E-01
   C  0.142601674E+01 -0.753531942E-02  0.116380712E-02
   H -0.774131793E+01 -0.652799106E+00 -0.406714825E+00
   H  0.775752012E+01  0.750404655E-01  0.696220729E+00
     4
 # iter = 29000  time[fs]=29.00000
   C -0.141646911E+01  0.500411821E-01 -0.119020681E-01
   C  0.148747053E+01 -0.856555853E-02 -0.798629575E-03
   H -0.810835867E+01 -0.685528409E+00 -0.429951372E+00
   H  0.810650741E+01  0.764798076E-01  0.724653707E+00
     4
 # iter = 29500  time[fs]=29.50000
   C -0.147889715E+01  0.540235184E-01 -0.110389052E-01
   C  0.155142109E+01 -0.867962431E-02 -0.182001647E-02
   H -0.847231904E+01 -0.712756492E+00 -0.447584884E+00
   H  0.846383189E+01  0.837109334E-01  0.759097861E+00
     4
 # iter = 30000  time[fs]=30.00000
   C -0.154240364E+01  0.583893710E-01 -0.983918206E-02
   C  0.161707393E+01 -0.854374076E-02 -0.256898614E-02
   H -0.883703817E+01 -0.738525720E+00 -0.463666736E+00
   H  0.882521179E+01  0.926641514E-01  0.795465161E+00
     4
 # iter = 30500  time[fs]=30.50000
   C -0.160777958E+01  0.622312720E-01 -0.920622710E-02
   C  0.168357000E+01 -0.890134561E-02 -0.379110472E-02
   H -0.920685173E+01 -0.767350170E+00 -0.482718832E+00
   H  0.918591940E+01  0.988005573E-01  0.829200394E+00
     4
 # iter = 31000  time[fs]=31.00000
   C -0.167493526E+01  0.655338126E-01 -0.915177644E-02
   C  0.175079586E+01 -0.976128182E-02 -0.549711487E-02
   H -0.958164585E+01 -0.799275822E+00 -0.504794107E+00
   H  0.954572389E+01  0.102055459E+00  0.860224552E+00
     4
 # iter = 31500  time[fs]=31.50000
   C -0.174318839E+01  0.688843623E-01 -0.908519412E-02
   C  0.181914430E+01 -0.106360860E-01 -0.720125011E-02
   H -0.995830428E+01 -0.831330236E+00 -0.526926332E+00
   H  0.990743682E+01  0.105387133E+00  0.891483283E+00
     4
 # iter = 32000  time[fs]=32.00000
   C -0.181208979E+01  0.726463012E-01 -0.864019131E-02
   C  0.188883248E+01 -0.112230624E-01 -0.860232235E-02
   H -0.103348517E+02 -0.861666511E+00 -0.547274115E+00
   H  0.102727602E+02  0.110629124E+00  0.924798830E+00
     4
 # iter = 32500  time[fs]=32.50000
   C -0.188171892E+01  0.766625074E-01 -0.797129478E-02
   C  0.195965677E+01 -0.116485377E-01 -0.982799514E-02
   H -0.107119383E+02 -0.891049277E+00 -0.566606960E+00
   H  0.106407966E+02  0.117002793E+00  0.959382330E+00
     4
 # iter = 33000  time[fs]=33.00000
   C -0.195232695E+01  0.806114330E-01 -0.739773068E-02
   C  0.203128523E+01 -0.121745247E-01 -0.111414702E-01
   H -0.110910524E+02 -0.921069474E+00 -0.586520148E+00
   H  0.110098338E+02  0.122903845E+00  0.993620234E+00
     4
 # iter = 33500  time[fs]=33.50000
   C -0.202394538E+01  0.843977177E-01 -0.701277448E-02
   C  0.210357845E+01 -0.128769284E-01 -0.126197158E-01
   H -0.114725603E+02 -0.952186048E+00 -0.607476535E+00
   H  0.113793045E+02  0.127862104E+00  0.102703402E+01
     4
 # iter = 34000  time[fs]=34.00000
   C -0.209638148E+01  0.881560664E-01 -0.667984421E-02
   C  0.217659213E+01 -0.136423316E-01 -0.141502683E-01
   H -0.118556850E+02 -0.983706333E+00 -0.628786992E+00
   H  0.117498043E+02  0.132560999E+00  0.106029956E+01
     4
 # iter = 34500  time[fs]=34.50000
   C -0.216945066E+01  0.920182777E-01 -0.626544725E-02
   C  0.225038459E+01 -0.143598888E-01 -0.156231381E-01
   H -0.122396732E+02 -0.101495373E+01 -0.649778121E+00
   H  0.121219214E+02  0.137668767E+00  0.109407825E+01
     4
 # iter = 35000  time[fs]=35.00000
   C -0.224310833E+01  0.959807678E-01 -0.577163555E-02
   C  0.232490710E+01 -0.150304404E-01 -0.170399343E-01
   H -0.126244587E+02 -0.104593163E+01 -0.670456215E+00
   H  0.124955714E+02  0.143173869E+00  0.112835229E+01
     4
 # iter = 35500  time[fs]=35.50000
   C -0.231738804E+01  0.999660163E-01 -0.527454064E-02
   C  0.240005405E+01 -0.157158860E-01 -0.184632478E-01
   H -0.130103531E+02 -0.107701525E+01 -0.691199123E+00
   H  0.128703045E+02  0.148693329E+00  0.116273296E+01
     4
 # iter = 36000  time[fs]=36.00000
   C -0.239229224E+01  0.103931344E+00 -0.481557983E-02
   C  0.247575213E+01 -0.164495673E-01 -0.199270444E-01
   H -0.133975000E+02 -0.110840620E+01 -0.712210876E+00
   H  0.132458508E+02  0.154018538E+00  0.119700642E+01
     4
 # iter = 36500  time[fs]=36.50000
   C -0.246776704E+01  0.107893777E+00 -0.437657617E-02
   C  0.255198042E+01 -0.172157738E-01 -0.214161780E-01
   H -0.137857491E+02 -0.114000778E+01 -0.733396958E+00
   H  0.136222448E+02  0.159240038E+00  0.123125837E+01
     4
 # iter = 37000  time[fs]=37.00000
   C -0.254374779E+01  0.111884139E+00 -0.392565804E-02
   C  0.262873226E+01 -0.179875498E-01 -0.229042048E-01
   H -0.141748866E+02 -0.117165498E+01 -0.754594395E+00
   H  0.139995942E+02  0.164517209E+00  0.126564377E+01
     4
 # iter = 37500  time[fs]=37.50000
   C -0.262019648E+01  0.115909322E+00 -0.345497022E-02
   C  0.270598389E+01 -0.187577578E-01 -0.243844518E-01
   H -0.145648227E+02 -0.120330354E+01 -0.775760778E+00
   H  0.143778901E+02  0.169889040E+00  0.130019750E+01
     4
 # iter = 38000  time[fs]=38.00000
   C -0.269709734E+01  0.119956444E+00 -0.297651632E-02
   C  0.278369760E+01 -0.195356529E-01 -0.258665964E-01
   H -0.149555714E+02 -0.123500906E+01 -0.796953418E+00
   H  0.147570279E+02  0.175294976E+00  0.133485524E+01
     4
 # iter = 38500  time[fs]=38.50000
   C -0.277443511E+01  0.124014357E+00 -0.250063459E-02
   C  0.286183922E+01 -0.203291511E-01 -0.273589400E-01
   H -0.153471416E+02 -0.126681907E+01 -0.818221434E+00
   H  0.151369148E+02  0.180682891E+00  0.136956134E+01
     4
 # iter = 39000  time[fs]=39.00000
   C -0.285218576E+01  0.128082680E+00 -0.202696147E-02
   C  0.294038540E+01 -0.211373853E-01 -0.288609669E-01
   H -0.157394916E+02 -0.129872773E+01 -0.839560442E+00
   H  0.155175144E+02  0.186054419E+00  0.140431420E+01
     4
 # iter = 39500  time[fs]=39.50000
   C -0.293032229E+01  0.132165806E+00 -0.155041733E-02
   C  0.301931843E+01 -0.219556332E-01 -0.303682766E-01
   H -0.161325590E+02 -0.133070579E+01 -0.860942558E+00
   H  0.158988169E+02  0.191434905E+00  0.143913612E+01
     4
 # iter = 40000  time[fs]=40.00000
   C -0.300882204E+01  0.136265496E+00 -0.106860667E-02
   C  0.309862003E+01 -0.227814122E-01 -0.318786812E-01
   H -0.165262973E+02 -0.136273770E+01 -0.882353481E+00
   H  0.162808014E+02  0.196836272E+00  0.147403623E+01
     4
 # iter = 40500  time[fs]=40.50000
   C -0.308766732E+01  0.140379997E+00 -0.582696349E-03
   C  0.317827043E+01 -0.236152008E-01 -0.333929300E-01
   H -0.169206802E+02 -0.139482597E+01 -0.903796894E+00
   H  0.166634316E+02  0.202252605E+00  0.150900599E+01
     4
 # iter = 41000  time[fs]=41.00000
   C -0.316684237E+01  0.144507035E+00 -0.944150332E-04
   C  0.325825076E+01 -0.244579659E-01 -0.349122387E-01
   H -0.173156865E+02 -0.142697611E+01 -0.925279410E+00
   H  0.170466703E+02  0.207675201E+00  0.154403423E+01
     4
 # iter = 41500  time[fs]=41.50000
   C -0.324633130E+01  0.148645694E+00  0.395824712E-03
   C  0.333854445E+01 -0.253096143E-01 -0.364367432E-01
   H -0.177112900E+02 -0.145918723E+01 -0.946801150E+00
   H  0.174304886E+02  0.213101984E+00  0.157911660E+01
     4
 # iter = 42000  time[fs]=42.00000
   C -0.332611845E+01  0.152795984E+00  0.888503908E-03
   C  0.341913677E+01 -0.261693395E-01 -0.379658485E-01
   H -0.181074622E+02 -0.149145412E+01 -0.968357860E+00
   H  0.178148641E+02  0.218535383E+00  0.161425338E+01
     4
 # iter = 42500  time[fs]=42.50000
   C -0.340618930E+01  0.156957818E+00  0.138397238E-02
   C  0.350001392E+01 -0.270364642E-01 -0.394990728E-01
   H -0.185041767E+02 -0.152377239E+01 -0.989946038E+00
   H  0.181997752E+02  0.223977185E+00  0.164944434E+01
     4
 # iter = 43000  time[fs]=43.00000
   C -0.348653072E+01  0.161130699E+00  0.188214014E-02
   C  0.358116266E+01 -0.279106937E-01 -0.410363020E-01
   H -0.189014108E+02 -0.155613999E+01 -0.101156447E+01
   H  0.185851995E+02  0.229426984E+00  0.168468719E+01
     4
 # iter = 43500  time[fs]=43.50000
   C -0.356713056E+01  0.165313999E+00  0.238276210E-02
   C  0.366257047E+01 -0.287918799E-01 -0.425775554E-01
   H -0.192991439E+02 -0.158855578E+01 -0.103321282E+01
   H  0.189711152E+02  0.234883609E+00  0.171997897E+01
     4
 # iter = 44000  time[fs]=44.00000
   C -0.364797736E+01  0.169507223E+00  0.288569892E-02
   C  0.374422572E+01 -0.296798053E-01 -0.441227710E-01
   H -0.196973564E+02 -0.162101824E+01 -0.105489028E+01
   H  0.193575023E+02  0.240346426E+00  0.175531740E+01
     4
 # iter = 44500  time[fs]=44.50000
   C -0.372906028E+01  0.173710012E+00  0.339092338E-02
   C  0.382611759E+01 -0.305741768E-01 -0.456718002E-01
   H -0.200960291E+02 -0.165352538E+01 -0.107659556E+01
   H  0.197443424E+02  0.245815373E+00  0.179070081E+01
     4
 # iter = 45000  time[fs]=45.00000
   C -0.381036912E+01  0.177922036E+00  0.389842031E-02
   C  0.390823594E+01 -0.314747071E-01 -0.472244899E-01
   H -0.204951439E+02 -0.168607526E+01 -0.109832740E+01
   H  0.201316183E+02  0.251290453E+00  0.182612775E+01
     4
 # iter = 45500  time[fs]=45.50000
   C -0.389189434E+01  0.182142951E+00  0.440813855E-02
   C  0.399057120E+01 -0.323811533E-01 -0.487807225E-01
   H -0.208946838E+02 -0.171866624E+01 -0.112008474E+01
   H  0.205193135E+02  0.256771493E+00  0.186159662E+01
     4
 # iter = 46000  time[fs]=46.00000
   C -0.397362698E+01  0.186372411E+00  0.492000743E-02
   C  0.407311438E+01 -0.332933026E-01 -0.503404018E-01
   H -0.212946331E+02 -0.175129687E+01 -0.114186673E+01
   H  0.209074123E+02  0.262258228E+00  0.189710583E+01
     4
 # iter = 46500  time[fs]=46.50000
   C -0.405555861E+01  0.190610091E+00  0.543396206E-02
   C  0.415585698E+01 -0.342109506E-01 -0.519034325E-01
   H -0.216949767E+02 -0.178396574E+01 -0.116367252E+01
   H  0.212959000E+02  0.267750420E+00  0.193265389E+01
     4
 # iter = 47000  time[fs]=47.00000
   C -0.413768127E+01  0.194855692E+00  0.594994854E-02
   C  0.423879103E+01 -0.351338959E-01 -0.534697151E-01
   H -0.220957003E+02 -0.181667149E+01 -0.118550126E+01
   H  0.216847626E+02  0.273247890E+00  0.196823944E+01
     4
 # iter = 47500  time[fs]=47.50000
   C -0.421998745E+01  0.199108935E+00  0.646791716E-02
   C  0.432190900E+01 -0.360619455E-01 -0.550391520E-01
   H -0.224967905E+02 -0.184941282E+01 -0.120735213E+01
   H  0.220739869E+02  0.278750483E+00  0.200386119E+01
     4
 # iter = 48000  time[fs]=48.00000
   C -0.430247005E+01  0.203369551E+00  0.698781771E-02
   C  0.440520377E+01 -0.369949178E-01 -0.566116510E-01
   H -0.228982343E+02 -0.188218848E+01 -0.122922439E+01
   H  0.224635603E+02  0.284258040E+00  0.203951791E+01
     4
 # iter = 48500  time[fs]=48.50000
   C -0.438512237E+01  0.207637285E+00  0.750959970E-02
   C  0.448866863E+01 -0.379326415E-01 -0.581871247E-01
   H -0.233000197E+02 -0.191499732E+01 -0.125111730E+01
   H  0.228534709E+02  0.289770400E+00  0.207520843E+01
     4
 # iter = 49000  time[fs]=49.00000
   C -0.446793807E+01  0.211911892E+00  0.803321407E-02
   C  0.457229722E+01 -0.388749540E-01 -0.597654892E-01
   H -0.237021350E+02 -0.194783824E+01 -0.127303018E+01
   H  0.232437074E+02  0.295287410E+00  0.211093161E+01
     4
 # iter = 49500  time[fs]=49.50000
   C -0.455091115E+01  0.216193143E+00  0.855861382E-02
   C  0.465608351E+01 -0.398217004E-01 -0.613466635E-01
   H -0.241045694E+02 -0.198071018E+01 -0.129496240E+01
   H  0.236342589E+02  0.300808926E+00  0.214668641E+01
     4
 # iter = 50000  time[fs]=50.00000
   C -0.463403591E+01  0.220480817E+00  0.908575366E-02
   C  0.474002179E+01 -0.407727326E-01 -0.629305694E-01
   H -0.245073123E+02 -0.201361215E+01 -0.131691331E+01
   H  0.240251153E+02  0.306334813E+00  0.218247182E+01
     4
 # iter = 50500  time[fs]=50.50000
   C -0.471730695E+01  0.224774706E+00  0.961458969E-02
   C  0.482410665E+01 -0.417279099E-01 -0.645171316E-01
   H -0.249103538E+02 -0.204654318E+01 -0.133888235E+01
   H  0.244162667E+02  0.311864941E+00  0.221828685E+01
     4
 # iter = 51000  time[fs]=51.00000
   C -0.480071916E+01  0.229074608E+00  0.101450793E-01
   C  0.490833295E+01 -0.426870981E-01 -0.661062778E-01
   H -0.253136844E+02 -0.207950237E+01 -0.136086893E+01
   H  0.248077039E+02  0.317399184E+00  0.225413061E+01
     4
 # iter = 51500  time[fs]=51.50000
   C -0.488426766E+01  0.233380335E+00  0.106771811E-01
   C  0.499269582E+01 -0.436501694E-01 -0.676979384E-01
   H -0.257172952E+02 -0.211248885E+01 -0.138287253E+01
   H  0.251994179E+02  0.322937423E+00  0.229000220E+01
     4
 # iter = 52000  time[fs]=52.00000
   C -0.496794783E+01  0.237691705E+00  0.112108552E-01
   C  0.507719061E+01 -0.446170016E-01 -0.692920465E-01
   H -0.261211773E+02 -0.214550179E+01 -0.140489262E+01
   H  0.255914002E+02  0.328479544E+00  0.232590080E+01
     4
 # iter = 52500  time[fs]=52.50000
   C -0.505175525E+01  0.242008543E+00  0.117460629E-01
   C  0.516181290E+01 -0.455874781E-01 -0.708885373E-01
   H -0.265253227E+02 -0.217854040E+01 -0.142692872E+01
   H  0.259836429E+02  0.334025437E+00  0.236182559E+01
     4
 # iter = 53000  time[fs]=53.00000
   C -0.513568574E+01  0.246330685E+00  0.122827669E-01
   C  0.524655850E+01 -0.465614874E-01 -0.724873488E-01
   H -0.269297234E+02 -0.221160392E+01 -0.144898036E+01
   H  0.263761380E+02  0.339574997E+00  0.239777582E+01
     4
 # iter = 53500  time[fs]=53.50000
   C -0.521973530E+01  0.250657971E+00  0.128209309E-01
   C  0.533142339E+01 -0.475389230E-01 -0.740884209E-01
   H -0.273343719E+02 -0.224469163E+01 -0.147104710E+01
   H  0.267688783E+02  0.345128123E+00  0.243375074E+01
     4
 # iter = 54000  time[fs]=54.00000
   C -0.530390012E+01  0.254990250E+00  0.133605197E-01
   C  0.541640375E+01 -0.485196828E-01 -0.756916959E-01
   H -0.277392610E+02 -0.227780283E+01 -0.149312848E+01
   H  0.271618566E+02  0.350684719E+00  0.246974965E+01
     4
 # iter = 54500  time[fs]=54.50000
   C -0.538817657E+01  0.259327378E+00  0.139014995E-01
   C  0.550149595E+01 -0.495036694E-01 -0.772971180E-01
   H -0.281443838E+02 -0.231093686E+01 -0.151522412E+01
   H  0.275550661E+02  0.356244691E+00  0.250577189E+01
     4
 # iter = 55000  time[fs]=55.00000
   C -0.547256117E+01  0.263669213E+00  0.144438374E-01
   C  0.558669650E+01 -0.504907891E-01 -0.789046335E-01
   H -0.285497337E+02 -0.234409309E+01 -0.153733361E+01
   H  0.279485003E+02  0.361807951E+00  0.254181680E+01
     4
 # iter = 55500  time[fs]=55.50000
   C -0.555705061E+01  0.268015624E+00  0.149875016E-01
   C  0.567200207E+01 -0.514809524E-01 -0.805141905E-01
   H -0.289553044E+02 -0.237727090E+01 -0.155945657E+01
   H  0.283421530E+02  0.367374412E+00  0.257788377E+01
     4
 # iter = 56000  time[fs]=56.00000
   C -0.564164171E+01  0.272366483E+00  0.155324612E-01
   C  0.575740950E+01 -0.524740735E-01 -0.821257390E-01
   H -0.293610897E+02 -0.241046970E+01 -0.158159263E+01
   H  0.287360182E+02  0.372943993E+00  0.261397219E+01
     4
 # iter = 56500  time[fs]=56.50000
   C -0.572633146E+01  0.276721666E+00  0.160786864E-01
   C  0.584291574E+01 -0.534700698E-01 -0.837392307E-01
   H -0.297670838E+02 -0.244368894E+01 -0.160374146E+01
   H  0.291300901E+02  0.378516614E+00  0.265008151E+01
     4
 # iter = 57000  time[fs]=57.00000
   C -0.581111694E+01  0.281081057E+00  0.166261483E-01
   C  0.592851788E+01 -0.544688623E-01 -0.853546188E-01
   H -0.301732812E+02 -0.247692807E+01 -0.162590271E+01
   H  0.295243632E+02  0.384092199E+00  0.268621116E+01
     4
 # iter = 57500  time[fs]=57.50000
   C -0.589599538E+01  0.285444541E+00  0.171748189E-01
   C  0.601421314E+01 -0.554703749E-01 -0.869718583E-01
   H -0.305796764E+02 -0.251018658E+01 -0.164807606E+01
   H  0.299188323E+02  0.389670674E+00  0.272236063E+01
     4
 # iter = 58000  time[fs]=58.00000
   C -0.598096410E+01  0.289812011E+00  0.177246710E-01
   C  0.609999884E+01 -0.564745348E-01 -0.885909056E-01
   H -0.309862643E+02 -0.254346396E+01 -0.167026120E+01
   H  0.303134921E+02  0.395251968E+00  0.275852941E+01
     4
 # iter = 58500  time[fs]=58.50000
   C -0.606602057E+01  0.294183361E+00  0.182756784E-01
   C  0.618587244E+01 -0.574812718E-01 -0.902117186E-01
   H -0.313930400E+02 -0.257675974E+01 -0.169245782E+01
   H  0.307083379E+02  0.400836013E+00  0.279471700E+01
     4
 # iter = 59000  time[fs]=59.00000
   C -0.615116234E+01  0.298558491E+00  0.188278156E-01
   C  0.627183147E+01 -0.584905183E-01 -0.918342567E-01
   H -0.317999985E+02 -0.261007345E+01 -0.171466566E+01
   H  0.311033649E+02  0.406422744E+00  0.283092293E+01
     4
 # iter = 59500  time[fs]=59.50000
   C -0.623638704E+01  0.302937305E+00  0.193810578E-01
   C  0.635787359E+01 -0.595022094E-01 -0.934584804E-01
   H -0.322071354E+02 -0.264340465E+01 -0.173688442E+01
   H  0.314985686E+02  0.412012096E+00  0.286714676E+01
     4
 # iter = 60000  time[fs]=60.00000
   C -0.632169242E+01  0.307319710E+00  0.199353812E-01
   C  0.644399652E+01 -0.605162827E-01 -0.950843516E-01
   H -0.326144461E+02 -0.267675291E+01 -0.175911383E+01
   H  0.318939445E+02  0.417604008E+00  0.290338805E+01
     4
 # iter = 60500  time[fs]=60.50000
   C -0.640707633E+01  0.311705614E+00  0.204907624E-01
   C  0.653019810E+01 -0.615326780E-01 -0.967118335E-01
   H -0.330219265E+02 -0.271011781E+01 -0.178135365E+01
   H  0.322894884E+02  0.423198422E+00  0.293964637E+01
     4
 # iter = 61000  time[fs]=61.00000
   C -0.649253666E+01  0.316094933E+00  0.210471790E-01
   C  0.661647623E+01 -0.625513373E-01 -0.983408904E-01
   H -0.334295723E+02 -0.274349895E+01 -0.180360363E+01
   H  0.326851964E+02  0.428795279E+00  0.297592132E+01
     4
 # iter = 61500  time[fs]=61.50000
   C -0.657807143E+01  0.320487583E+00  0.216046090E-01
   C  0.670282892E+01 -0.635722047E-01 -0.999714878E-01
   H -0.338373797E+02 -0.277689596E+01 -0.182586352E+01
   H  0.330810644E+02  0.434394526E+00  0.301221251E+01
     4
 # iter = 62000  time[fs]=62.00000
   C -0.666367869E+01  0.324883484E+00  0.221630313E-01
   C  0.678925422E+01 -0.645952264E-01 -0.101603592E+00
   H -0.342453448E+02 -0.281030846E+01 -0.184813309E+01
   H  0.334770888E+02  0.439996107E+00  0.304851955E+01
     4
 # iter = 62500  time[fs]=62.50000
   C -0.674935661E+01  0.329282557E+00  0.227224253E-01
   C  0.687575028E+01 -0.656203503E-01 -0.103237171E+00
   H -0.346534638E+02 -0.284373609E+01 -0.187041212E+01
   H  0.338732657E+02  0.445599972E+00  0.308484210E+01
     4
 # iter = 63000  time[fs]=63.00000
   C -0.683510338E+01  0.333684728E+00  0.232827709E-01
   C  0.696231531E+01 -0.666475264E-01 -0.104872193E+00
   H -0.350617333E+02 -0.287717850E+01 -0.189270039E+01
   H  0.342695918E+02  0.451206071E+00  0.312117978E+01
     4
 # iter = 63500  time[fs]=63.50000
   C -0.692091728E+01  0.338089925E+00  0.238440489E-01
   C  0.704894758E+01 -0.676767062E-01 -0.106508628E+00
   H -0.354701497E+02 -0.291063537E+01 -0.191499771E+01
   H  0.346660635E+02  0.456814355E+00  0.315753227E+01
     4
 # iter = 64000  time[fs]=64.00000
   C -0.700679667E+01  0.342498079E+00  0.244062402E-01
   C  0.713564543E+01 -0.687078429E-01 -0.108146446E+00
   H -0.358787098E+02 -0.294410636E+01 -0.193730385E+01
   H  0.350626777E+02  0.462424778E+00  0.319389922E+01
     4
 # iter = 64500  time[fs]=64.50000
   C -0.709273993E+01  0.346909120E+00  0.249693267E-01
   C  0.722240726E+01 -0.697408914E-01 -0.109785618E+00
   H -0.362874102E+02 -0.297759117E+01 -0.195961864E+01
   H  0.354594311E+02  0.468037294E+00  0.323028033E+01
     4
 # iter = 65000  time[fs]=65.00000
   C -0.717874553E+01  0.351322986E+00  0.255332905E-01
   C  0.730923152E+01 -0.707758080E-01 -0.111426117E+00
   H -0.366962480E+02 -0.301108950E+01 -0.198194187E+01
   H  0.358563207E+02  0.473651859E+00  0.326667529E+01
     4
 # iter = 65500  time[fs]=65.50000
   C -0.726481198E+01  0.355739611E+00  0.260981143E-01
   C  0.739611672E+01 -0.718125506E-01 -0.113067916E+00
   H -0.371052200E+02 -0.304460104E+01 -0.200427338E+01
   H  0.362533434E+02  0.479268431E+00  0.330308378E+01
     4
 # iter = 66000  time[fs]=66.00000
   C -0.735093784E+01  0.360158936E+00  0.266637814E-01
   C  0.748306142E+01 -0.728510783E-01 -0.114710988E+00
   H -0.375143234E+02 -0.307812551E+01 -0.202661298E+01
   H  0.366504964E+02  0.484886968E+00  0.333950554E+01
     4
 # iter = 66500  time[fs]=66.50000
   C -0.743712172E+01  0.364580902E+00  0.272302753E-01
   C  0.757006423E+01 -0.738913516E-01 -0.116355309E+00
   H -0.379235554E+02 -0.311166265E+01 -0.204896050E+01
   H  0.370477768E+02  0.490507431E+00  0.337594027E+01
     4
 # iter = 67000  time[fs]=67.00000
   C -0.752336228E+01  0.369005450E+00  0.277975803E-01
   C  0.765712380E+01 -0.749333323E-01 -0.118000853E+00
   H -0.383329131E+02 -0.314521219E+01 -0.207131577E+01
   H  0.374451821E+02  0.496129781E+00  0.341238771E+01
     4
 # iter = 67500  time[fs]=67.50000
   C -0.760965823E+01  0.373432527E+00  0.283656809E-01
   C  0.774423885E+01 -0.759769835E-01 -0.119647597E+00
   H -0.387423940E+02 -0.317877386E+01 -0.209367864E+01
   H  0.378427096E+02  0.501753979E+00  0.344884758E+01
     4
 # iter = 68000  time[fs]=68.00000
   C -0.769600831E+01  0.377862077E+00  0.289345620E-01
   C  0.783140810E+01 -0.770222692E-01 -0.121295516E+00
   H -0.391519955E+02 -0.321234743E+01 -0.211604895E+01
   H  0.382403567E+02  0.507379990E+00  0.348531965E+01
     4
 # iter = 68500  time[fs]=68.50000
   C -0.778241132E+01  0.382294050E+00  0.295042090E-01
   C  0.791863036E+01 -0.780691549E-01 -0.122944590E+00
   H -0.395617151E+02 -0.324593264E+01 -0.213842654E+01
   H  0.386381209E+02  0.513007778E+00  0.352180365E+01
     4
 # iter = 69000  time[fs]=69.00000
   C -0.786886607E+01  0.386728396E+00  0.300746077E-01
   C  0.800590444E+01 -0.791176068E-01 -0.124594795E+00
   H -0.399715504E+02 -0.327952926E+01 -0.216081128E+01
   H  0.390360000E+02  0.518637309E+00  0.355829936E+01
     4
 # iter = 69500  time[fs]=69.50000
   C -0.795537144E+01  0.391165064E+00  0.306457443E-01
   C  0.809322921E+01 -0.801675924E-01 -0.126246110E+00
   H -0.403814991E+02 -0.331313707E+01 -0.218320301E+01
   H  0.394339915E+02  0.524268549E+00  0.359480653E+01
     4
 # iter = 70000  time[fs]=70.00000
   C -0.804192632E+01  0.395604009E+00  0.312176052E-01
   C  0.818060357E+01 -0.812190800E-01 -0.127898515E+00
   H -0.407915588E+02 -0.334675584E+01 -0.220560161E+01
   H  0.398320932E+02  0.529901465E+00  0.363132495E+01
     4
 # iter = 70500  time[fs]=70.50000
   C -0.812852966E+01  0.400045183E+00  0.317901773E-01
   C  0.826802646E+01 -0.822720390E-01 -0.129551988E+00
   H -0.412017274E+02 -0.338038536E+01 -0.222800694E+01
   H  0.402303030E+02  0.535536027E+00  0.366785438E+01
     4
 # iter = 71000  time[fs]=71.00000
   C -0.821518043E+01  0.404488543E+00  0.323634479E-01
   C  0.835549683E+01 -0.833264397E-01 -0.131206512E+00
   H -0.416120028E+02 -0.341402542E+01 -0.225041886E+01
   H  0.406286188E+02  0.541172203E+00  0.370439463E+01
     4
 # iter = 71500  time[fs]=71.50000
   C -0.830187762E+01  0.408934045E+00  0.329374045E-01
   C  0.844301370E+01 -0.843822531E-01 -0.132862065E+00
   H -0.420223828E+02 -0.344767582E+01 -0.227283726E+01
   H  0.410270384E+02  0.546809963E+00  0.374094548E+01
     4
 # iter = 72000  time[fs]=72.00000
   C -0.838862027E+01  0.413381648E+00  0.335120350E-01
   C  0.853057609E+01 -0.854394514E-01 -0.134518630E+00
   H -0.424328655E+02 -0.348133636E+01 -0.229526200E+01
   H  0.414255599E+02  0.552449279E+00  0.377750673E+01
     4
 # iter = 72500  time[fs]=72.50000
   C -0.847540744E+01  0.417831309E+00  0.340873274E-01
   C  0.861818306E+01 -0.864980072E-01 -0.136176189E+00
   H -0.428434489E+02 -0.351500685E+01 -0.231769297E+01
   H  0.418241814E+02  0.558090122E+00  0.381407819E+01
     4
 # iter = 73000  time[fs]=73.00000
   C -0.856223822E+01  0.422282991E+00  0.346632704E-01
   C  0.870583370E+01 -0.875578941E-01 -0.137834723E+00
   H -0.432541310E+02 -0.354868710E+01 -0.234013006E+01
   H  0.422229009E+02  0.563732465E+00  0.385065967E+01
     4
 # iter = 73500  time[fs]=73.50000
   C -0.864911173E+01  0.426736654E+00  0.352398526E-01
   C  0.879352713E+01 -0.886190865E-01 -0.139494216E+00
   H -0.436649101E+02 -0.358237694E+01 -0.236257314E+01
   H  0.426217166E+02  0.569376280E+00  0.388725097E+01
     4
 # iter = 74000  time[fs]=74.00000
   C -0.873602711E+01  0.431192262E+00  0.358170632E-01
   C  0.888126249E+01 -0.896815594E-01 -0.141154651E+00
   H -0.440757843E+02 -0.361607618E+01 -0.238502212E+01
   H  0.430206268E+02  0.575021543E+00  0.392385193E+01
     4
 # iter = 74500  time[fs]=74.50000
   C -0.882298353E+01  0.435649776E+00  0.363948914E-01
   C  0.896903895E+01 -0.907452886E-01 -0.142816011E+00
   H -0.444867519E+02 -0.364978466E+01 -0.240747688E+01
   H  0.434196297E+02  0.580668227E+00  0.396046237E+01
     4
 # iter = 75000  time[fs]=75.00000
   C -0.890998019E+01  0.440109163E+00  0.369733267E-01
   C  0.905685569E+01 -0.918102505E-01 -0.144478280E+00
   H -0.448978112E+02 -0.368350222E+01 -0.242993732E+01
   H  0.438187236E+02  0.586316308E+00  0.399708211E+01
     4
 # iter = 75500  time[fs]=75.50000
   C -0.899701629E+01  0.444570388E+00  0.375523592E-01
   C  0.914471193E+01 -0.928764221E-01 -0.146141444E+00
   H -0.453089605E+02 -0.371722868E+01 -0.245240334E+01
   H  0.442179069E+02  0.591965762E+00  0.403371099E+01
     4
 # iter = 76000  time[fs]=76.00000
   C -0.908409108E+01  0.449033416E+00  0.381319787E-01
   C  0.923260692E+01 -0.939437812E-01 -0.147805486E+00
   H -0.457201983E+02 -0.375096389E+01 -0.247487484E+01
   H  0.446171780E+02  0.597616565E+00  0.407034886E+01
     4
 # iter = 76500  time[fs]=76.50000
   C -0.917120381E+01  0.453498217E+00  0.387121757E-01
   C  0.932053990E+01 -0.950123061E-01 -0.149470392E+00
   H -0.461315228E+02 -0.378470770E+01 -0.249735172E+01
   H  0.450165353E+02  0.603268694E+00  0.410699554E+01
     4
 # iter = 77000  time[fs]=77.00000
   C -0.925835377E+01  0.457964757E+00  0.392929406E-01
   C  0.940851015E+01 -0.960819756E-01 -0.151136148E+00
   H -0.465429327E+02 -0.381845996E+01 -0.251983389E+01
   H  0.454159774E+02  0.608922127E+00  0.414365090E+01
     4
 # iter = 77500  time[fs]=77.50000
   C -0.934554026E+01  0.462433007E+00  0.398742644E-01
   C  0.949651698E+01 -0.971527692E-01 -0.152802739E+00
   H -0.469544264E+02 -0.385222052E+01 -0.254232127E+01
   H  0.458155027E+02  0.614576843E+00  0.418031478E+01
     4
 # iter = 78000  time[fs]=78.00000
   C -0.943276259E+01  0.466902936E+00  0.404561378E-01
   C  0.958455970E+01 -0.982246668E-01 -0.154470152E+00
   H -0.473660025E+02 -0.388598924E+01 -0.256481375E+01
   H  0.462151097E+02  0.620232820E+00  0.421698703E+01
     4
 # iter = 78500  time[fs]=78.50000
   C -0.952002011E+01  0.471374514E+00  0.410385523E-01
   C  0.967263766E+01 -0.992976490E-01 -0.156138374E+00
   H -0.477776595E+02 -0.391976598E+01 -0.258731126E+01
   H  0.466147972E+02  0.625890037E+00  0.425366752E+01
     4
 # iter = 79000  time[fs]=79.00000
   C -0.960731217E+01  0.475847713E+00  0.416214991E-01
   C  0.976075020E+01 -0.100371697E+00 -0.157807391E+00
   H -0.481893962E+02 -0.395355061E+01 -0.260981371E+01
   H  0.470145638E+02  0.631548475E+00  0.429035610E+01
     4
 # iter = 79500  time[fs]=79.50000
   C -0.969463814E+01  0.480322506E+00  0.422049699E-01
   C  0.984889669E+01 -0.101446792E+00 -0.159477190E+00
   H -0.486012110E+02 -0.398734300E+01 -0.263232102E+01
   H  0.474144080E+02  0.637208113E+00  0.432705265E+01
     4
 # iter = 80000  time[fs]=80.00000
   C -0.978199741E+01  0.484798865E+00  0.427889564E-01
   C  0.993707654E+01 -0.102522916E+00 -0.161147759E+00
   H -0.490131028E+02 -0.402114301E+01 -0.265483311E+01
   H  0.478143287E+02  0.642868933E+00  0.436375702E+01
