     4
 # iter = 25000  time[fs]=25.00000
   C -0.104503549E+01 -0.590332075E-01 -0.363890862E-02
   C  0.998253468E+00  0.112473090E-02 -0.405907558E-01
   H -0.534942764E+01  0.653490715E+00 -0.384203636E-01
   H  0.536636256E+01 -0.433368458E+00 -0.224814491E+00
     4
 # iter = 25500  time[fs]=25.50000
   C -0.109757877E+01 -0.642127841E-01 -0.460509368E-02
   C  0.104045644E+01  0.101009867E-02 -0.421236221E-01
   H -0.569293716E+01  0.688447731E+00 -0.487783335E-01
   H  0.567976896E+01 -0.470920741E+00 -0.246284457E+00
     4
 # iter = 26000  time[fs]=26.00000
   C -0.115401030E+01 -0.706112753E-01 -0.659610199E-02
   C  0.108461569E+01  0.121575034E-03 -0.445752964E-01
   H -0.604739790E+01  0.718803405E+00 -0.645727433E-01
   H  0.599293858E+01 -0.514329629E+00 -0.273366028E+00
     4
 # iter = 26500  time[fs]=26.50000
   C -0.121085895E+01 -0.749853652E-01 -0.638594978E-02
   C  0.113310016E+01  0.106845748E-02 -0.453251407E-01
   H -0.639608667E+01  0.760546026E+00 -0.697192602E-01
   H  0.632142341E+01 -0.547458887E+00 -0.289947111E+00
     4
 # iter = 27000  time[fs]=27.00000
   C -0.126774400E+01 -0.771654975E-01 -0.382039639E-02
   C  0.118581414E+01  0.397350182E-02 -0.442398508E-01
   H -0.673767928E+01  0.814395115E+00 -0.634196452E-01
   H  0.666554208E+01 -0.569472699E+00 -0.295213404E+00
     4
 # iter = 27500  time[fs]=27.50000
   C -0.132686789E+01 -0.795479460E-01 -0.130927110E-02
   C  0.124060764E+01  0.688400694E-02 -0.432623856E-01
   H -0.708370286E+01  0.868322561E+00 -0.576370005E-01
   H  0.701289765E+01 -0.592308500E+00 -0.301121590E+00
     4
 # iter = 28000  time[fs]=28.00000
   C -0.138974789E+01 -0.838264144E-01 -0.558498774E-03
   C  0.129591807E+01  0.841686235E-02 -0.437669212E-01
   H -0.744224469E+01  0.913808409E+00 -0.608351672E-01
   H  0.735465353E+01 -0.624406742E+00 -0.316128792E+00
     4
 # iter = 28500  time[fs]=28.50000
   C -0.145552943E+01 -0.893060913E-01 -0.884405494E-03
   C  0.135213238E+01  0.912285010E-02 -0.451945178E-01
   H -0.780954604E+01  0.954226906E+00 -0.695899717E-01
   H  0.769392480E+01 -0.662316757E+00 -0.336798515E+00
     4
 # iter = 29000  time[fs]=29.00000
   C -0.152237480E+01 -0.942935743E-01 -0.603682316E-03
   C  0.141046188E+01  0.103618040E-01 -0.461779067E-01
   H -0.817691555E+01  0.997929825E+00 -0.755054897E-01
   H  0.803884472E+01 -0.697616366E+00 -0.354720828E+00
     4
 # iter = 29500  time[fs]=29.50000
   C -0.158956525E+01 -0.982003046E-01  0.863175575E-03
   C  0.147123985E+01  0.126004138E-01 -0.462436272E-01
   H -0.854119658E+01  0.104777916E+01 -0.756814156E-01
   H  0.839207806E+01 -0.727384743E+00 -0.366985819E+00
     4
 # iter = 30000  time[fs]=30.00000
   C -0.165779475E+01 -0.101837587E+00  0.269675942E-02
   C  0.153368157E+01  0.151734219E-01 -0.460507759E-01
   H -0.890623087E+01  0.109967810E+01 -0.741813902E-01
   H  0.874934588E+01 -0.755671165E+00 -0.377652620E+00
     4
 # iter = 30500  time[fs]=30.50000
   C -0.172786370E+01 -0.106111525E+00  0.398366633E-02
   C  0.159693843E+01  0.173395865E-01 -0.463349933E-01
   H -0.927635616E+01  0.114906450E+01 -0.755383591E-01
   H  0.910592312E+01 -0.786996303E+00 -0.391250713E+00
     4
 # iter = 31000  time[fs]=31.00000
   C -0.179968501E+01 -0.111030248E+00  0.470914551E-02
   C  0.166089957E+01  0.190849402E-01 -0.471051559E-01
   H -0.965145969E+01  0.119585047E+01 -0.798140589E-01
   H  0.946158096E+01 -0.821408592E+00 -0.407836346E+00
     4
 # iter = 31500  time[fs]=31.50000
   C -0.187257437E+01 -0.115995273E+00  0.546567096E-02
   C  0.172595496E+01  0.208869890E-01 -0.478791296E-01
   H -0.100284257E+02  0.124297161E+01 -0.840493555E-01
   H  0.981913241E+01 -0.855935221E+00 -0.424443658E+00
     4
 # iter = 32000  time[fs]=32.00000
   C -0.194608208E+01 -0.120634329E+00  0.662006538E-02
   C  0.179232072E+01  0.230407789E-01 -0.483576558E-01
   H -0.104052793E+02  0.129224165E+01 -0.864094295E-01
   H  0.101802808E+02 -0.888729583E+00 -0.439232300E+00
     4
 # iter = 32500  time[fs]=32.50000
   C -0.202029074E+01 -0.125100021E+00  0.801479236E-02
   C  0.185979655E+01  0.254171850E-01 -0.486660219E-01
   H -0.107826715E+02  0.134286575E+01 -0.876703112E-01
   H  0.105441297E+02 -0.920558516E+00 -0.452974799E+00
     4
 # iter = 33000  time[fs]=33.00000
   C -0.209545574E+01 -0.129711069E+00  0.932665134E-02
   C  0.192805506E+01  0.277531371E-01 -0.490637983E-01
   H -0.111620916E+02  0.139322556E+01 -0.894333892E-01
   H  0.109089683E+02 -0.953015616E+00 -0.467269920E+00
     4
 # iter = 33500  time[fs]=33.50000
   C -0.217161100E+01 -0.134558761E+00  0.104602686E-01
   C  0.199695933E+01  0.299700033E-01 -0.496264215E-01
   H -0.115439062E+02  0.144283763E+01 -0.921667774E-01
   H  0.112742302E+02 -0.986561330E+00 -0.482582805E+00
     4
 # iter = 34000  time[fs]=34.00000
   C -0.224856434E+01 -0.139503012E+00  0.115520022E-01
   C  0.206656539E+01  0.321767489E-01 -0.502420049E-01
   H -0.119273385E+02  0.149237264E+01 -0.951858229E-01
   H  0.116405117E+02 -0.102050336E+01 -0.498225421E+00
     4
 # iter = 34500  time[fs]=34.50000
   C -0.232613159E+01 -0.144407010E+00  0.127352524E-01
   C  0.213693178E+01  0.344800403E-01 -0.508012080E-01
   H -0.123116354E+02  0.154248720E+01 -0.978211902E-01
   H  0.120084019E+02 -0.105416538E+01 -0.513525333E+00
     4
 # iter = 35000  time[fs]=35.00000
   C -0.240426951E+01 -0.149270643E+00  0.140070091E-01
   C  0.220801107E+01  0.368762587E-01 -0.513051971E-01
   H -0.126967307E+02  0.159315955E+01 -0.100083041E+00
   H  0.123778170E+02 -0.108755153E+01 -0.528490250E+00
     4
 # iter = 35500  time[fs]=35.50000
   C -0.248301341E+01 -0.154168572E+00  0.152897500E-01
   C  0.227969947E+01  0.393015758E-01 -0.518155490E-01
   H -0.130829364E+02  0.164399759E+01 -0.102352861E+00
   H  0.127483078E+02 -0.112103799E+01 -0.543499640E+00
     4
 # iter = 36000  time[fs]=36.00000
   C -0.256236713E+01 -0.159140623E+00  0.165410207E-01
   C  0.235192510E+01  0.417206088E-01 -0.523655756E-01
   H -0.134703961E+02  0.169478428E+01 -0.104837971E+00
   H  0.131196050E+02 -0.115482712E+01 -0.558758886E+00
     4
 # iter = 36500  time[fs]=36.50000
   C -0.264227767E+01 -0.164166710E+00  0.177784844E-01
   C  0.242466785E+01  0.441466843E-01 -0.529400432E-01
   H -0.138589598E+02  0.174560224E+01 -0.107446803E+00
   H  0.134917435E+02 -0.118882261E+01 -0.574174463E+00
     4
 # iter = 37000  time[fs]=37.00000
   C -0.272268105E+01 -0.169213070E+00  0.190336730E-01
   C  0.249792167E+01  0.466044143E-01 -0.535125808E-01
   H -0.142484134E+02  0.179660350E+01 -0.110019073E+00
   H  0.138648313E+02 -0.122285977E+01 -0.589584242E+00
     4
 # iter = 37500  time[fs]=37.50000
   C -0.280354007E+01 -0.174270239E+00  0.203139889E-01
   C  0.257166355E+01  0.490989466E-01 -0.540764153E-01
   H -0.146386674E+02  0.184782034E+01 -0.112514889E+00
   H  0.142388602E+02 -0.125689468E+01 -0.604946688E+00
     4
 # iter = 38000  time[fs]=38.00000
   C -0.288483981E+01 -0.179348858E+00  0.216068848E-01
   C  0.264585663E+01  0.516193424E-01 -0.546409823E-01
   H -0.150297357E+02  0.189918606E+01 -0.114993909E+00
   H  0.146137259E+02 -0.129098332E+01 -0.620320005E+00
     4
 # iter = 38500  time[fs]=38.50000
   C -0.296656581E+01 -0.184457984E+00  0.229015395E-01
   C  0.272046754E+01  0.541561098E-01 -0.552143809E-01
   H -0.154216272E+02  0.195064284E+01 -0.117507424E+00
   H  0.149893356E+02 -0.132517359E+01 -0.635754131E+00
     4
 # iter = 39000  time[fs]=39.00000
   C -0.304869468E+01 -0.189595975E+00  0.241979546E-01
   C  0.279547353E+01  0.567085598E-01 -0.557960078E-01
   H -0.158143004E+02  0.200218699E+01 -0.120053056E+00
   H  0.153656536E+02 -0.135945991E+01 -0.651245399E+00
     4
 # iter = 39500  time[fs]=39.50000
   C -0.313120001E+01 -0.194756520E+00  0.255009200E-01
   C  0.287085746E+01  0.592799207E-01 -0.563814339E-01
   H -0.162076927E+02  0.205383891E+01 -0.122604772E+00
   H  0.157426701E+02 -0.139381325E+01 -0.666766569E+00
     4
 # iter = 40000  time[fs]=40.00000
   C -0.321405966E+01 -0.199936085E+00  0.268125544E-01
   C  0.294660153E+01  0.618712998E-01 -0.569684350E-01
   H -0.166017576E+02  0.210560592E+01 -0.125150005E+00
   H  0.161203647E+02 -0.142821827E+01 -0.682303949E+00
     4
 # iter = 40500  time[fs]=40.50000
   C -0.329725649E+01 -0.205134789E+00  0.281314167E-01
   C  0.302268650E+01  0.644809613E-01 -0.575577064E-01
   H -0.169964688E+02  0.215747780E+01 -0.127694052E+00
   H  0.164987011E+02 -0.146267767E+01 -0.697861805E+00
     4
 # iter = 41000  time[fs]=41.00000
   C -0.338077520E+01 -0.210353385E+00  0.294555258E-01
   C  0.309909398E+01  0.671067663E-01 -0.581504160E-01
   H -0.173918051E+02  0.220944186E+01 -0.130245038E+00
   H  0.168776423E+02 -0.149719715E+01 -0.713447295E+00
     4
 # iter = 41500  time[fs]=41.50000
   C -0.346460037E+01 -0.215591354E+00  0.307842487E-01
   C  0.317580780E+01  0.697476990E-01 -0.587466732E-01
   H -0.177877403E+02  0.226149228E+01 -0.132804496E+00
   H  0.172571598E+02 -0.153177597E+01 -0.729061048E+00
     4
 # iter = 42000  time[fs]=42.00000
   C -0.354871673E+01 -0.220847332E+00  0.321178730E-01
   C  0.325281364E+01  0.724035176E-01 -0.593458719E-01
   H -0.181842458E+02  0.231362796E+01 -0.135369493E+00
   H  0.176372312E+02 -0.156640907E+01 -0.744699277E+00
     4
 # iter = 42500  time[fs]=42.50000
   C -0.363311015E+01 -0.226120139E+00  0.334565720E-01
   C  0.333009805E+01  0.750739152E-01 -0.599475249E-01
   H -0.185812952E+02  0.236584741E+01 -0.137937763E+00
   H  0.180178352E+02 -0.160109219E+01 -0.760358920E+00
     4
 # iter = 43000  time[fs]=43.00000
   C -0.371776784E+01 -0.231409084E+00  0.348000920E-01
   C  0.340764812E+01  0.777582651E-01 -0.605515151E-01
   H -0.189788658E+02  0.241814712E+01 -0.140509262E+00
   H  0.183989494E+02 -0.163582338E+01 -0.776039181E+00
     4
 # iter = 43500  time[fs]=43.50000
   C -0.380267798E+01 -0.236713675E+00  0.361480374E-01
   C  0.348545167E+01  0.804558492E-01 -0.611578619E-01
   H -0.193769369E+02  0.247052301E+01 -0.143084735E+00
   H  0.187805523E+02 -0.167060163E+01 -0.791740106E+00
     4
 # iter = 44000  time[fs]=44.00000
   C -0.388782943E+01 -0.242033355E+00  0.375001320E-01
   C  0.356349734E+01  0.831660683E-01 -0.617665086E-01
   H -0.197754889E+02  0.252297172E+01 -0.145664413E+00
   H  0.191626239E+02 -0.170542549E+01 -0.807461260E+00
     4
 # iter = 44500  time[fs]=44.50000
   C -0.397321162E+01 -0.247367490E+00  0.388562241E-01
   C  0.364177459E+01  0.858884441E-01 -0.623773163E-01
   H -0.201745026E+02  0.257549060E+01 -0.148247980E+00
   H  0.195451460E+02 -0.174029308E+01 -0.823201704E+00
     4
 # iter = 45000  time[fs]=45.00000
   C -0.405881463E+01 -0.252715471E+00  0.402161844E-01
   C  0.372027353E+01  0.886225360E-01 -0.629901447E-01
   H -0.205739598E+02  0.262807722E+01 -0.150835072E+00
   H  0.199281015E+02 -0.177520253E+01 -0.838960483E+00
     4
 # iter = 45500  time[fs]=45.50000
   C -0.414462916E+01 -0.258076758E+00  0.415798568E-01
   C  0.379898483E+01  0.913678992E-01 -0.636048910E-01
   H -0.209738436E+02  0.268072910E+01 -0.153425520E+00
   H  0.203114740E+02 -0.181015228E+01 -0.854736874E+00
     4
 # iter = 46000  time[fs]=46.00000
   C -0.423064648E+01 -0.263450860E+00  0.429470741E-01
   C  0.387789971E+01  0.941240966E-01 -0.642214757E-01
   H -0.213741381E+02  0.273344381E+01 -0.156019269E+00
   H  0.206952480E+02 -0.184514092E+01 -0.870530293E+00
     4
 # iter = 46500  time[fs]=46.50000
   C -0.431685838E+01 -0.268837310E+00  0.443176824E-01
   C  0.395700990E+01  0.968907176E-01 -0.648398216E-01
   H -0.217748283E+02  0.278621904E+01 -0.158616247E+00
   H  0.210794088E+02 -0.188016714E+01 -0.886340171E+00
     4
 # iter = 47000  time[fs]=47.00000
   C -0.440325710E+01 -0.274235656E+00  0.456915458E-01
   C  0.403630760E+01  0.996673805E-01 -0.654598493E-01
   H -0.221758997E+02  0.283905267E+01 -0.161216342E+00
   H  0.214639424E+02 -0.191522961E+01 -0.902165924E+00
     4
 # iter = 47500  time[fs]=47.50000
   C -0.448983532E+01 -0.279645467E+00  0.470685389E-01
   C  0.411578547E+01  0.102453726E+00 -0.660814819E-01
   H -0.225773390E+02  0.289194269E+01 -0.163819433E+00
   H  0.218488358E+02 -0.195032709E+01 -0.918006984E+00
     4
 # iter = 48000  time[fs]=48.00000
   C -0.457658613E+01 -0.285066338E+00  0.484485416E-01
   C  0.419543657E+01  0.105249412E+00 -0.667046488E-01
   H -0.229791332E+02  0.294488719E+01 -0.166425415E+00
   H  0.222340765E+02 -0.198545838E+01 -0.933862821E+00
     4
 # iter = 48500  time[fs]=48.50000
   C -0.466350299E+01 -0.290497883E+00  0.498314387E-01
   C  0.427525433E+01  0.108054111E+00 -0.673292851E-01
   H -0.233812701E+02  0.299788434E+01 -0.169034197E+00
   H  0.226196526E+02 -0.202062237E+01 -0.949732941E+00
     4
 # iter = 49000  time[fs]=49.00000
   C -0.475057973E+01 -0.295939739E+00  0.512171210E-01
   C  0.435523255E+01  0.110867513E+00 -0.679553298E-01
   H -0.237837382E+02  0.305093240E+01 -0.171645692E+00
   H  0.230055528E+02 -0.205581799E+01 -0.965616875E+00
     4
 # iter = 49500  time[fs]=49.50000
   C -0.483781048E+01 -0.301391557E+00  0.526054859E-01
   C  0.443536534E+01  0.113689325E+00 -0.685827249E-01
   H -0.241865265E+02  0.310402972E+01 -0.174259816E+00
   H  0.233917665E+02 -0.209104423E+01 -0.981514171E+00
     4
 # iter = 50000  time[fs]=50.00000
   C -0.492518969E+01 -0.306853006E+00  0.539964364E-01
   C  0.451564714E+01  0.116519265E+00 -0.692114158E-01
   H -0.245896244E+02  0.315717472E+01 -0.176876486E+00
   H  0.237782835E+02 -0.212630012E+01 -0.997424402E+00
     4
 # iter = 50500  time[fs]=50.50000
   C -0.501271210E+01 -0.312323772E+00  0.553898805E-01
   C  0.459607264E+01  0.119357066E+00 -0.698413507E-01
   H -0.249930220E+02  0.321036591E+01 -0.179495625E+00
   H  0.241650940E+02 -0.216158474E+01 -0.101334716E+01
     4
 # iter = 51000  time[fs]=51.00000
   C -0.510037271E+01 -0.317803555E+00  0.567857308E-01
   C  0.467663684E+01  0.122202476E+00 -0.704724808E-01
   H -0.253967098E+02  0.326360185E+01 -0.182117157E+00
   H  0.245521888E+02 -0.219689721E+01 -0.102928205E+01
     4
 # iter = 51500  time[fs]=51.50000
   C -0.518816677E+01 -0.323292068E+00  0.581839042E-01
   C  0.475733496E+01  0.125055250E+00 -0.711047603E-01
   H -0.258006788E+02  0.331688119E+01 -0.184741013E+00
   H  0.249395590E+02 -0.223223668E+01 -0.104522870E+01
     4
 # iter = 52000  time[fs]=52.00000
   C -0.527608977E+01 -0.328789039E+00  0.595843220E-01
   C  0.483816246E+01  0.127915159E+00 -0.717381454E-01
   H -0.262049202E+02  0.337020260E+01 -0.187367124E+00
   H  0.253271962E+02 -0.226760236E+01 -0.106118677E+01
     4
 # iter = 52500  time[fs]=52.50000
   C -0.536413739E+01 -0.334294207E+00  0.609869091E-01
   C  0.491911504E+01  0.130781981E+00 -0.723725949E-01
   H -0.266094258E+02  0.342356485E+01 -0.189995426E+00
   H  0.257150924E+02 -0.230299346E+01 -0.107715590E+01
     4
 # iter = 53000  time[fs]=53.00000
   C -0.545230556E+01 -0.339807322E+00  0.623915941E-01
   C  0.500018857E+01  0.133655505E+00 -0.730080697E-01
   H -0.270141877E+02  0.347696674E+01 -0.192625856E+00
   H  0.261032398E+02 -0.233840926E+01 -0.109313578E+01
     4
 # iter = 53500  time[fs]=53.50000
   C -0.554059037E+01 -0.345328147E+00  0.637983091E-01
   C  0.508137916E+01  0.136535530E+00 -0.736445326E-01
   H -0.274191983E+02  0.353040714E+01 -0.195258355E+00
   H  0.264916311E+02 -0.237384905E+01 -0.110912609E+01
     4
 # iter = 54000  time[fs]=54.00000
   C -0.562898810E+01 -0.350856454E+00  0.652069893E-01
   C  0.516268305E+01  0.139421862E+00 -0.742819485E-01
   H -0.278244505E+02  0.358388494E+01 -0.197892865E+00
   H  0.268802593E+02 -0.240931216E+01 -0.112512653E+01
     4
 # iter = 54500  time[fs]=54.50000
   C -0.571749519E+01 -0.356392025E+00  0.666175728E-01
   C  0.524409668E+01  0.142314317E+00 -0.749202837E-01
   H -0.282299372E+02  0.363739910E+01 -0.200529333E+00
   H  0.272691175E+02 -0.244479794E+01 -0.114113683E+01
     4
 # iter = 55000  time[fs]=55.00000
   C -0.580610827E+01 -0.361934651E+00  0.680300006E-01
   C  0.532561667E+01  0.145212719E+00 -0.755595065E-01
   H -0.286356519E+02  0.369094861E+01 -0.203167704E+00
   H  0.276581993E+02 -0.248030576E+01 -0.115715670E+01
     4
 # iter = 55500  time[fs]=55.50000
   C -0.589482409E+01 -0.367484132E+00  0.694442163E-01
   C  0.540723974E+01  0.148116897E+00 -0.761995866E-01
   H -0.290415882E+02  0.374453251E+01 -0.205807929E+00
   H  0.280474986E+02 -0.251583503E+01 -0.117318588E+01
     4
 # iter = 56000  time[fs]=56.00000
   C -0.598363956E+01 -0.373040276E+00  0.708601662E-01
   C  0.548896279E+01  0.151026690E+00 -0.768404952E-01
   H -0.294477400E+02  0.379814988E+01 -0.208449959E+00
   H  0.284370092E+02 -0.255138518E+01 -0.118922413E+01
     4
 # iter = 56500  time[fs]=56.50000
   C -0.607255171E+01 -0.378602900E+00  0.722777987E-01
   C  0.557078286E+01  0.153941941E+00 -0.774822049E-01
   H -0.298541014E+02  0.385179982E+01 -0.211093748E+00
   H  0.288267257E+02 -0.258695566E+01 -0.120527120E+01
     4
 # iter = 57000  time[fs]=57.00000
   C -0.616155771E+01 -0.384171825E+00  0.736970644E-01
   C  0.565269709E+01  0.156862501E+00 -0.781246893E-01
   H -0.302606669E+02  0.390548148E+01 -0.213739250E+00
   H  0.292166423E+02 -0.262254594E+01 -0.122132686E+01
     4
 # iter = 57500  time[fs]=57.50000
   C -0.625065484E+01 -0.389746884E+00  0.751179163E-01
   C  0.573470276E+01  0.159788227E+00 -0.787679235E-01
   H -0.306674310E+02  0.395919404E+01 -0.216386423E+00
   H  0.296067540E+02 -0.265815551E+01 -0.123739088E+01
     4
 # iter = 58000  time[fs]=58.00000
   C -0.633984050E+01 -0.395327912E+00  0.765403090E-01
   C  0.581679725E+01  0.162718980E+00 -0.794118838E-01
   H -0.310743886E+02  0.401293671E+01 -0.219035224E+00
   H  0.299970555E+02 -0.269378389E+01 -0.125346305E+01
     4
 # iter = 58500  time[fs]=58.50000
   C -0.642911219E+01 -0.400914753E+00  0.779641993E-01
   C  0.589897807E+01  0.165654628E+00 -0.800565472E-01
   H -0.314815346E+02  0.406670873E+01 -0.221685613E+00
   H  0.303875420E+02 -0.272943059E+01 -0.126954317E+01
     4
 # iter = 59000  time[fs]=59.00000
   C -0.651846753E+01 -0.406507257E+00  0.793895455E-01
   C  0.598124280E+01  0.168595043E+00 -0.807018921E-01
   H -0.318888642E+02  0.412050937E+01 -0.224337553E+00
   H  0.307782089E+02 -0.276509517E+01 -0.128563103E+01
     4
 # iter = 59500  time[fs]=59.50000
   C -0.660790421E+01 -0.412105277E+00  0.808163077E-01
   C  0.606358914E+01  0.171540103E+00 -0.813478976E-01
   H -0.322963729E+02  0.417433791E+01 -0.226991006E+00
   H  0.311690516E+02 -0.280077719E+01 -0.130172644E+01
     4
 # iter = 60000  time[fs]=60.00000
   C -0.669742003E+01 -0.417708675E+00  0.822444478E-01
   C  0.614601488E+01  0.174489690E+00 -0.819945438E-01
   H -0.327040561E+02  0.422819369E+01 -0.229645935E+00
   H  0.315600658E+02 -0.283647623E+01 -0.131782922E+01
     4
 # iter = 60500  time[fs]=60.50000
   C -0.678701286E+01 -0.423317317E+00  0.836739287E-01
   C  0.622851789E+01  0.177443689E+00 -0.826418116E-01
   H -0.331119097E+02  0.428207604E+01 -0.232302307E+00
   H  0.319512472E+02 -0.287219189E+01 -0.133393919E+01
     4
 # iter = 61000  time[fs]=61.00000
   C -0.687668068E+01 -0.428931072E+00  0.851047152E-01
   C  0.631109612E+01  0.180401992E+00 -0.832896827E-01
   H -0.335199294E+02  0.433598434E+01 -0.234960087E+00
   H  0.323425918E+02 -0.290792376E+01 -0.135005617E+01
     4
 # iter = 61500  time[fs]=61.50000
   C -0.696642151E+01 -0.434549815E+00  0.865367733E-01
   C  0.639374761E+01  0.183364492E+00 -0.839381398E-01
   H -0.339281112E+02  0.438991797E+01 -0.237619243E+00
   H  0.327340958E+02 -0.294367147E+01 -0.136618001E+01
     4
 # iter = 62000  time[fs]=62.00000
   C -0.705623348E+01 -0.440173427E+00  0.879700702E-01
   C  0.647647047E+01  0.186331088E+00 -0.845871658E-01
   H -0.343364514E+02  0.444387634E+01 -0.240279745E+00
   H  0.331257553E+02 -0.297943466E+01 -0.138231054E+01
     4
 # iter = 62500  time[fs]=62.50000
   C -0.714611477E+01 -0.445801791E+00  0.894045745E-01
   C  0.655926286E+01  0.189301682E+00 -0.852367448E-01
   H -0.347449461E+02  0.449785890E+01 -0.242941562E+00
   H  0.335175667E+02 -0.301521297E+01 -0.139844761E+01
     4
 # iter = 63000  time[fs]=63.00000
   C -0.723606363E+01 -0.451434795E+00  0.908402557E-01
   C  0.664212305E+01  0.192276178E+00 -0.858868614E-01
   H -0.351535919E+02  0.455186508E+01 -0.245604665E+00
   H  0.339095265E+02 -0.305100607E+01 -0.141459107E+01
     4
 # iter = 63500  time[fs]=63.50000
   C -0.732607837E+01 -0.457072330E+00  0.922770848E-01
   C  0.672504933E+01  0.195254486E+00 -0.865375005E-01
   H -0.355623852E+02  0.460589435E+01 -0.248269025E+00
   H  0.343016314E+02 -0.308681361E+01 -0.143074077E+01
     4
 # iter = 64000  time[fs]=64.00000
   C -0.741615738E+01 -0.462714293E+00  0.937150335E-01
   C  0.680804008E+01  0.198236516E+00 -0.871886480E-01
   H -0.359713228E+02  0.465994621E+01 -0.250934616E+00
   H  0.346938780E+02 -0.312263529E+01 -0.144689658E+01
     4
 # iter = 64500  time[fs]=64.50000
   C -0.750629909E+01 -0.468360582E+00  0.951540747E-01
   C  0.689109373E+01  0.201222184E+00 -0.878402902E-01
   H -0.363804013E+02  0.471402016E+01 -0.253601410E+00
   H  0.350862631E+02 -0.315847080E+01 -0.146305836E+01
     4
 # iter = 65000  time[fs]=65.00000
   C -0.759650198E+01 -0.474011098E+00  0.965941821E-01
   C  0.697420877E+01  0.204211407E+00 -0.884924139E-01
   H -0.367896177E+02  0.476811571E+01 -0.256269383E+00
   H  0.354787838E+02 -0.319431982E+01 -0.147922597E+01
     4
 # iter = 65500  time[fs]=65.50000
   C -0.768676461E+01 -0.479665749E+00  0.980353306E-01
   C  0.705738372E+01  0.207204106E+00 -0.891450064E-01
   H -0.371989689E+02  0.482223240E+01 -0.258938509E+00
   H  0.358714371E+02 -0.323018209E+01 -0.149539930E+01
     4
 # iter = 66000  time[fs]=66.00000
   C -0.777708556E+01 -0.485324443E+00  0.994774957E-01
   C  0.714061718E+01  0.210200202E+00 -0.897980555E-01
   H -0.376084520E+02  0.487636978E+01 -0.261608765E+00
   H  0.362642200E+02 -0.326605731E+01 -0.151157822E+01
     4
 # iter = 66500  time[fs]=66.50000
   C -0.786746347E+01 -0.490987090E+00  0.100920654E+00
   C  0.722390778E+01  0.213199622E+00 -0.904515494E-01
   H -0.380180641E+02  0.493052741E+01 -0.264280127E+00
   H  0.366571298E+02 -0.330194521E+01 -0.152776261E+01
     4
 # iter = 67000  time[fs]=67.00000
   C -0.795789704E+01 -0.496653606E+00  0.102364782E+00
   C  0.730725422E+01  0.216202292E+00 -0.911054767E-01
   H -0.384278026E+02  0.498470488E+01 -0.266952573E+00
   H  0.370501639E+02 -0.333784554E+01 -0.154395236E+01
     4
 # iter = 67500  time[fs]=67.50000
   C -0.804838499E+01 -0.502323908E+00  0.103809859E+00
   C  0.739065521E+01  0.219208144E+00 -0.917598267E-01
   H -0.388376647E+02  0.503890177E+01 -0.269626080E+00
   H  0.374433196E+02 -0.337375803E+01 -0.156014736E+01
     4
 # iter = 68000  time[fs]=68.00000
   C -0.813892611E+01 -0.507997915E+00  0.105255863E+00
   C  0.747410952E+01  0.222217109E+00 -0.924145888E-01
   H -0.392476479E+02  0.509311768E+01 -0.272300628E+00
   H  0.378365943E+02 -0.340968245E+01 -0.157634750E+01
     4
 # iter = 68500  time[fs]=68.50000
   C -0.822951919E+01 -0.513675550E+00  0.106702773E+00
   C  0.755761597E+01  0.225229122E+00 -0.930697527E-01
   H -0.396577497E+02  0.514735223E+01 -0.274976196E+00
   H  0.382299857E+02 -0.344561854E+01 -0.159255267E+01
     4
 # iter = 69000  time[fs]=69.00000
   C -0.832016309E+01 -0.519356737E+00  0.108150570E+00
   C  0.764117339E+01  0.228244119E+00 -0.937253088E-01
   H -0.400679677E+02  0.520160505E+01 -0.277652763E+00
   H  0.386234914E+02 -0.348156608E+01 -0.160876277E+01
     4
 # iter = 69500  time[fs]=69.50000
   C -0.841085671E+01 -0.525041404E+00  0.109599234E+00
   C  0.772478069E+01  0.231262039E+00 -0.943812475E-01
   H -0.404782994E+02  0.525587578E+01 -0.280330312E+00
   H  0.390171090E+02 -0.351752484E+01 -0.162497771E+01
     4
 # iter = 70000  time[fs]=70.00000
   C -0.850159897E+01 -0.530729479E+00  0.111048747E+00
   C  0.780843677E+01  0.234282821E+00 -0.950375598E-01
   H -0.408887427E+02  0.531016405E+01 -0.283008822E+00
   H  0.394108364E+02 -0.355349460E+01 -0.164119739E+01
     4
 # iter = 70500  time[fs]=70.50000
   C -0.859238882E+01 -0.536420893E+00  0.112499090E+00
   C  0.789214060E+01  0.237306408E+00 -0.956942368E-01
   H -0.412992954E+02  0.536446953E+01 -0.285688275E+00
   H  0.398046713E+02 -0.358947516E+01 -0.165742171E+01
     4
 # iter = 71000  time[fs]=71.00000
   C -0.868322526E+01 -0.542115581E+00  0.113950246E+00
   C  0.797589115E+01  0.240332743E+00 -0.963512700E-01
   H -0.417099552E+02  0.541879190E+01 -0.288368653E+00
   H  0.401986117E+02 -0.362546629E+01 -0.167365059E+01
     4
 # iter = 71500  time[fs]=71.50000
   C -0.877410731E+01 -0.547813477E+00  0.115402198E+00
   C  0.805968746E+01  0.243361771E+00 -0.970086512E-01
   H -0.421207201E+02  0.547313082E+01 -0.291049940E+00
   H  0.405926555E+02 -0.366146781E+01 -0.168988394E+01
     4
 # iter = 72000  time[fs]=72.00000
   C -0.886503402E+01 -0.553514518E+00  0.116854930E+00
   C  0.814352856E+01  0.246393440E+00 -0.976663723E-01
   H -0.425315880E+02  0.552748598E+01 -0.293732119E+00
   H  0.409868007E+02 -0.369747951E+01 -0.170612168E+01
     4
 # iter = 72500  time[fs]=72.50000
   C -0.895600447E+01 -0.559218643E+00  0.118308426E+00
   C  0.822741354E+01  0.249427699E+00 -0.983244258E-01
   H -0.429425571E+02  0.558185707E+01 -0.296415172E+00
   H  0.413810454E+02 -0.373350121E+01 -0.172236371E+01
     4
 # iter = 73000  time[fs]=73.00000
   C -0.904701777E+01 -0.564925793E+00  0.119762670E+00
   C  0.831134150E+01  0.252464496E+00 -0.989828042E-01
   H -0.433536254E+02  0.563624382E+01 -0.299099084E+00
   H  0.417753877E+02 -0.376953272E+01 -0.173860997E+01
     4
 # iter = 73500  time[fs]=73.50000
   C -0.913807306E+01 -0.570635911E+00  0.121217647E+00
   C  0.839531157E+01  0.255503784E+00 -0.996415002E-01
   H -0.437647910E+02  0.569064591E+01 -0.301783840E+00
   H  0.421698259E+02 -0.380557386E+01 -0.175486037E+01
     4
 # iter = 74000  time[fs]=74.00000
   C -0.922916949E+01 -0.576348940E+00  0.122673343E+00
   C  0.847932291E+01  0.258545516E+00 -0.100300507E+00
   H -0.441760521E+02  0.574506308E+01 -0.304469424E+00
   H  0.425643580E+02 -0.384162446E+01 -0.177111484E+01
     4
 # iter = 74500  time[fs]=74.50000
   C -0.932030625E+01 -0.582064826E+00  0.124129743E+00
   C  0.856337471E+01  0.261589644E+00 -0.100959817E+00
   H -0.445874070E+02  0.579949505E+01 -0.307155822E+00
   H  0.429589825E+02 -0.387768435E+01 -0.178737330E+01
     4
 # iter = 75000  time[fs]=75.00000
   C -0.941148256E+01 -0.587783515E+00  0.125586834E+00
   C  0.864746616E+01  0.264636125E+00 -0.101619425E+00
   H -0.449988539E+02  0.585394155E+01 -0.309843020E+00
   H  0.433536976E+02 -0.391375336E+01 -0.180363569E+01
     4
 # iter = 75500  time[fs]=75.50000
   C -0.950269763E+01 -0.593504957E+00  0.127044603E+00
   C  0.873159650E+01  0.267684916E+00 -0.102279324E+00
   H -0.454103912E+02  0.590840234E+01 -0.312531003E+00
   H  0.437485016E+02 -0.394983133E+01 -0.181990192E+01
     4
 # iter = 76000  time[fs]=76.00000
   C -0.959395073E+01 -0.599229101E+00  0.128503036E+00
   C  0.881576499E+01  0.270735973E+00 -0.102939508E+00
   H -0.458220174E+02  0.596287714E+01 -0.315219758E+00
   H  0.441433931E+02 -0.398591810E+01 -0.183617194E+01
     4
 # iter = 76500  time[fs]=76.50000
   C -0.968524112E+01 -0.604955899E+00  0.129962121E+00
   C  0.889997088E+01  0.273789256E+00 -0.103599971E+00
   H -0.462337307E+02  0.601736574E+01 -0.317909273E+00
   H  0.445383704E+02 -0.402201352E+01 -0.185244568E+01
     4
 # iter = 77000  time[fs]=77.00000
   C -0.977656811E+01 -0.610685302E+00  0.131421846E+00
   C  0.898421347E+01  0.276844725E+00 -0.104260707E+00
   H -0.466455296E+02  0.607186787E+01 -0.320599532E+00
   H  0.449334321E+02 -0.405811745E+01 -0.186872307E+01
     4
 # iter = 77500  time[fs]=77.50000
   C -0.986793100E+01 -0.616417265E+00  0.132882198E+00
   C  0.906849207E+01  0.279902341E+00 -0.104921710E+00
   H -0.470574128E+02  0.612638331E+01 -0.323290526E+00
   H  0.453285766E+02 -0.409422973E+01 -0.188500405E+01
     4
 # iter = 78000  time[fs]=78.00000
   C -0.995932913E+01 -0.622151743E+00  0.134343166E+00
   C  0.915280602E+01  0.282962066E+00 -0.105582975E+00
   H -0.474693786E+02  0.618091184E+01 -0.325982240E+00
   H  0.457238026E+02 -0.413035022E+01 -0.190128855E+01
     4
 # iter = 78500  time[fs]=78.50000
   C -0.100507618E+02 -0.627888691E+00  0.135804740E+00
   C  0.923715467E+01  0.286023863E+00 -0.106244497E+00
   H -0.478814257E+02  0.623545323E+01 -0.328674664E+00
   H  0.461191086E+02 -0.416647879E+01 -0.191757653E+01
     4
 # iter = 79000  time[fs]=79.00000
   C -0.101422285E+02 -0.633628068E+00  0.137266907E+00
   C  0.932153737E+01  0.289087695E+00 -0.106906271E+00
   H -0.482935528E+02  0.629000727E+01 -0.331367785E+00
   H  0.465144934E+02 -0.420261531E+01 -0.193386791E+01
     4
 # iter = 79500  time[fs]=79.50000
   C -0.102337285E+02 -0.639369831E+00  0.138729658E+00
   C  0.940595351E+01  0.292153529E+00 -0.107568291E+00
   H -0.487057584E+02  0.634457374E+01 -0.334061592E+00
   H  0.469099555E+02 -0.423875963E+01 -0.195016265E+01
     4
 # iter = 80000  time[fs]=80.00000
   C -0.103252613E+02 -0.645113940E+00  0.140192981E+00
   C  0.949040250E+01  0.295221329E+00 -0.108230553E+00
   H -0.491180412E+02  0.639915245E+01 -0.336756074E+00
   H  0.473054936E+02 -0.427491164E+01 -0.196646069E+01
