     4
 # iter = 25000  time[fs]=25.00000
   C -0.947692833E+00  0.412062901E-02  0.173279902E-01
   C  0.100439403E+01  0.320726406E-01  0.823660825E-02
   H -0.520674228E+01 -0.475837089E+00 -0.634085609E+00
   H  0.521853105E+01  0.555262875E+00  0.587967289E+00
     4
 # iter = 25500  time[fs]=25.50000
   C -0.991843860E+00  0.502846091E-02  0.187995000E-01
   C  0.104524063E+01  0.295719187E-01  0.484276222E-02
   H -0.554205730E+01 -0.512503138E+00 -0.682957099E+00
   H  0.552672186E+01  0.581937030E+00  0.615822883E+00
     4
 # iter = 26000  time[fs]=26.00000
   C -0.103993607E+01  0.503065125E-02  0.194357254E-01
   C  0.108805767E+01  0.260356947E-01  0.352359494E-03
   H -0.588798783E+01 -0.555103336E+00 -0.737934422E+00
   H  0.583518154E+01  0.603843502E+00  0.638970849E+00
     4
 # iter = 26500  time[fs]=26.50000
   C -0.108908542E+01  0.677085617E-02  0.218739421E-01
   C  0.113571541E+01  0.245760785E-01 -0.211705621E-02
   H -0.622784444E+01 -0.587494365E+00 -0.782855425E+00
   H  0.615940504E+01  0.637005779E+00  0.673427196E+00
     4
 # iter = 27000  time[fs]=27.00000
   C -0.113892671E+01  0.103851015E-01  0.262444261E-01
   C  0.118813642E+01  0.253423559E-01 -0.241119247E-02
   H -0.656033614E+01 -0.608829278E+00 -0.816857829E+00
   H  0.649965582E+01  0.682160863E+00  0.719922515E+00
     4
 # iter = 27500  time[fs]=27.50000
   C -0.119120180E+01  0.139161476E-01  0.305847705E-01
   C  0.124278658E+01  0.260106486E-01 -0.284934476E-02
   H -0.689702182E+01 -0.631030347E+00 -0.851851357E+00
   H  0.684348440E+01  0.727284391E+00  0.766426906E+00
     4
 # iter = 28000  time[fs]=28.00000
   C -0.124709711E+01  0.159795110E-01  0.335058318E-01
   C  0.129782747E+01  0.249364311E-01 -0.507190764E-02
   H -0.724601563E+01 -0.662526499E+00 -0.896253967E+00
   H  0.718201043E+01  0.763860758E+00  0.804420146E+00
     4
 # iter = 28500  time[fs]=28.50000
   C -0.130586941E+01  0.171387095E-01  0.355669193E-01
   C  0.135374210E+01  0.227806438E-01 -0.841425178E-02
   H -0.760358012E+01 -0.699863565E+00 -0.946601488E+00
   H  0.751831546E+01  0.795276120E+00  0.837284620E+00
     4
 # iter = 29000  time[fs]=29.00000
   C -0.136597785E+01  0.187716662E-01  0.381421679E-01
   C  0.141199362E+01  0.211687239E-01 -0.112476389E-01
   H -0.796104139E+01 -0.734619681E+00 -0.994463057E+00
   H  0.786050594E+01  0.829896680E+00  0.873383380E+00
     4
 # iter = 29500  time[fs]=29.50000
   C -0.142679734E+01  0.213551477E-01  0.417049483E-01
   C  0.147299541E+01  0.206613477E-01 -0.130084214E-01
   H -0.831525818E+01 -0.763871687E+00 -0.103690768E+01
   H  0.821122294E+01  0.870593947E+00  0.915585199E+00
     4
 # iter = 30000  time[fs]=30.00000
   C -0.148885786E+01  0.242241870E-01  0.455872524E-01
   C  0.153582531E+01  0.204696915E-01 -0.144827437E-01
   H -0.867008611E+01 -0.791662870E+00 -0.107797189E+01
   H  0.856616580E+01  0.913274855E+00  0.959794592E+00
     4
 # iter = 30500  time[fs]=30.50000
   C -0.155277936E+01  0.266365499E-01  0.490441169E-01
   C  0.159948321E+01  0.197142703E-01 -0.165476831E-01
   H -0.902987529E+01 -0.822508252E+00 -0.112216473E+01
   H  0.892059027E+01  0.953379763E+00  0.100144980E+01
     4
 # iter = 31000  time[fs]=31.00000
   C -0.161846127E+01  0.285824778E-01  0.520633264E-01
   C  0.166384737E+01  0.183825303E-01 -0.192136349E-01
   H -0.939452382E+01 -0.856454016E+00 -0.116952697E+01
   H  0.927425124E+01  0.990825488E+00  0.104046581E+01
     4
 # iter = 31500  time[fs]=31.50000
   C -0.168531893E+01  0.305470844E-01  0.551277814E-01
   C  0.172939223E+01  0.170476812E-01 -0.219054526E-01
   H -0.976092551E+01 -0.890527419E+00 -0.121708096E+01
   H  0.962994779E+01  0.102855378E+01  0.107978278E+01
     4
 # iter = 32000  time[fs]=32.00000
   C -0.175296153E+01  0.328311214E-01  0.585362386E-01
   C  0.179638387E+01  0.160651898E-01 -0.242659251E-01
   H -0.101271139E+02 -0.922881394E+00 -0.126297520E+01
   H  0.998937109E+01  0.106838344E+01  0.112121808E+01
     4
 # iter = 32500  time[fs]=32.50000
   C -0.182143460E+01  0.353074024E-01  0.621597122E-01
   C  0.186459095E+01  0.152846020E-01 -0.264439319E-01
   H -0.104937475E+02 -0.954280783E+00 -0.130797059E+01
   H  0.103516139E+02  0.110952262E+01  0.116397861E+01
     4
 # iter = 33000  time[fs]=33.00000
   C -0.189092660E+01  0.377133971E-01  0.657340458E-01
   C  0.193362982E+01  0.143955791E-01 -0.287483885E-01
   H -0.108623222E+02 -0.986316845E+00 -0.135365481E+01
   H  0.107149556E+02  0.115035513E+01  0.120644706E+01
     4
 # iter = 33500  time[fs]=33.50000
   C -0.196144729E+01  0.399721994E-01  0.691808598E-01
   C  0.200334332E+01  0.133075043E-01 -0.312686243E-01
   H -0.112332106E+02 -0.101944867E+01 -0.140048369E+01
   H  0.110788212E+02  0.119039999E+01  0.124814142E+01
     4
 # iter = 34000  time[fs]=34.00000
   C -0.203282372E+01  0.421957472E-01  0.726107546E-01
   C  0.207380386E+01  0.121532480E-01 -0.338706034E-01
   H -0.116056414E+02 -0.105298354E+01 -0.144776157E+01
   H  0.114437993E+02  0.123033081E+01  0.128973439E+01
     4
 # iter = 34500  time[fs]=34.50000
   C -0.210489101E+01  0.444934414E-01  0.761319147E-01
   C  0.214508638E+01  0.110627571E-01 -0.364233206E-01
   H -0.119788666E+02 -0.108624481E+01 -0.149480906E+01
   H  0.118104722E+02  0.127080686E+01  0.133188444E+01
     4
 # iter = 35000  time[fs]=35.00000
   C -0.217760053E+01  0.468633247E-01  0.797412750E-01
   C  0.221713901E+01  0.100343102E-01 -0.389275345E-01
   H -0.123528244E+02 -0.111923591E+01 -0.154162712E+01
   H  0.121787498E+02  0.131180848E+01  0.137457114E+01
     4
 # iter = 35500  time[fs]=35.50000
   C -0.225096892E+01  0.492425814E-01  0.833750089E-01
   C  0.228984230E+01  0.899423664E-02 -0.414560383E-01
   H -0.127278308E+02 -0.115233215E+01 -0.158858877E+01
   H  0.125481773E+02  0.135294526E+01  0.141740341E+01
     4
 # iter = 36000  time[fs]=36.00000
   C -0.232498824E+01  0.515969219E-01  0.869979026E-01
   C  0.236311452E+01  0.790263253E-02 -0.440479346E-01
   H -0.131040332E+02 -0.118573521E+01 -0.163589361E+01
   H  0.129184805E+02  0.139400177E+01  0.146016521E+01
     4
 # iter = 36500  time[fs]=36.50000
   C -0.239960517E+01  0.539410253E-01  0.906237886E-01
   C  0.243693538E+01  0.677753077E-02 -0.466844578E-01
   H -0.134812850E+02 -0.121934839E+01 -0.168344301E+01
   H  0.132896897E+02  0.143506227E+01  0.150294024E+01
     4
 # iter = 37000  time[fs]=37.00000
   C -0.247475830E+01  0.563008312E-01  0.942778294E-01
   C  0.251130108E+01  0.565028606E-02 -0.493335817E-01
   H -0.138593751E+02 -0.125300669E+01 -0.173107018E+01
   H  0.136619087E+02  0.147628035E+01  0.154588157E+01
     4
 # iter = 37500  time[fs]=37.50000
   C -0.255040884E+01  0.586825577E-01  0.979655285E-01
   C  0.258618735E+01  0.452892001E-02 -0.519866687E-01
   H -0.142382170E+02 -0.128666586E+01 -0.177872922E+01
   H  0.140351255E+02  0.151768966E+01  0.158902238E+01
     4
 # iter = 38000  time[fs]=38.00000
   C -0.262653690E+01  0.610761166E-01  0.101676140E+00
   C  0.266155320E+01  0.340215678E-02 -0.546544276E-01
   H -0.146178272E+02 -0.132038153E+01 -0.182647423E+01
   H  0.144092323E+02  0.155922473E+01  0.163229675E+01
     4
 # iter = 38500  time[fs]=38.50000
   C -0.270312355E+01  0.634727980E-01  0.105400347E+00
   C  0.273736158E+01  0.226033751E-02 -0.573459956E-01
   H -0.149982170E+02 -0.135420126E+01 -0.187435135E+01
   H  0.147841334E+02  0.160082886E+01  0.167564758E+01
     4
 # iter = 39000  time[fs]=39.00000
   C -0.278014320E+01  0.658726931E-01  0.109137681E+00
   C  0.281358795E+01  0.110419930E-02 -0.600601537E-01
   H -0.153793471E+02 -0.138811922E+01 -0.192235342E+01
   H  0.151597899E+02  0.164249943E+01  0.171907189E+01
     4
 # iter = 39500  time[fs]=39.50000
   C -0.285756830E+01  0.682797777E-01  0.112891597E+00
   C  0.289021424E+01 -0.609439798E-04 -0.627911430E-01
   H -0.157611570E+02 -0.142210618E+01 -0.197044999E+01
   H  0.155361895E+02  0.168425785E+01  0.176259073E+01
     4
 # iter = 40000  time[fs]=40.00000
   C -0.293537522E+01  0.706958311E-01  0.116663394E+00
   C  0.296722150E+01 -0.123239506E-02 -0.655358543E-01
   H -0.161436022E+02 -0.145614660E+01 -0.201862436E+01
   H  0.159133093E+02  0.172611237E+01  0.180621204E+01
     4
 # iter = 40500  time[fs]=40.50000
   C -0.301354487E+01  0.731197152E-01  0.120451487E+00
   C  0.304458890E+01 -0.241092801E-02 -0.682946797E-01
   H -0.165266583E+02 -0.149024300E+01 -0.206687797E+01
   H  0.162911107E+02  0.176805364E+01  0.184992617E+01
     4
 # iter = 41000  time[fs]=41.00000
   C -0.309206002E+01  0.755498387E-01  0.124253869E+00
   C  0.312229646E+01 -0.359787285E-02 -0.710685948E-01
   H -0.169103055E+02 -0.152440090E+01 -0.211521535E+01
   H  0.166695546E+02  0.181006976E+01  0.189372095E+01
     4
 # iter = 41500  time[fs]=41.50000
   C -0.317090371E+01  0.779856996E-01  0.128069653E+00
   C  0.320032680E+01 -0.479329121E-02 -0.738573313E-01
   H -0.172945194E+02 -0.155861943E+01 -0.216363468E+01
   H  0.170486106E+02  0.185215566E+01  0.193759103E+01
     4
 # iter = 42000  time[fs]=42.00000
   C -0.325005940E+01  0.804275380E-01  0.131898717E+00
   C  0.327866457E+01 -0.599638715E-02 -0.766597864E-01
   H -0.176792727E+02 -0.159289339E+01 -0.221212986E+01
   H  0.174282545E+02  0.189431096E+01  0.198153581E+01
     4
 # iter = 42500  time[fs]=42.50000
   C -0.332951179E+01  0.828754937E-01  0.135740864E+00
   C  0.335729538E+01 -0.720650330E-02 -0.794750166E-01
   H -0.180645404E+02 -0.162721839E+01 -0.226069569E+01
   H  0.178084632E+02  0.193653483E+01  0.202555422E+01
     4
 # iter = 43000  time[fs]=43.00000
   C -0.340924691E+01  0.853293522E-01  0.139595566E+00
   C  0.343620542E+01 -0.842342076E-02 -0.823025357E-01
   H -0.184503010E+02 -0.166159240E+01 -0.230932935E+01
   H  0.181892129E+02  0.197882438E+01  0.206964316E+01
     4
 # iter = 43500  time[fs]=43.50000
   C -0.348925185E+01  0.877887785E-01  0.143462193E+00
   C  0.351538159E+01 -0.964708234E-02 -0.851420368E-01
   H -0.188365353E+02 -0.169601429E+01 -0.235802896E+01
   H  0.185704806E+02  0.202117612E+01  0.211379894E+01
     4
 # iter = 44000  time[fs]=44.00000
   C -0.356951446E+01  0.902535305E-01  0.147340226E+00
   C  0.359481177E+01 -0.108773389E-01 -0.879931369E-01
   H -0.192232245E+02 -0.173048254E+01 -0.240679232E+01
   H  0.189522450E+02  0.206358722E+01  0.215801855E+01
     4
 # iter = 44500  time[fs]=44.50000
   C -0.365002325E+01  0.927234647E-01  0.151229262E+00
   C  0.367448469E+01 -0.121139429E-01 -0.908553694E-01
   H -0.196103505E+02 -0.176499517E+01 -0.245561680E+01
   H  0.193344865E+02  0.210605556E+01  0.220229968E+01
     4
 # iter = 45000  time[fs]=45.00000
   C -0.373076748E+01  0.951984530E-01  0.155128931E+00
   C  0.375438980E+01 -0.133566455E-01 -0.937282799E-01
   H -0.199978962E+02 -0.179955026E+01 -0.250449983E+01
   H  0.197171868E+02  0.214857920E+01  0.224664024E+01
     4
 # iter = 45500  time[fs]=45.50000
   C -0.381173704E+01  0.976783431E-01  0.159038852E+00
   C  0.383451715E+01 -0.146052427E-01 -0.966114714E-01
   H -0.203858456E+02 -0.183414616E+01 -0.255343921E+01
   H  0.201003285E+02  0.219115612E+01  0.229103805E+01
     4
 # iter = 46000  time[fs]=46.00000
   C -0.389292248E+01  0.100162972E+00  0.162958645E+00
   C  0.391485738E+01 -0.158595594E-01 -0.995045872E-01
   H -0.207741837E+02 -0.186878143E+01 -0.260243292E+01
   H  0.204838951E+02  0.223378433E+01  0.233549096E+01
     4
 # iter = 46500  time[fs]=46.50000
   C -0.397431490E+01  0.102652186E+00  0.166887954E+00
   C  0.399540169E+01 -0.171194240E-01 -0.102407285E+00
   H -0.211628962E+02 -0.190345468E+01 -0.265147905E+01
   H  0.208678707E+02  0.227646193E+01  0.237999695E+01
     4
 # iter = 47000  time[fs]=47.00000
   C -0.405590591E+01  0.105145846E+00  0.170826447E+00
   C  0.407614180E+01 -0.183846635E-01 -0.105319230E+00
   H -0.215519697E+02 -0.193816455E+01 -0.270057573E+01
   H  0.212522406E+02  0.231918719E+01  0.242455414E+01
     4
 # iter = 47500  time[fs]=47.50000
   C -0.413768759E+01  0.107643820E+00  0.174773812E+00
   C  0.415706990E+01 -0.196551093E-01 -0.108240103E+00
   H -0.219413913E+02 -0.197290973E+01 -0.274972120E+01
   H  0.216369908E+02  0.236195848E+01  0.246916078E+01
     4
 # iter = 48000  time[fs]=48.00000
   C -0.421965247E+01  0.110145979E+00  0.178729750E+00
   C  0.423817862E+01 -0.209306020E-01 -0.111169600E+00
   H -0.223311489E+02 -0.200768900E+01 -0.279891378E+01
   H  0.220221081E+02  0.240477424E+01  0.251381519E+01
     4
 # iter = 48500  time[fs]=48.50000
   C -0.430179351E+01  0.112652198E+00  0.182693972E+00
   C  0.431946101E+01 -0.222109900E-01 -0.114107434E+00
   H -0.227212309E+02 -0.204250121E+01 -0.284815187E+01
   H  0.224075797E+02  0.244763296E+01  0.255851576E+01
     4
 # iter = 49000  time[fs]=49.00000
   C -0.438410404E+01  0.115162358E+00  0.186666208E+00
   C  0.440091048E+01 -0.234961285E-01 -0.117053332E+00
   H -0.231116264E+02 -0.207734526E+01 -0.289743399E+01
   H  0.227933937E+02  0.249053323E+01  0.260326096E+01
     4
 # iter = 49500  time[fs]=49.50000
   C -0.446657775E+01  0.117676344E+00  0.190646196E+00
   C  0.448252080E+01 -0.247858778E-01 -0.120007034E+00
   H -0.235023251E+02 -0.211222010E+01 -0.294675869E+01
   H  0.231795387E+02  0.253347371E+01  0.264804934E+01
     4
 # iter = 50000  time[fs]=50.00000
   C -0.454920866E+01  0.120194047E+00  0.194633689E+00
   C  0.456428608E+01 -0.260801037E-01 -0.122968289E+00
   H -0.238933170E+02 -0.214712474E+01 -0.299612460E+01
   H  0.235660038E+02  0.257645310E+01  0.269287953E+01
     4
 # iter = 50500  time[fs]=50.50000
   C -0.463199110E+01  0.122715360E+00  0.198628450E+00
   C  0.464620073E+01 -0.273786773E-01 -0.125936861E+00
   H -0.242845926E+02 -0.218205822E+01 -0.304553042E+01
   H  0.239527788E+02  0.261947018E+01  0.273775019E+01
     4
 # iter = 51000  time[fs]=51.00000
   C -0.471491971E+01  0.125240183E+00  0.202630253E+00
   C  0.472825944E+01 -0.286814751E-01 -0.128912521E+00
   H -0.246761431E+02 -0.221701964E+01 -0.309497491E+01
   H  0.243398537E+02  0.266252378E+01  0.278266009E+01
     4
 # iter = 51500  time[fs]=51.50000
   C -0.479798938E+01  0.127768417E+00  0.206638883E+00
   C  0.481045719E+01 -0.299883784E-01 -0.131895053E+00
   H -0.250679597E+02 -0.225200814E+01 -0.314445688E+01
   H  0.247272191E+02  0.270561280E+01  0.282760801E+01
     4
 # iter = 52000  time[fs]=52.00000
   C -0.488119527E+01  0.130299968E+00  0.210654132E+00
   C  0.489278918E+01 -0.312992731E-01 -0.134884249E+00
   H -0.254600344E+02 -0.228702289E+01 -0.319397521E+01
   H  0.251148662E+02  0.274873615E+01  0.287259282E+01
     4
 # iter = 52500  time[fs]=52.50000
   C -0.496453275E+01  0.132834746E+00  0.214675804E+00
   C  0.497525087E+01 -0.326140496E-01 -0.137879910E+00
   H -0.258523592E+02 -0.232206310E+01 -0.324352880E+01
   H  0.255027863E+02  0.279189282E+01  0.291761341E+01
     4
 # iter = 53000  time[fs]=53.00000
   C -0.504799745E+01  0.135372664E+00  0.218703709E+00
   C  0.505783792E+01 -0.339326025E-01 -0.140881847E+00
   H -0.262449268E+02 -0.235712803E+01 -0.329311663E+01
   H  0.258909714E+02  0.283508185E+01  0.296266874E+01
     4
 # iter = 53500  time[fs]=53.50000
   C -0.513158518E+01  0.137913639E+00  0.222737666E+00
   C  0.514054623E+01 -0.352548303E-01 -0.143889876E+00
   H -0.266377300E+02 -0.239221695E+01 -0.334273770E+01
   H  0.262794134E+02  0.287830228E+01  0.300775781E+01
     4
 # iter = 54000  time[fs]=54.00000
   C -0.521529197E+01  0.140457589E+00  0.226777500E+00
   C  0.522337185E+01 -0.365806355E-01 -0.146903824E+00
   H -0.270307620E+02 -0.242732918E+01 -0.339239106E+01
   H  0.266681050E+02  0.292155324E+01  0.305287965E+01
     4
 # iter = 54500  time[fs]=54.50000
   C -0.529911400E+01  0.143004438E+00  0.230823047E+00
   C  0.530631104E+01 -0.379099241E-01 -0.149923524E+00
   H -0.274240161E+02 -0.246246404E+01 -0.344207581E+01
   H  0.270570391E+02  0.296483387E+01  0.309803335E+01
     4
 # iter = 55000  time[fs]=55.00000
   C -0.538304767E+01  0.145554110E+00  0.234874146E+00
   C  0.538936023E+01 -0.392426056E-01 -0.152948813E+00
   H -0.278174862E+02 -0.249762092E+01 -0.349179107E+01
   H  0.274462087E+02  0.300814334E+01  0.314321803E+01
     4
 # iter = 55500  time[fs]=55.50000
   C -0.546708951E+01  0.148106533E+00  0.238930644E+00
   C  0.547251600E+01 -0.405785930E-01 -0.155979539E+00
   H -0.282111662E+02 -0.253279920E+01 -0.354153601E+01
   H  0.278356072E+02  0.305148087E+01  0.318843283E+01
     4
 # iter = 56000  time[fs]=56.00000
   C -0.555123622E+01  0.150661638E+00  0.242992393E+00
   C  0.555577510E+01 -0.419178022E-01 -0.159015554E+00
   H -0.286050503E+02 -0.256799830E+01 -0.359130983E+01
   H  0.282252284E+02  0.309484570E+01  0.323367695E+01
     4
 # iter = 56500  time[fs]=56.50000
   C -0.563548462E+01  0.153219358E+00  0.247059253E+00
   C  0.563913439E+01 -0.432601524E-01 -0.162056714E+00
   H -0.289991331E+02 -0.260321766E+01 -0.364111176E+01
   H  0.286150662E+02  0.313823710E+01  0.327894961E+01
     4
 # iter = 57000  time[fs]=57.00000
   C -0.571983171E+01  0.155779628E+00  0.251131087E+00
   C  0.572259091E+01 -0.446055654E-01 -0.165102884E+00
   H -0.293934092E+02 -0.263845675E+01 -0.369094105E+01
   H  0.290051147E+02  0.318165439E+01  0.332425005E+01
     4
 # iter = 57500  time[fs]=57.50000
   C -0.580427457E+01  0.158342386E+00  0.255207765E+00
   C  0.580614179E+01 -0.459539660E-01 -0.168153932E+00
   H -0.297878734E+02 -0.267371505E+01 -0.374079700E+01
   H  0.293953685E+02  0.322509687E+01  0.336957756E+01
     4
 # iter = 58000  time[fs]=58.00000
   C -0.588881044E+01  0.160907571E+00  0.259289161E+00
   C  0.588978431E+01 -0.473052816E-01 -0.171209731E+00
   H -0.301825210E+02 -0.270899206E+01 -0.379067892E+01
   H  0.297858220E+02  0.326856392E+01  0.341493144E+01
     4
 # iter = 58500  time[fs]=58.50000
   C -0.597343667E+01  0.163475126E+00  0.263375154E+00
   C  0.597351584E+01 -0.486594420E-01 -0.174270160E+00
   H -0.305773470E+02 -0.274428730E+01 -0.384058615E+01
   H  0.301764702E+02  0.331205491E+01  0.346031103E+01
     4
 # iter = 59000  time[fs]=59.00000
   C -0.605815070E+01  0.166044994E+00  0.267465627E+00
   C  0.605733386E+01 -0.500163794E-01 -0.177335101E+00
   H -0.309723471E+02 -0.277960032E+01 -0.389051806E+01
   H  0.305673081E+02  0.335556925E+01  0.350571568E+01
     4
 # iter = 59500  time[fs]=59.50000
   C -0.614295009E+01  0.168617121E+00  0.271560469E+00
   C  0.614123597E+01 -0.513760286E-01 -0.180404442E+00
   H -0.313675169E+02 -0.281493067E+01 -0.394047404E+01
   H  0.309583309E+02  0.339910635E+01  0.355114477E+01
     4
 # iter = 60000  time[fs]=60.00000
   C -0.622783250E+01  0.171191454E+00  0.275659571E+00
   C  0.622521986E+01 -0.527383262E-01 -0.183478073E+00
   H -0.317628520E+02 -0.285027793E+01 -0.399045350E+01
   H  0.313495340E+02  0.344266566E+01  0.359659771E+01
     4
 # iter = 60500  time[fs]=60.50000
   C -0.631279566E+01  0.173767943E+00  0.279762828E+00
   C  0.630928330E+01 -0.541032112E-01 -0.186555890E+00
   H -0.321583486E+02 -0.288564169E+01 -0.404045588E+01
   H  0.317409130E+02  0.348624664E+01  0.364207392E+01
     4
 # iter = 61000  time[fs]=61.00000
   C -0.639783743E+01  0.176346539E+00  0.283870141E+00
   C  0.639342416E+01 -0.554706245E-01 -0.189637792E+00
   H -0.325540025E+02 -0.292102155E+01 -0.409048062E+01
   H  0.321324636E+02  0.352984879E+01  0.368757285E+01
     4
 # iter = 61500  time[fs]=61.50000
   C -0.648295570E+01  0.178927194E+00  0.287981412E+00
   C  0.647764038E+01 -0.568405090E-01 -0.192723681E+00
   H -0.329498102E+02 -0.295641712E+01 -0.414052720E+01
   H  0.325241816E+02  0.357347160E+01  0.373309397E+01
     4
 # iter = 62000  time[fs]=62.00000
   C -0.656814850E+01  0.181509863E+00  0.292096548E+00
   C  0.656193000E+01 -0.582128095E-01 -0.195813462E+00
   H -0.333457679E+02 -0.299182805E+01 -0.419059511E+01
   H  0.329160630E+02  0.361711458E+01  0.377863675E+01
     4
 # iter = 62500  time[fs]=62.50000
   C -0.665341388E+01  0.184094500E+00  0.296215457E+00
   C  0.664629112E+01 -0.595874724E-01 -0.198907045E+00
   H -0.337418721E+02 -0.302725397E+01 -0.424068385E+01
   H  0.333081042E+02  0.366077729E+01  0.382420070E+01
     4
 # iter = 63000  time[fs]=63.00000
   C -0.673874999E+01  0.186681063E+00  0.300338054E+00
   C  0.673072190E+01 -0.609644459E-01 -0.202004342E+00
   H -0.341381195E+02 -0.306269454E+01 -0.429079296E+01
   H  0.337003012E+02  0.370445926E+01  0.386978533E+01
     4
 # iter = 63500  time[fs]=63.50000
   C -0.682415506E+01  0.189269510E+00  0.304464252E+00
   C  0.681522060E+01 -0.623436799E-01 -0.205105267E+00
   H -0.345345067E+02 -0.309814942E+01 -0.434092198E+01
   H  0.340926506E+02  0.374816007E+01  0.391539019E+01
     4
 # iter = 64000  time[fs]=64.00000
   C -0.690962735E+01  0.191859801E+00  0.308593972E+00
   C  0.689978550E+01 -0.637251258E-01 -0.208209738E+00
   H -0.349310306E+02 -0.313361831E+01 -0.439107045E+01
   H  0.344851489E+02  0.379187929E+01  0.396101481E+01
     4
 # iter = 64500  time[fs]=64.50000
   C -0.699516522E+01  0.194451897E+00  0.312727133E+00
   C  0.698441499E+01 -0.651087366E-01 -0.211317677E+00
   H -0.353276881E+02 -0.316910088E+01 -0.444123796E+01
   H  0.348777927E+02  0.383561652E+01  0.400665877E+01
     4
 # iter = 65000  time[fs]=65.00000
   C -0.708076706E+01  0.197045759E+00  0.316863659E+00
   C  0.706910748E+01 -0.664944666E-01 -0.214429006E+00
   H -0.357244763E+02 -0.320459683E+01 -0.449142408E+01
   H  0.352705788E+02  0.387937137E+01  0.405232164E+01
     4
 # iter = 65500  time[fs]=65.50000
   C -0.716643134E+01  0.199641351E+00  0.321003477E+00
   C  0.715386146E+01 -0.678822716E-01 -0.217543651E+00
   H -0.361213923E+02 -0.324010588E+01 -0.454162841E+01
   H  0.356635042E+02  0.392314345E+01  0.409800302E+01
     4
 # iter = 66000  time[fs]=66.00000
   C -0.725215656E+01  0.202238638E+00  0.325146515E+00
   C  0.723867545E+01 -0.692721087E-01 -0.220661540E+00
   H -0.365184333E+02 -0.327562775E+01 -0.459185057E+01
   H  0.360565656E+02  0.396693241E+01  0.414370251E+01
     4
 # iter = 66500  time[fs]=66.50000
   C -0.733794129E+01  0.204837583E+00  0.329292704E+00
   C  0.732354804E+01 -0.706639363E-01 -0.223782603E+00
   H -0.369155966E+02 -0.331116215E+01 -0.464209017E+01
   H  0.364497603E+02  0.401073788E+01  0.418941973E+01
     4
 # iter = 67000  time[fs]=67.00000
   C -0.742378414E+01  0.207438155E+00  0.333441976E+00
   C  0.740847787E+01 -0.720577141E-01 -0.226906772E+00
   H -0.373128797E+02 -0.334670884E+01 -0.469234686E+01
   H  0.368430854E+02  0.405455951E+01  0.423515430E+01
     4
 # iter = 67500  time[fs]=67.50000
   C -0.750968377E+01  0.210040320E+00  0.337594267E+00
   C  0.749346362E+01 -0.734534027E-01 -0.230033983E+00
   H -0.377102801E+02 -0.338226755E+01 -0.474262027E+01
   H  0.372365381E+02  0.409839698E+01  0.428090588E+01
     4
 # iter = 68000  time[fs]=68.00000
   C -0.759563889E+01  0.212644046E+00  0.341749514E+00
   C  0.757850400E+01 -0.748509643E-01 -0.233164171E+00
   H -0.381077952E+02 -0.341783803E+01 -0.479291007E+01
   H  0.376301157E+02  0.414224996E+01  0.432667410E+01
     4
 # iter = 68500  time[fs]=68.50000
   C -0.768164824E+01  0.215249304E+00  0.345907655E+00
   C  0.766359778E+01 -0.762503619E-01 -0.236297276E+00
   H -0.385054227E+02 -0.345342004E+01 -0.484321593E+01
   H  0.380238158E+02  0.418611814E+01  0.437245864E+01
     4
 # iter = 69000  time[fs]=69.00000
   C -0.776771061E+01  0.217856062E+00  0.350068632E+00
   C  0.774874377E+01 -0.776515595E-01 -0.239433237E+00
   H -0.389031604E+02 -0.348901336E+01 -0.489353751E+01
   H  0.384176357E+02  0.423000121E+01  0.441825916E+01
     4
 # iter = 69500  time[fs]=69.50000
   C -0.785382483E+01  0.220464293E+00  0.354232387E+00
   C  0.783394082E+01 -0.790545223E-01 -0.242571997E+00
   H -0.393010060E+02 -0.352461775E+01 -0.494387451E+01
   H  0.388115731E+02  0.427389887E+01  0.446407535E+01
     4
 # iter = 70000  time[fs]=70.00000
   C -0.793998977E+01  0.223073967E+00  0.358398864E+00
   C  0.791918780E+01 -0.804592164E-01 -0.245713500E+00
   H -0.396989573E+02 -0.356023300E+01 -0.499422663E+01
   H  0.392056256E+02  0.431781083E+01  0.450990690E+01
     4
 # iter = 70500  time[fs]=70.50000
   C -0.802620432E+01  0.225685057E+00  0.362568009E+00
   C  0.800448364E+01 -0.818656090E-01 -0.248857691E+00
   H -0.400970123E+02 -0.359585890E+01 -0.504459356E+01
   H  0.395997909E+02  0.436173683E+01  0.455575350E+01
     4
 # iter = 71000  time[fs]=71.00000
   C -0.811246743E+01  0.228297537E+00  0.366739769E+00
   C  0.808982729E+01 -0.832736679E-01 -0.252004518E+00
   H -0.404951689E+02 -0.363149522E+01 -0.509497503E+01
   H  0.399940668E+02  0.440567658E+01  0.460161488E+01
     4
 # iter = 71500  time[fs]=71.50000
   C -0.819877806E+01  0.230911381E+00  0.370914095E+00
   C  0.817521772E+01 -0.846833620E-01 -0.255153928E+00
   H -0.408934251E+02 -0.366714179E+01 -0.514537074E+01
   H  0.403884512E+02  0.444962983E+01  0.464749074E+01
     4
 # iter = 72000  time[fs]=72.00000
   C -0.828513522E+01  0.233526563E+00  0.375090935E+00
   C  0.826065396E+01 -0.860946611E-01 -0.258305872E+00
   H -0.412917791E+02 -0.370279839E+01 -0.519578045E+01
   H  0.407829419E+02  0.449359632E+01  0.469338082E+01
     4
 # iter = 72500  time[fs]=72.50000
   C -0.837153794E+01  0.236143059E+00  0.379270242E+00
   C  0.834613506E+01 -0.875075356E-01 -0.261460302E+00
   H -0.416902290E+02 -0.373846484E+01 -0.524620387E+01
   H  0.411775369E+02  0.453757579E+01  0.473928484E+01
     4
 # iter = 73000  time[fs]=73.00000
   C -0.845798527E+01  0.238760845E+00  0.383451969E+00
   C  0.843166008E+01 -0.889219569E-01 -0.264617170E+00
   H -0.420887729E+02 -0.377414097E+01 -0.529664075E+01
   H  0.415722342E+02  0.458156802E+01  0.478520254E+01
     4
 # iter = 73500  time[fs]=73.50000
   C -0.854447631E+01  0.241379898E+00  0.387636070E+00
   C  0.851722814E+01 -0.903378971E-01 -0.267776431E+00
   H -0.424874091E+02 -0.380982657E+01 -0.534709086E+01
   H  0.419670320E+02  0.462557275E+01  0.483113368E+01
     4
 # iter = 74000  time[fs]=74.00000
   C -0.863101018E+01  0.244000194E+00  0.391822502E+00
   C  0.860283836E+01 -0.917553289E-01 -0.270938039E+00
   H -0.428861359E+02 -0.384552149E+01 -0.539755393E+01
   H  0.423619283E+02  0.466958977E+01  0.487707800E+01
     4
 # iter = 74500  time[fs]=74.50000
   C -0.871758602E+01  0.246621713E+00  0.396011220E+00
   C  0.868848990E+01 -0.931742259E-01 -0.274101952E+00
   H -0.432849516E+02 -0.388122556E+01 -0.544802975E+01
   H  0.427569213E+02  0.471361886E+01  0.492303527E+01
     4
 # iter = 75000  time[fs]=75.00000
   C -0.880420299E+01  0.249244432E+00  0.400202184E+00
   C  0.877418193E+01 -0.945945624E-01 -0.277268128E+00
   H -0.436838546E+02 -0.391693860E+01 -0.549851808E+01
   H  0.431520093E+02  0.475765979E+01  0.496900526E+01
     4
 # iter = 75500  time[fs]=75.50000
   C -0.889086030E+01  0.251868331E+00  0.404395353E+00
   C  0.885991367E+01 -0.960163130E-01 -0.280436525E+00
   H -0.440828433E+02 -0.395266046E+01 -0.554901869E+01
   H  0.435471906E+02  0.480171235E+01  0.501498774E+01
     4
 # iter = 76000  time[fs]=76.00000
   C -0.897755714E+01  0.254493389E+00  0.408590687E+00
   C  0.894568433E+01 -0.974394535E-01 -0.283607104E+00
   H -0.444819162E+02 -0.398839098E+01 -0.559953138E+01
   H  0.439424634E+02  0.484577634E+01  0.506098249E+01
     4
 # iter = 76500  time[fs]=76.50000
   C -0.906429277E+01  0.257119586E+00  0.412788146E+00
   C  0.903149317E+01 -0.988639599E-01 -0.286779825E+00
   H -0.448810719E+02 -0.402413001E+01 -0.565005592E+01
   H  0.443378262E+02  0.488985156E+01  0.510698929E+01
     4
 # iter = 77000  time[fs]=77.00000
   C -0.915106644E+01  0.259746902E+00  0.416987695E+00
   C  0.911733946E+01 -0.100289809E+00 -0.289954650E+00
   H -0.452803087E+02 -0.405987740E+01 -0.570059212E+01
   H  0.447332773E+02  0.493393782E+01  0.515300794E+01
     4
 # iter = 77500  time[fs]=77.50000
   C -0.923787742E+01  0.262375320E+00  0.421189295E+00
   C  0.920322249E+01 -0.101716978E+00 -0.293131544E+00
   H -0.456796254E+02 -0.409563301E+01 -0.575113977E+01
   H  0.451288152E+02  0.497803492E+01  0.519903823E+01
     4
 # iter = 78000  time[fs]=78.00000
   C -0.932472503E+01  0.265004820E+00  0.425392912E+00
   C  0.928914156E+01 -0.103145445E+00 -0.296310469E+00
   H -0.460790205E+02 -0.413139669E+01 -0.580169868E+01
   H  0.455244385E+02  0.502214269E+01  0.524507996E+01
     4
 # iter = 78500  time[fs]=78.50000
   C -0.941160858E+01  0.267635385E+00  0.429598511E+00
   C  0.937509601E+01 -0.104575188E+00 -0.299491391E+00
   H -0.464784927E+02 -0.416716831E+01 -0.585226866E+01
   H  0.459201456E+02  0.506626093E+01  0.529113294E+01
     4
 # iter = 79000  time[fs]=79.00000
   C -0.949852740E+01  0.270266996E+00  0.433806057E+00
   C  0.946108518E+01 -0.106006186E+00 -0.302674276E+00
   H -0.468780408E+02 -0.420294774E+01 -0.590284952E+01
   H  0.463159351E+02  0.511038948E+01  0.533719699E+01
     4
 # iter = 79500  time[fs]=79.50000
   C -0.958548085E+01  0.272899637E+00  0.438015518E+00
   C  0.954710845E+01 -0.107438419E+00 -0.305859090E+00
   H -0.472776633E+02 -0.423873484E+01 -0.595344107E+01
   H  0.467118056E+02  0.515452816E+01  0.538327191E+01
     4
 # iter = 80000  time[fs]=80.00000
   C -0.967246831E+01  0.275533292E+00  0.442226861E+00
   C  0.963316518E+01 -0.108871867E+00 -0.309045801E+00
   H -0.476773591E+02 -0.427452949E+01 -0.600404316E+01
   H  0.471077558E+02  0.519867680E+01  0.542935753E+01
