     4
 # iter = 25000  time[fs]=25.00000
   C -0.976113004E+00 -0.411732118E-01  0.660793804E-02
   C  0.102314867E+01 -0.410638568E-01 -0.942497217E-02
   H -0.526447013E+01  0.635875879E+00  0.484404097E+00
   H  0.531437332E+01 -0.572300453E+00 -0.508768040E+00
     4
 # iter = 25500  time[fs]=25.50000
   C -0.102219308E+01 -0.462003234E-01  0.436182481E-02
   C  0.106503621E+01 -0.424793114E-01 -0.975189121E-02
   H -0.560339932E+01  0.667839759E+00  0.506507790E+00
   H  0.562708070E+01 -0.616705241E+00 -0.550118650E+00
     4
 # iter = 26000  time[fs]=26.00000
   C -0.107192849E+01 -0.520375762E-01  0.134130889E-02
   C  0.110856122E+01 -0.450359161E-01 -0.112432604E-01
   H -0.595269841E+01  0.695065327E+00  0.523684378E+00
   H  0.594014340E+01 -0.667185089E+00 -0.597504790E+00
     4
 # iter = 26500  time[fs]=26.50000
   C -0.112276365E+01 -0.563643812E-01 -0.135187122E-03
   C  0.115698529E+01 -0.452406191E-01 -0.104053288E-01
   H -0.629571655E+01  0.733559342E+00  0.551962658E+00
   H  0.626903526E+01 -0.707579661E+00 -0.634770551E+00
     4
 # iter = 27000  time[fs]=27.00000
   C -0.117436242E+01 -0.590667702E-01  0.442265497E-04
   C  0.121026585E+01 -0.429196890E-01 -0.706347573E-02
   H -0.663118865E+01  0.784054047E+00  0.592092966E+00
   H  0.661401064E+01 -0.737031537E+00 -0.661062339E+00
     4
 # iter = 27500  time[fs]=27.50000
   C -0.122824512E+01 -0.618726076E-01  0.149698296E-03
   C  0.126560562E+01 -0.406701795E-01 -0.381373887E-02
   H -0.697069071E+01  0.834529587E+00  0.632070419E+00
   H  0.696261950E+01 -0.767458817E+00 -0.688301574E+00
     4
 # iter = 28000  time[fs]=28.00000
   C -0.128544487E+01 -0.660041774E-01 -0.104294991E-02
   C  0.132098372E+01 -0.403299565E-01 -0.249292809E-02
   H -0.732235162E+01  0.876473422E+00  0.663395366E+00
   H  0.730598044E+01 -0.807285563E+00 -0.724915146E+00
     4
 # iter = 28500  time[fs]=28.50000
   C -0.134529789E+01 -0.709674920E-01 -0.304152414E-02
   C  0.137697658E+01 -0.411567666E-01 -0.235774771E-02
   H -0.768244873E+01  0.913268144E+00  0.689461794E+00
   H  0.764716998E+01 -0.853047643E+00 -0.767441303E+00
     4
 # iter = 29000  time[fs]=29.00000
   C -0.140643952E+01 -0.755506341E-01 -0.463579284E-02
   C  0.143525544E+01 -0.413294086E-01 -0.158597705E-02
   H -0.804232194E+01  0.953273762E+00  0.718639743E+00
   H  0.799428821E+01 -0.896311531E+00 -0.807448557E+00
     4
 # iter = 29500  time[fs]=29.50000
   C -0.146831205E+01 -0.793344216E-01 -0.540815027E-02
   C  0.149631285E+01 -0.402195803E-01  0.451686396E-03
   H -0.839884178E+01  0.999358821E+00  0.753806458E+00
   H  0.834997148E+01 -0.934146390E+00 -0.842007856E+00
     4
 # iter = 30000  time[fs]=30.00000
   C -0.153137510E+01 -0.829043760E-01 -0.594558664E-02
   C  0.155914274E+01 -0.387105161E-01  0.287298113E-02
   H -0.875587378E+01  0.104743128E+01  0.790877432E+00
   H  0.870991652E+01 -0.970592520E+00 -0.875161087E+00
     4
 # iter = 30500  time[fs]=30.50000
   C -0.159616815E+01 -0.869136800E-01 -0.690264933E-02
   C  0.162264903E+01 -0.377873925E-01  0.469366043E-02
   H -0.911777651E+01  0.109293306E+01  0.825301201E+00
   H  0.906937717E+01 -0.101016266E+01 -0.911422386E+00
     4
 # iter = 31000  time[fs]=31.00000
   C -0.166259701E+01 -0.913703787E-01 -0.828864853E-02
   C  0.168671695E+01 -0.374650471E-01  0.589976156E-02
   H -0.948445532E+01  0.113578041E+01  0.856999943E+00
   H  0.942810613E+01 -0.105289832E+01 -0.950834501E+00
     4
 # iter = 31500  time[fs]=31.50000
   C -0.173014192E+01 -0.958466273E-01 -0.967691054E-02
   C  0.175189720E+01 -0.371026986E-01  0.713288507E-02
   H -0.985281039E+01  0.117891308E+01  0.888918716E+00
   H  0.978890007E+01 -0.109582063E+01 -0.990419650E+00
     4
 # iter = 32000  time[fs]=32.00000
   C -0.179845415E+01 -0.100076724E+00 -0.108028165E-01
   C  0.181850523E+01 -0.363035247E-01  0.879062178E-02
   H -0.102208811E+02  0.122414848E+01  0.922879653E+00
   H  0.101534479E+02 -0.113707759E+01 -0.102832680E+01
     4
 # iter = 32500  time[fs]=32.50000
   C -0.186756941E+01 -0.104171598E+00 -0.117782952E-01
   C  0.188629767E+01 -0.352372668E-01  0.107039509E-01
   H -0.105893314E+02  0.127069469E+01  0.958095090E+00
   H  0.105208407E+02 -0.117743117E+01 -0.106531880E+01
     4
 # iter = 33000  time[fs]=33.00000
   C -0.193764956E+01 -0.108361267E+00 -0.128342900E-01
   C  0.195485903E+01 -0.342527470E-01  0.125247236E-01
   H -0.109596620E+02  0.131693596E+01  0.992953069E+00
   H  0.108893561E+02 -0.121847060E+01 -0.110298567E+01
     4
 # iter = 33500  time[fs]=33.50000
   C -0.200869942E+01 -0.112712310E+00 -0.140382338E-01
   C  0.202402603E+01 -0.334528078E-01  0.141507240E-01
   H -0.113322498E+02  0.136239126E+01  0.102697601E+01
   H  0.112584179E+02 -0.126065238E+01 -0.114178463E+01
     4
 # iter = 34000  time[fs]=34.00000
   C -0.208056332E+01 -0.117125050E+00 -0.152912383E-01
   C  0.209389121E+01 -0.326900721E-01  0.157299116E-01
   H -0.117063273E+02  0.140773364E+01  0.106084010E+01
   H  0.116286133E+02 -0.130328068E+01 -0.118102048E+01
     4
 # iter = 34500  time[fs]=34.50000
   C -0.215309289E+01 -0.121502042E+00 -0.164965899E-01
   C  0.216454882E+01 -0.318204268E-01  0.174069414E-01
   H -0.120811496E+02  0.145362187E+01  0.109520694E+01
   H  0.120005233E+02 -0.134567596E+01 -0.122001427E+01
     4
 # iter = 35000  time[fs]=35.00000
   C -0.222624234E+01 -0.125843888E+00 -0.176555641E-01
   C  0.223595014E+01 -0.308471582E-01  0.191790309E-01
   H -0.124566582E+02  0.150003612E+01  0.113005929E+01
   H  0.123740568E+02 -0.138783944E+01 -0.125876776E+01
     4
 # iter = 35500  time[fs]=35.50000
   C -0.230002352E+01 -0.130204786E+00 -0.188229851E-01
   C  0.230796990E+01 -0.298540793E-01  0.209628360E-01
   H -0.128331721E+02  0.154658600E+01  0.116500913E+01
   H  0.127487580E+02 -0.143014465E+01 -0.129765497E+01
     4
 # iter = 36000  time[fs]=36.00000
   C -0.237442685E+01 -0.134613854E+00 -0.200285517E-01
   C  0.238052425E+01 -0.288871560E-01  0.227128270E-01
   H -0.132108412E+02  0.159305604E+01  0.119984316E+01
   H  0.131243516E+02 -0.147279151E+01 -0.133687626E+01
     4
 # iter = 36500  time[fs]=36.50000
   C -0.244940296E+01 -0.139057142E+00 -0.212588487E-01
   C  0.245359747E+01 -0.279274415E-01  0.244483567E-01
   H -0.135895212E+02  0.163953037E+01  0.123464750E+01
   H  0.135008671E+02 -0.151568149E+01 -0.137633351E+01
     4
 # iter = 37000  time[fs]=37.00000
   C -0.252489552E+01 -0.143510820E+00 -0.224905470E-01
   C  0.252719166E+01 -0.269410264E-01  0.262037122E-01
   H -0.139690032E+02  0.168616242E+01  0.126957741E+01
   H  0.138784076E+02 -0.155864784E+01 -0.141586036E+01
     4
 # iter = 37500  time[fs]=37.50000
   C -0.260086827E+01 -0.147968459E+00 -0.237176815E-01
   C  0.260128544E+01 -0.259200785E-01  0.279870778E-01
   H -0.143492028E+02  0.173298574E+01  0.130466813E+01
   H  0.142569602E+02 -0.160164477E+01 -0.145541136E+01
     4
 # iter = 38000  time[fs]=38.00000
   C -0.267730171E+01 -0.152438024E+00 -0.249486486E-01
   C  0.267583822E+01 -0.248783236E-01  0.297850561E-01
   H -0.147301383E+02  0.177993481E+01  0.133985570E+01
   H  0.146364166E+02 -0.164472653E+01 -0.149504109E+01
     4
 # iter = 38500  time[fs]=38.50000
   C -0.275417733E+01 -0.156926307E+00 -0.261906414E-01
   C  0.275081336E+01 -0.238276287E-01  0.315860864E-01
   H -0.151118227E+02  0.182695290E+01  0.137508484E+01
   H  0.150166803E+02 -0.168793942E+01 -0.153479614E+01
     4
 # iter = 39000  time[fs]=39.00000
   C -0.283147084E+01 -0.161432391E+00 -0.274431176E-01
   C  0.282618782E+01 -0.227681737E-01  0.333902748E-01
   H -0.154942182E+02  0.187403735E+01  0.141035424E+01
   H  0.153977117E+02 -0.173127636E+01 -0.157466972E+01
     4
 # iter = 39500  time[fs]=39.50000
   C -0.290915636E+01 -0.165951976E+00 -0.287021284E-01
   C  0.290194546E+01 -0.216949677E-01  0.352028796E-01
   H -0.158772658E+02  0.192120951E+01  0.144568648E+01
   H  0.157794983E+02 -0.177470697E+01 -0.161463169E+01
     4
 # iter = 40000  time[fs]=40.00000
   C -0.298721154E+01 -0.170482735E+00 -0.299656726E-01
   C  0.297806881E+01 -0.206059050E-01  0.370262569E-01
   H -0.162609225E+02  0.196847758E+01  0.148109094E+01
   H  0.161620163E+02 -0.181821459E+01 -0.165466566E+01
     4
 # iter = 40500  time[fs]=40.50000
   C -0.306561812E+01 -0.175024944E+00 -0.312343318E-01
   C  0.305453801E+01 -0.195027231E-01  0.388589031E-01
   H -0.166451649E+02  0.201583221E+01  0.151655934E+01
   H  0.165452268E+02 -0.186180077E+01 -0.169477338E+01
     4
 # iter = 41000  time[fs]=41.00000
   C -0.314435960E+01 -0.179579311E+00 -0.325091014E-01
   C  0.313133389E+01 -0.183877411E-01  0.406987190E-01
   H -0.170299745E+02  0.206326145E+01  0.155208075E+01
   H  0.169290903E+02 -0.190547008E+01 -0.173495964E+01
     4
 # iter = 41500  time[fs]=41.50000
   C -0.322341973E+01 -0.184145620E+00 -0.337900326E-01
   C  0.320843992E+01 -0.172618180E-01  0.425450514E-01
   H -0.174153280E+02  0.211076023E+01  0.158765104E+01
   H  0.173135758E+02 -0.194922076E+01 -0.177522287E+01
     4
 # iter = 42000  time[fs]=42.00000
   C -0.330278276E+01 -0.188723032E+00 -0.350765384E-01
   C  0.328584166E+01 -0.161248150E-01  0.443982324E-01
   H -0.178011992E+02  0.215832815E+01  0.162327069E+01
   H  0.176986588E+02 -0.199304677E+01 -0.181555723E+01
     4
 # iter = 42500  time[fs]=42.50000
   C -0.338243407E+01 -0.193310826E+00 -0.363681349E-01
   C  0.336352554E+01 -0.149767126E-01  0.462584633E-01
   H -0.181875638E+02  0.220596434E+01  0.165893967E+01
   H  0.180843158E+02 -0.203694294E+01 -0.185595770E+01
     4
 # iter = 43000  time[fs]=43.00000
   C -0.346236028E+01 -0.197908623E+00 -0.376646640E-01
   C  0.344147840E+01 -0.138179480E-01  0.481254779E-01
   H -0.185744015E+02  0.225366593E+01  0.169465588E+01
   H  0.184705227E+02 -0.208090648E+01 -0.189642167E+01
     4
 # iter = 43500  time[fs]=43.50000
   C -0.354254902E+01 -0.202516174E+00 -0.389660878E-01
   C  0.351968782E+01 -0.126491073E-01  0.499988511E-01
   H -0.189616938E+02  0.230142940E+01  0.173041653E+01
   H  0.188572561E+02 -0.212493557E+01 -0.193694747E+01
     4
 # iter = 44000  time[fs]=44.00000
   C -0.362298862E+01 -0.207133176E+00 -0.402723001E-01
   C  0.359814222E+01 -0.114706427E-01  0.518782825E-01
   H -0.193494226E+02  0.234925192E+01  0.176621950E+01
   H  0.192444943E+02 -0.216902802E+01 -0.197753305E+01
     4
 # iter = 44500  time[fs]=44.50000
   C -0.370366806E+01 -0.211759264E+00 -0.415831209E-01
   C  0.367683088E+01 -0.102828671E-01  0.537636021E-01
   H -0.197375707E+02  0.239713136E+01  0.180206330E+01
   H  0.196322175E+02 -0.221318124E+01 -0.201817596E+01
     4
 # iter = 45000  time[fs]=45.00000
   C -0.378457700E+01 -0.216394081E+00 -0.428983692E-01
   C  0.375574377E+01 -0.908606452E-02  0.556546609E-01
   H -0.201261216E+02  0.244506578E+01  0.183794659E+01
   H  0.200204072E+02 -0.225739270E+01 -0.205887379E+01
     4
 # iter = 45500  time[fs]=45.50000
   C -0.386570574E+01 -0.221037313E+00 -0.442178972E-01
   C  0.383487141E+01 -0.788054312E-02  0.575512786E-01
   H -0.205150600E+02  0.249305316E+01  0.187386795E+01
   H  0.204090456E+02 -0.230166020E+01 -0.209962448E+01
     4
 # iter = 46000  time[fs]=46.00000
   C -0.394704518E+01 -0.225688677E+00 -0.455415785E-01
   C  0.391420485E+01 -0.666661853E-02  0.594532601E-01
   H -0.209043714E+02  0.254109149E+01  0.190982591E+01
   H  0.207981159E+02 -0.234598175E+01 -0.214042614E+01
     4
 # iter = 46500  time[fs]=46.50000
   C -0.402858675E+01 -0.230347901E+00 -0.468692890E-01
   C  0.399373570E+01 -0.544458720E-02  0.613604232E-01
   H -0.212940423E+02  0.258917889E+01  0.194581910E+01
   H  0.211876020E+02 -0.239035547E+01 -0.218127700E+01
     4
 # iter = 47000  time[fs]=47.00000
   C -0.411032234E+01 -0.235014719E+00 -0.482009035E-01
   C  0.407345604E+01 -0.421472169E-02  0.632726034E-01
   H -0.216840597E+02  0.263731362E+01  0.198184628E+01
   H  0.215774891E+02 -0.243477952E+01 -0.222217531E+01
     4
 # iter = 47500  time[fs]=47.50000
   C -0.419224434E+01 -0.239688876E+00 -0.495362999E-01
   C  0.415335840E+01 -0.297727877E-02  0.651896466E-01
   H -0.220744112E+02  0.268549405E+01  0.201790628E+01
   H  0.219677629E+02 -0.247925212E+01 -0.226311943E+01
     4
 # iter = 48000  time[fs]=48.00000
   C -0.427434553E+01 -0.244370130E+00 -0.508753626E-01
   C  0.423343575E+01 -0.173250537E-02  0.671114031E-01
   H -0.224650853E+02  0.273371861E+01  0.205399798E+01
   H  0.223584099E+02 -0.252377164E+01 -0.230410777E+01
     4
 # iter = 48500  time[fs]=48.50000
   C -0.435661910E+01 -0.249058252E+00 -0.522179820E-01
   C  0.431368140E+01 -0.480638951E-03  0.690377278E-01
   H -0.228560709E+02  0.278198582E+01  0.209012031E+01
   H  0.227494172E+02 -0.256833648E+01 -0.234513886E+01
     4
 # iter = 49000  time[fs]=49.00000
   C -0.443905861E+01 -0.253753021E+00 -0.535640533E-01
   C  0.439408905E+01  0.778093691E-03  0.709684815E-01
   H -0.232473575E+02  0.283029425E+01  0.212627224E+01
   H  0.231407726E+02 -0.261294517E+01 -0.238621129E+01
     4
 # iter = 49500  time[fs]=49.50000
   C -0.452165795E+01 -0.258454230E+00 -0.549134751E-01
   C  0.447465275E+01  0.204347654E-02  0.729035318E-01
   H -0.236389351E+02  0.287864255E+01  0.216245282E+01
   H  0.235324647E+02 -0.265759628E+01 -0.242732371E+01
     4
 # iter = 50000  time[fs]=50.00000
   C -0.460441134E+01 -0.263161677E+00 -0.562661504E-01
   C  0.455536682E+01  0.331530344E-02  0.748427518E-01
   H -0.240307943E+02  0.292702946E+01  0.219866111E+01
   H  0.239244823E+02 -0.270228845E+01 -0.246847486E+01
     4
 # iter = 50500  time[fs]=50.50000
   C -0.468731329E+01 -0.267875171E+00 -0.576219858E-01
   C  0.463622590E+01  0.459337723E-02  0.767860199E-01
   H -0.244229259E+02  0.297545374E+01  0.223489625E+01
   H  0.243168150E+02 -0.274702039E+01 -0.250966350E+01
     4
 # iter = 51000  time[fs]=51.00000
   C -0.477035860E+01 -0.272594530E+00 -0.589808917E-01
   C  0.471722491E+01  0.587750919E-02  0.787332193E-01
   H -0.248153213E+02  0.302391422E+01  0.227115739E+01
   H  0.247094527E+02 -0.279179087E+01 -0.255088847E+01
     4
 # iter = 51500  time[fs]=51.50000
   C -0.485354232E+01 -0.277319577E+00 -0.603427823E-01
   C  0.479835900E+01  0.716751869E-02  0.806842381E-01
   H -0.252079724E+02  0.307240981E+01  0.230744374E+01
   H  0.251023860E+02 -0.283659871E+01 -0.259214867E+01
     4
 # iter = 52000  time[fs]=52.00000
   C -0.493685975E+01 -0.282050145E+00 -0.617075748E-01
   C  0.487962358E+01  0.846323275E-02  0.826389688E-01
   H -0.256008712E+02  0.312093942E+01  0.234375454E+01
   H  0.254956057E+02 -0.288144278E+01 -0.263344304E+01
     4
 # iter = 52500  time[fs]=52.50000
   C -0.502030640E+01 -0.286786073E+00 -0.630751897E-01
   C  0.496101426E+01  0.976448568E-02  0.845973080E-01
   H -0.259940103E+02  0.316950206E+01  0.238008905E+01
   H  0.258891031E+02 -0.292632202E+01 -0.267477055E+01
     4
 # iter = 53000  time[fs]=53.00000
   C -0.510387802E+01 -0.291527207E+00 -0.644455507E-01
   C  0.504252689E+01  0.110711186E-01  0.865591568E-01
   H -0.263873825E+02  0.321809674E+01  0.241644657E+01
   H  0.262828699E+02 -0.297123540E+01 -0.271613024E+01
     4
 # iter = 53500  time[fs]=53.50000
   C -0.518757056E+01 -0.296273400E+00 -0.658185842E-01
   C  0.512415748E+01  0.123829793E-01  0.885244198E-01
   H -0.267809809E+02  0.326672254E+01  0.245282645E+01
   H  0.266768982E+02 -0.301618192E+01 -0.275752118E+01
     4
 # iter = 54000  time[fs]=54.00000
   C -0.527138012E+01 -0.301024510E+00 -0.671942194E-01
   C  0.520590227E+01  0.136999215E-01  0.904930054E-01
   H -0.271747990E+02  0.331537858E+01  0.248922804E+01
   H  0.270711804E+02 -0.306116065E+01 -0.279894248E+01
     4
 # iter = 54500  time[fs]=54.50000
   C -0.535530303E+01 -0.305780400E+00 -0.685723884E-01
   C  0.528775763E+01  0.150218049E-01  0.924648255E-01
   H -0.275688305E+02  0.336406399E+01  0.252565073E+01
   H  0.274657092E+02 -0.310617069E+01 -0.284039329E+01
     4
 # iter = 55000  time[fs]=55.00000
   C -0.543933576E+01 -0.310540940E+00 -0.699530254E-01
   C  0.536972012E+01  0.163484947E-01  0.944397953E-01
   H -0.279630694E+02  0.341277796E+01  0.256209393E+01
   H  0.278604775E+02 -0.315121117E+01 -0.288187279E+01
     4
 # iter = 55500  time[fs]=55.50000
   C -0.552347493E+01 -0.315306005E+00 -0.713360673E-01
   C  0.545178645E+01  0.176798615E-01  0.964178332E-01
   H -0.283575099E+02  0.346151971E+01  0.259855708E+01
   H  0.282554788E+02 -0.319628125E+01 -0.292338021E+01
     4
 # iter = 56000  time[fs]=56.00000
   C -0.560771733E+01 -0.320075473E+00 -0.727214531E-01
   C  0.553395348E+01  0.190157808E-01  0.983988606E-01
   H -0.287521465E+02  0.351028849E+01  0.263503964E+01
   H  0.286507065E+02 -0.324138015E+01 -0.296491478E+01
     4
 # iter = 56500  time[fs]=56.50000
   C -0.569205988E+01 -0.324849229E+00 -0.741091243E-01
   C  0.561621818E+01  0.203561328E-01  0.100382802E+00
   H -0.291469738E+02  0.355908357E+01  0.267154109E+01
   H  0.290461547E+02 -0.328650709E+01 -0.300647578E+01
     4
 # iter = 57000  time[fs]=57.00000
   C -0.577649962E+01 -0.329627160E+00 -0.754990240E-01
   C  0.569857768E+01  0.217008024E-01  0.102369584E+00
   H -0.295419868E+02  0.360790425E+01  0.270806094E+01
   H  0.294418172E+02 -0.333166134E+01 -0.304806252E+01
     4
 # iter = 57500  time[fs]=57.50000
   C -0.586103373E+01 -0.334409161E+00 -0.768910978E-01
   C  0.578102922E+01  0.230496787E-01  0.104359136E+00
   H -0.299371805E+02  0.365674989E+01  0.274459870E+01
   H  0.298376885E+02 -0.337684219E+01 -0.308967434E+01
     4
 # iter = 58000  time[fs]=58.00000
   C -0.594565952E+01 -0.339195126E+00 -0.782852929E-01
   C  0.586357015E+01  0.244026549E-01  0.106351392E+00
   H -0.303325503E+02  0.370561982E+01  0.278115391E+01
   H  0.302337631E+02 -0.342204897E+01 -0.313131058E+01
     4
 # iter = 58500  time[fs]=58.50000
   C -0.603037438E+01 -0.343984956E+00 -0.796815585E-01
   C  0.594619795E+01  0.257596281E-01  0.108346284E+00
   H -0.307280916E+02  0.375451344E+01  0.281772613E+01
   H  0.306300357E+02 -0.346728101E+01 -0.317297064E+01
     4
 # iter = 59000  time[fs]=59.00000
   C -0.611517582E+01 -0.348778556E+00 -0.810798452E-01
   C  0.602891019E+01  0.271204992E-01  0.110343750E+00
   H -0.311238000E+02  0.380343015E+01  0.285431494E+01
   H  0.310265014E+02 -0.351253768E+01 -0.321465391E+01
     4
 # iter = 59500  time[fs]=59.50000
   C -0.620006146E+01 -0.353575833E+00 -0.824801058E-01
   C  0.611170452E+01  0.284851727E-01  0.112343730E+00
   H -0.315196714E+02  0.385236938E+01  0.289091992E+01
   H  0.314231552E+02 -0.355781838E+01 -0.325635983E+01
     4
 # iter = 60000  time[fs]=60.00000
   C -0.628502901E+01 -0.358376696E+00 -0.838822943E-01
   C  0.619457871E+01  0.298535562E-01  0.114346163E+00
   H -0.319157017E+02  0.390133058E+01  0.292754068E+01
   H  0.318199924E+02 -0.360312253E+01 -0.329808783E+01
     4
 # iter = 60500  time[fs]=60.50000
   C -0.637007626E+01 -0.363181061E+00 -0.852863663E-01
   C  0.627753061E+01  0.312255610E-01  0.116350994E+00
   H -0.323118870E+02  0.395031321E+01  0.296417683E+01
   H  0.322170085E+02 -0.364844955E+01 -0.333983740E+01
     4
 # iter = 61000  time[fs]=61.00000
   C -0.645520110E+01 -0.367988844E+00 -0.866922791E-01
   C  0.636055816E+01  0.326011010E-01  0.118358167E+00
   H -0.327082235E+02  0.399931677E+01  0.300082801E+01
   H  0.326141993E+02 -0.369379890E+01 -0.338160801E+01
     4
 # iter = 61500  time[fs]=61.50000
   C -0.654040149E+01 -0.372799964E+00 -0.880999910E-01
   C  0.644365936E+01  0.339800934E-01  0.120367629E+00
   H -0.331047077E+02  0.404834076E+01  0.303749386E+01
   H  0.330115604E+02 -0.373917006E+01 -0.342339917E+01
     4
 # iter = 62000  time[fs]=62.00000
   C -0.662567548E+01 -0.377614344E+00 -0.895094619E-01
   C  0.652683230E+01  0.353624580E-01  0.122379328E+00
   H -0.335013360E+02  0.409738470E+01  0.307417404E+01
   H  0.334090879E+02 -0.378456252E+01 -0.346521040E+01
     4
 # iter = 62500  time[fs]=62.50000
   C -0.671102117E+01 -0.382431909E+00 -0.909206531E-01
   C  0.661007514E+01  0.367481175E-01  0.124393215E+00
   H -0.338981051E+02  0.414644813E+01  0.311086822E+01
   H  0.338067779E+02 -0.382997579E+01 -0.350704124E+01
     4
 # iter = 63000  time[fs]=63.00000
   C -0.679643675E+01 -0.387252587E+00 -0.923335269E-01
   C  0.669338611E+01  0.381369970E-01  0.126409242E+00
   H -0.342950117E+02  0.419553060E+01  0.314757608E+01
   H  0.342046265E+02 -0.387540940E+01 -0.354889125E+01
     4
 # iter = 63500  time[fs]=63.50000
   C -0.688192048E+01 -0.392076307E+00 -0.937480468E-01
   C  0.677676350E+01  0.395290242E-01  0.128427362E+00
   H -0.346920527E+02  0.424463170E+01  0.318429731E+01
   H  0.346026302E+02 -0.392086289E+01 -0.359075998E+01
     4
 # iter = 64000  time[fs]=64.00000
   C -0.696747067E+01 -0.396903002E+00 -0.951641776E-01
   C  0.686020567E+01  0.409241290E-01  0.130447529E+00
   H -0.350892249E+02  0.429375099E+01  0.322103161E+01
   H  0.350007853E+02 -0.396633581E+01 -0.363264703E+01
     4
 # iter = 64500  time[fs]=64.50000
   C -0.705308569E+01 -0.401732605E+00 -0.965818851E-01
   C  0.694371103E+01  0.423222438E-01  0.132469701E+00
   H -0.354865256E+02  0.434288809E+01  0.325777869E+01
   H  0.353990886E+02 -0.401182775E+01 -0.367455199E+01
     4
 # iter = 65000  time[fs]=65.00000
   C -0.713876398E+01 -0.406565055E+00 -0.980011361E-01
   C  0.702727805E+01  0.437233029E-01  0.134493834E+00
   H -0.358839518E+02  0.439204259E+01  0.329453827E+01
   H  0.357975367E+02 -0.405733828E+01 -0.371647447E+01
     4
 # iter = 65500  time[fs]=65.50000
   C -0.722450402E+01 -0.411400288E+00 -0.994218986E-01
   C  0.711090525E+01  0.451272429E-01  0.136519888E+00
   H -0.362815007E+02  0.444121413E+01  0.333131009E+01
   H  0.361961265E+02 -0.410286700E+01 -0.375841410E+01
     4
 # iter = 66000  time[fs]=66.00000
   C -0.731030436E+01 -0.416238246E+00 -0.100844141E+00
   C  0.719459121E+01  0.465340023E-01  0.138547822E+00
   H -0.366791698E+02  0.449040233E+01  0.336809388E+01
   H  0.365948548E+02 -0.414841353E+01 -0.380037050E+01
     4
 # iter = 66500  time[fs]=66.50000
   C -0.739616359E+01 -0.421078871E+00 -0.102267834E+00
   C  0.727833455E+01  0.479435215E-01  0.140577599E+00
   H -0.370769565E+02  0.453960685E+01  0.340488938E+01
   H  0.369937187E+02 -0.419397749E+01 -0.384234332E+01
     4
 # iter = 67000  time[fs]=67.00000
   C -0.748208034E+01 -0.425922106E+00 -0.103692947E+00
   C  0.736213395E+01  0.493557427E-01  0.142609180E+00
   H -0.374748582E+02  0.458882734E+01  0.344169636E+01
   H  0.373927153E+02 -0.423955852E+01 -0.388433222E+01
     4
 # iter = 67500  time[fs]=67.50000
   C -0.756805330E+01 -0.430767899E+00 -0.105119453E+00
   C  0.744598812E+01  0.507706100E-01  0.144642530E+00
   H -0.378728725E+02  0.463806348E+01  0.347851457E+01
   H  0.377918418E+02 -0.428515627E+01 -0.392633687E+01
     4
 # iter = 68000  time[fs]=68.00000
   C -0.765408120E+01 -0.435616195E+00 -0.106547323E+00
   C  0.752989582E+01  0.521880691E-01  0.146677612E+00
   H -0.382709971E+02  0.468731494E+01  0.351534378E+01
   H  0.381910955E+02 -0.433077038E+01 -0.396835694E+01
     4
 # iter = 68500  time[fs]=68.50000
   C -0.774016280E+01 -0.440466945E+00 -0.107976531E+00
   C  0.761385584E+01  0.536080672E-01  0.148714393E+00
   H -0.386692298E+02  0.473658141E+01  0.355218377E+01
   H  0.385904737E+02 -0.437640054E+01 -0.401039212E+01
     4
 # iter = 69000  time[fs]=69.00000
   C -0.782629691E+01 -0.445320099E+00 -0.109407050E+00
   C  0.769786703E+01  0.550305534E-01  0.150752840E+00
   H -0.390675683E+02  0.478586258E+01  0.358903432E+01
   H  0.389899740E+02 -0.442204641E+01 -0.405244211E+01
     4
 # iter = 69500  time[fs]=69.50000
   C -0.791248239E+01 -0.450175608E+00 -0.110838855E+00
   C  0.778192826E+01  0.564554780E-01  0.152792920E+00
   H -0.394660104E+02  0.483515817E+01  0.362589523E+01
   H  0.393895938E+02 -0.446770770E+01 -0.409450662E+01
     4
 # iter = 70000  time[fs]=70.00000
   C -0.799871812E+01 -0.455033426E+00 -0.112271923E+00
   C  0.786603845E+01  0.578827928E-01  0.154834601E+00
   H -0.398645542E+02  0.488446789E+01  0.366276628E+01
   H  0.397893308E+02 -0.451338408E+01 -0.413658535E+01
     4
 # iter = 70500  time[fs]=70.50000
   C -0.808500302E+01 -0.459893508E+00 -0.113706227E+00
   C  0.795019653E+01  0.593124510E-01  0.156877853E+00
   H -0.402631976E+02  0.493379147E+01  0.369964729E+01
   H  0.401891826E+02 -0.455907528E+01 -0.417867804E+01
     4
 # iter = 71000  time[fs]=71.00000
   C -0.817133604E+01 -0.464755810E+00 -0.115141746E+00
   C  0.803440150E+01  0.607444073E-01  0.158922647E+00
   H -0.406619386E+02  0.498312863E+01  0.373653804E+01
   H  0.405891469E+02 -0.460478099E+01 -0.422078440E+01
     4
 # iter = 71500  time[fs]=71.50000
   C -0.825771618E+01 -0.469620290E+00 -0.116578457E+00
   C  0.811865236E+01  0.621786175E-01  0.160968953E+00
   H -0.410607754E+02  0.503247911E+01  0.377343837E+01
   H  0.409892217E+02 -0.465050096E+01 -0.426290418E+01
     4
 # iter = 72000  time[fs]=72.00000
   C -0.834414243E+01 -0.474486905E+00 -0.118016338E+00
   C  0.820294814E+01  0.636150387E-01  0.163016744E+00
   H -0.414597061E+02  0.508184267E+01  0.381034808E+01
   H  0.413894047E+02 -0.469623490E+01 -0.430503713E+01
     4
 # iter = 72500  time[fs]=72.50000
   C -0.843061387E+01 -0.479355615E+00 -0.119455367E+00
   C  0.828728794E+01  0.650536292E-01  0.165065992E+00
   H -0.418587290E+02  0.513121905E+01  0.384726701E+01
   H  0.417896939E+02 -0.474198255E+01 -0.434718299E+01
     4
 # iter = 73000  time[fs]=73.00000
   C -0.851712955E+01 -0.484226381E+00 -0.120895523E+00
   C  0.837167083E+01  0.664943484E-01  0.167116671E+00
   H -0.422578422E+02  0.518060802E+01  0.388419497E+01
   H  0.421900872E+02 -0.478774366E+01 -0.438934154E+01
     4
 # iter = 73500  time[fs]=73.50000
   C -0.860368859E+01 -0.489099166E+00 -0.122336786E+00
   C  0.845609595E+01  0.679371569E-01  0.169168754E+00
   H -0.426570441E+02  0.523000934E+01  0.392113181E+01
   H  0.425905828E+02 -0.483351799E+01 -0.443151252E+01
     4
 # iter = 74000  time[fs]=74.00000
   C -0.869029011E+01 -0.493973931E+00 -0.123779137E+00
   C  0.854056245E+01  0.693820163E-01  0.171222217E+00
   H -0.430563330E+02  0.527942279E+01  0.395807735E+01
   H  0.429911787E+02 -0.487930528E+01 -0.447369572E+01
     4
 # iter = 74500  time[fs]=74.50000
   C -0.877693327E+01 -0.498850640E+00 -0.125222556E+00
   C  0.862506951E+01  0.708288893E-01  0.173277035E+00
   H -0.434557075E+02  0.532884815E+01  0.399503145E+01
   H  0.433918730E+02 -0.492510530E+01 -0.451589092E+01
     4
 # iter = 75000  time[fs]=75.00000
   C -0.886361725E+01 -0.503729260E+00 -0.126667024E+00
   C  0.870961632E+01  0.722777395E-01  0.175333184E+00
   H -0.438551658E+02  0.537828521E+01  0.403199394E+01
   H  0.437926641E+02 -0.497091784E+01 -0.455809789E+01
     4
 # iter = 75500  time[fs]=75.50000
   C -0.895034126E+01 -0.508609754E+00 -0.128112523E+00
   C  0.879420211E+01  0.737285316E-01  0.177390641E+00
   H -0.442547065E+02  0.542773374E+01  0.406896468E+01
   H  0.441935500E+02 -0.501674265E+01 -0.460031643E+01
     4
 # iter = 76000  time[fs]=76.00000
   C -0.903710451E+01 -0.513492090E+00 -0.129559035E+00
   C  0.887882612E+01  0.751812310E-01  0.179449383E+00
   H -0.446543281E+02  0.547719356E+01  0.410594352E+01
   H  0.445945292E+02 -0.506257954E+01 -0.464254634E+01
     4
 # iter = 76500  time[fs]=76.50000
   C -0.912390627E+01 -0.518376236E+00 -0.131006543E+00
   C  0.896348763E+01  0.766358043E-01  0.181509388E+00
   H -0.450540292E+02  0.552666447E+01  0.414293032E+01
   H  0.449955999E+02 -0.510842827E+01 -0.468478742E+01
     4
 # iter = 77000  time[fs]=77.00000
   C -0.921074579E+01 -0.523262160E+00 -0.132455030E+00
   C  0.904818591E+01  0.780922187E-01  0.183570634E+00
   H -0.454538083E+02  0.557614626E+01  0.417992494E+01
   H  0.453967606E+02 -0.515428867E+01 -0.472703946E+01
     4
 # iter = 77500  time[fs]=77.50000
   C -0.929762237E+01 -0.528149831E+00 -0.133904479E+00
   C  0.913292028E+01  0.795504424E-01  0.185633101E+00
   H -0.458536642E+02  0.562563876E+01  0.421692725E+01
   H  0.457980097E+02 -0.520016051E+01 -0.476930230E+01
     4
 # iter = 78000  time[fs]=78.00000
   C -0.938453532E+01 -0.533039219E+00 -0.135354875E+00
   C  0.921769007E+01  0.810104443E-01  0.187696768E+00
   H -0.462535955E+02  0.567514178E+01  0.425393711E+01
   H  0.461993456E+02 -0.524604360E+01 -0.481157573E+01
     4
 # iter = 78500  time[fs]=78.50000
   C -0.947148396E+01 -0.537930295E+00 -0.136806201E+00
   C  0.930249461E+01  0.824721942E-01  0.189761616E+00
   H -0.466536009E+02  0.572465514E+01  0.429095440E+01
   H  0.466007669E+02 -0.529193776E+01 -0.485385958E+01
     4
 # iter = 79000  time[fs]=79.00000
   C -0.955846765E+01 -0.542823029E+00 -0.138258442E+00
   C  0.938733327E+01  0.839356626E-01  0.191827623E+00
   H -0.470536791E+02  0.577417868E+01  0.432797900E+01
   H  0.470022720E+02 -0.533784281E+01 -0.489615368E+01
     4
 # iter = 79500  time[fs]=79.50000
   C -0.964548574E+01 -0.547717396E+00 -0.139711584E+00
   C  0.947220543E+01  0.854008207E-01  0.193894773E+00
   H -0.474538289E+02  0.582371221E+01  0.436501077E+01
   H  0.474038597E+02 -0.538375855E+01 -0.493845786E+01
     4
 # iter = 80000  time[fs]=80.00000
   C -0.973253761E+01 -0.552613366E+00 -0.141165611E+00
   C  0.955711048E+01  0.868676404E-01  0.195963045E+00
   H -0.478540492E+02  0.587325557E+01  0.440204961E+01
   H  0.478055284E+02 -0.542968481E+01 -0.498077194E+01
