     4
 # iter = 25000  time[fs]=25.00000
   C -0.100180077E+01  0.556797673E-02  0.317610179E-02
   C  0.100625768E+01  0.505638045E-01 -0.898392978E-02
   H -0.522972191E+01 -0.195465833E+00  0.688668262E+00
   H  0.532134835E+01 -0.367016201E+00 -0.807089301E+00
     4
 # iter = 25500  time[fs]=25.50000
   C -0.105051294E+01  0.465081423E-02  0.479273575E-05
   C  0.104942993E+01  0.511663087E-01 -0.697053230E-02
   H -0.557403661E+01 -0.216581650E+00  0.725077566E+00
   H  0.562994556E+01 -0.400305126E+00 -0.863795573E+00
     4
 # iter = 26000  time[fs]=26.00000
   C -0.110314824E+01  0.272770926E-02 -0.414410863E-02
   C  0.109457098E+01  0.508663676E-01 -0.593547140E-02
   H -0.592922819E+01 -0.243336329E+00  0.756869622E+00
   H  0.593848223E+01 -0.439444008E+00 -0.926802922E+00
     4
 # iter = 26500  time[fs]=26.50000
   C -0.115660073E+01  0.265972104E-02 -0.641789139E-02
   C  0.114442055E+01  0.526497713E-01 -0.287839452E-02
   H -0.627856725E+01 -0.259619103E+00  0.800033007E+00
   H  0.626248995E+01 -0.468296758E+00 -0.979927640E+00
     4
 # iter = 27000  time[fs]=27.00000
   C -0.121049596E+01  0.459201567E-02 -0.667856564E-02
   C  0.119889060E+01  0.566556275E-01  0.235179624E-02
   H -0.662072817E+01 -0.264611337E+00  0.855286818E+00
   H  0.660227203E+01 -0.486027586E+00 -0.102229217E+01
     4
 # iter = 27500  time[fs]=27.50000
   C -0.126674362E+01  0.640265098E-02 -0.705413183E-02
   C  0.125553617E+01  0.606468867E-01  0.752785372E-02
   H -0.696724005E+01 -0.270260588E+00  0.910601760E+00
   H  0.694542022E+01 -0.504573833E+00 -0.106579703E+01
     4
 # iter = 28000  time[fs]=28.00000
   C -0.132665082E+01  0.659094682E-02 -0.905012681E-02
   C  0.131258329E+01  0.630392901E-01  0.110735857E-01
   H -0.732619273E+01 -0.285017263E+00  0.957457220E+00
   H  0.728308773E+01 -0.532375982E+00 -0.111885104E+01
     4
 # iter = 28500  time[fs]=28.50000
   C -0.138943225E+01  0.576736299E-02 -0.120598248E-01
   C  0.137049010E+01  0.644637076E-01  0.136265352E-01
   H -0.769382938E+01 -0.305444360E+00  0.999228019E+00
   H  0.761837925E+01 -0.565983652E+00 -0.117797688E+01
     4
 # iter = 29000  time[fs]=29.00000
   C -0.145343688E+01  0.542514303E-02 -0.145928415E-01
   C  0.143065786E+01  0.664778187E-01  0.167498702E-01
   H -0.806146041E+01 -0.323134207E+00  0.104426708E+01
   H  0.795941819E+01 -0.596975061E+00 -0.123472959E+01
     4
 # iter = 29500  time[fs]=29.50000
   C -0.151800487E+01  0.608143424E-02 -0.161342613E-01
   C  0.149348050E+01  0.696165464E-01  0.209829785E-01
   H -0.842593171E+01 -0.335176772E+00  0.109543714E+01
   H  0.830886095E+01 -0.622429706E+00 -0.128616816E+01
     4
 # iter = 30000  time[fs]=30.00000
   C -0.158372693E+01  0.701654588E-02 -0.174055165E-01
   C  0.155806976E+01  0.731185070E-01  0.255680888E-01
   H -0.879108841E+01 -0.345627934E+00  0.114864155E+01
   H  0.866242169E+01 -0.646397079E+00 -0.133632377E+01
     4
 # iter = 30500  time[fs]=30.50000
   C -0.165128999E+01  0.742722069E-02 -0.192111752E-01
   C  0.162346312E+01  0.761353904E-01  0.296598253E-01
   H -0.916127171E+01 -0.359013950E+00  0.119931830E+01
   H  0.901536930E+01 -0.673398053E+00 -0.138970100E+01
     4
 # iter = 31000  time[fs]=31.00000
   C -0.172059893E+01  0.730392949E-02 -0.215617011E-01
   C  0.168954235E+01  0.786519259E-01  0.332453137E-01
   H -0.953637180E+01 -0.375390254E+00  0.124738003E+01
   H  0.936746930E+01 -0.703481312E+00 -0.144633418E+01
     4
 # iter = 31500  time[fs]=31.50000
   C -0.179103278E+01  0.717338766E-02 -0.239310136E-01
   C  0.175676228E+01  0.812157735E-01  0.368741716E-01
   H -0.991327552E+01 -0.391791810E+00  0.129576316E+01
   H  0.972152941E+01 -0.733674331E+00 -0.150323803E+01
     4
 # iter = 32000  time[fs]=32.00000
   C -0.186217952E+01  0.736257512E-02 -0.259925455E-01
   C  0.182537781E+01  0.841656073E-01  0.408866624E-01
   H -0.102900106E+02 -0.406378616E+00  0.134628216E+01
   H  0.100792482E+02 -0.762130756E+00 -0.155855478E+01
     4
 # iter = 32500  time[fs]=32.50000
   C -0.193409896E+01  0.773480095E-02 -0.278832345E-01
   C  0.189516621E+01  0.873542584E-01  0.451369008E-01
   H -0.106672309E+02 -0.419922313E+00  0.139814262E+01
   H  0.104397250E+02 -0.789617639E+00 -0.161304115E+01
     4
 # iter = 33000  time[fs]=33.00000
   C -0.200700486E+01  0.800671522E-02 -0.298865434E-01
   C  0.196575856E+01  0.904811291E-01  0.493253248E-01
   H -0.110464282E+02 -0.434020448E+00  0.144972659E+01
   H  0.108012453E+02 -0.817728760E+00 -0.166828160E+01
     4
 # iter = 33500  time[fs]=33.50000
   C -0.208091645E+01  0.809606800E-02 -0.320847248E-01
   C  0.203700360E+01  0.934568592E-01  0.533634105E-01
   H -0.114279716E+02 -0.449137589E+00  0.150055106E+01
   H  0.111632393E+02 -0.846924754E+00 -0.172472833E+01
     4
 # iter = 34000  time[fs]=34.00000
   C -0.215565423E+01  0.812518907E-02 -0.343553645E-01
   C  0.210897069E+01  0.964069363E-01  0.573773194E-01
   H -0.118110865E+02 -0.464585777E+00  0.155128725E+01
   H  0.115263001E+02 -0.876513514E+00 -0.178168159E+01
     4
 # iter = 34500  time[fs]=34.50000
   C -0.223104671E+01  0.821361936E-02 -0.365787727E-01
   C  0.218173164E+01  0.994541850E-01  0.614904154E-01
   H -0.121950219E+02 -0.479692673E+00  0.160259230E+01
   H  0.118910139E+02 -0.905818890E+00 -0.183845827E+01
     4
 # iter = 35000  time[fs]=35.00000
   C -0.230704776E+01  0.836019947E-02 -0.387559128E-01
   C  0.225523652E+01  0.102595078E+00  0.656995995E-01
   H -0.125797137E+02 -0.494465771E+00  0.165444487E+01
   H  0.122572942E+02 -0.934845178E+00 -0.189505634E+01
     4
 # iter = 35500  time[fs]=35.50000
   C -0.238368136E+01  0.849778545E-02 -0.409536984E-01
   C  0.232937048E+01  0.105757095E+00  0.699326869E-01
   H -0.129654758E+02 -0.509284161E+00  0.170645326E+01
   H  0.126246894E+02 -0.963968709E+00 -0.195184630E+01
     4
 # iter = 36000  time[fs]=36.00000
   C -0.246094438E+01  0.859009763E-02 -0.432081527E-01
   C  0.240405492E+01  0.108900268E+00  0.741499716E-01
   H -0.133524537E+02 -0.524352965E+00  0.175840079E+01
   H  0.129929281E+02 -0.993391982E+00 -0.200902533E+01
     4
 # iter = 36500  time[fs]=36.50000
   C -0.253878399E+01  0.865387095E-02 -0.455022661E-01
   C  0.247927028E+01  0.112040393E+00  0.783674504E-01
   H -0.137404989E+02 -0.539578579E+00  0.181037048E+01
   H  0.133620429E+02 -0.102301882E+01 -0.206649233E+01
     4
 # iter = 37000  time[fs]=37.00000
   C -0.261713825E+01  0.871799794E-02 -0.478068593E-01
   C  0.255501284E+01  0.115206165E+00  0.826139674E-01
   H -0.141293991E+02 -0.554798841E+00  0.186251473E+01
   H  0.137321402E+02 -0.105268465E+01 -0.212407824E+01
     4
 # iter = 37500  time[fs]=37.50000
   C -0.269596929E+01  0.878996076E-02 -0.501141567E-01
   C  0.263125924E+01  0.118403956E+00  0.868960031E-01
   H -0.145190662E+02 -0.569972141E+00  0.191486615E+01
   H  0.141032099E+02 -0.108234567E+01 -0.218173507E+01
     4
 # iter = 38000  time[fs]=38.00000
   C -0.277525939E+01  0.885953385E-02 -0.524340877E-01
   C  0.270797004E+01  0.121621685E+00  0.912015515E-01
   H -0.149095155E+02 -0.585156566E+00  0.196735838E+01
   H  0.144751460E+02 -0.111205798E+01 -0.223951508E+01
     4
 # iter = 38500  time[fs]=38.50000
   C -0.285499158E+01  0.891794622E-02 -0.547751272E-01
   C  0.278510959E+01  0.124848906E+00  0.955202112E-01
   H -0.153007574E+02 -0.600401956E+00  0.201993390E+01
   H  0.148478544E+02 -0.114186957E+01 -0.229746268E+01
     4
 # iter = 39000  time[fs]=39.00000
   C -0.293514138E+01  0.896592730E-02 -0.571362519E-01
   C  0.286265426E+01  0.128085231E+00  0.998516180E-01
   H -0.156927515E+02 -0.615704582E+00  0.207258930E+01
   H  0.152212978E+02 -0.117177495E+01 -0.235556907E+01
     4
 # iter = 39500  time[fs]=39.50000
   C -0.301568190E+01  0.900838039E-02 -0.595122687E-01
   C  0.294058664E+01  0.131334737E+00  0.104199853E+00
   H -0.160854365E+02 -0.631037162E+00  0.212534527E+01
   H  0.155954652E+02 -0.120174520E+01 -0.241380224E+01
     4
 # iter = 40000  time[fs]=40.00000
   C -0.309659032E+01  0.904779678E-02 -0.619004022E-01
   C  0.301888848E+01  0.134599052E+00  0.108566533E+00
   H -0.164787670E+02 -0.646385966E+00  0.217820939E+01
   H  0.159703351E+02 -0.123176504E+01 -0.247214405E+01
     4
 # iter = 40500  time[fs]=40.50000
   C -0.317784850E+01  0.908347546E-02 -0.643010756E-01
   C  0.309753970E+01  0.137876526E+00  0.112949984E+00
   H -0.168727179E+02 -0.661755214E+00  0.223117170E+01
   H  0.163458698E+02 -0.126183728E+01 -0.253059461E+01
     4
 # iter = 41000  time[fs]=41.00000
   C -0.325944013E+01  0.911419556E-02 -0.667152390E-01
   C  0.317652107E+01  0.141165029E+00  0.117348042E+00
   H -0.172672688E+02 -0.677152027E+00  0.228421974E+01
   H  0.167220315E+02 -0.129196767E+01 -0.258915718E+01
     4
 # iter = 41500  time[fs]=41.50000
   C -0.334134901E+01  0.913988936E-02 -0.691426974E-01
   C  0.325581582E+01  0.144463701E+00  0.121759807E+00
   H -0.176623946E+02 -0.692577000E+00  0.233734791E+01
   H  0.170987906E+02 -0.132215557E+01 -0.264782877E+01
     4
 # iter = 42000  time[fs]=42.00000
   C -0.342355927E+01  0.916126741E-02 -0.715824851E-01
   C  0.333540915E+01  0.147772551E+00  0.126185239E+00
   H -0.180580675E+02 -0.708026323E+00  0.239055534E+01
   H  0.174761239E+02 -0.135239596E+01 -0.270660218E+01
     4
 # iter = 42500  time[fs]=42.50000
   C -0.350605619E+01  0.917890751E-02 -0.740337775E-01
   C  0.341528719E+01  0.151091499E+00  0.130624204E+00
   H -0.184542621E+02 -0.723496912E+00  0.244384074E+01
   H  0.178540090E+02 -0.138268465E+01 -0.276547114E+01
     4
 # iter = 43000  time[fs]=43.00000
   C -0.358882641E+01  0.919298101E-02 -0.764961647E-01
   C  0.349543659E+01  0.154420084E+00  0.135076186E+00
   H -0.188509563E+02 -0.738987953E+00  0.249720080E+01
   H  0.182324228E+02 -0.141301977E+01 -0.282443186E+01
     4
 # iter = 43500  time[fs]=43.50000
   C -0.367185756E+01  0.920350727E-02 -0.789693969E-01
   C  0.357584475E+01  0.157757727E+00  0.139540544E+00
   H -0.192481305E+02 -0.754499471E+00  0.255063164E+01
   H  0.186113431E+02 -0.144340035E+01 -0.288348154E+01
     4
 # iter = 44000  time[fs]=44.00000
   C -0.375513801E+01  0.921058681E-02 -0.814531513E-01
   C  0.365649994E+01  0.161103971E+00  0.144016761E+00
   H -0.196457656E+02 -0.770031022E+00  0.260413004E+01
   H  0.189907491E+02 -0.147382500E+01 -0.294261708E+01
     4
 # iter = 44500  time[fs]=44.50000
   C -0.383865673E+01  0.921440781E-02 -0.839470254E-01
   C  0.373739127E+01  0.164458488E+00  0.148504446E+00
   H -0.200438431E+02 -0.785581650E+00  0.265769356E+01
   H  0.193706220E+02 -0.150429188E+01 -0.300183504E+01
     4
 # iter = 45000  time[fs]=45.00000
   C -0.392240340E+01  0.921515784E-02 -0.864506251E-01
   C  0.381850857E+01  0.167820981E+00  0.153003235E+00
   H -0.204423456E+02 -0.801150393E+00  0.271131990E+01
   H  0.197509439E+02 -0.153479919E+01 -0.306113207E+01
     4
 # iter = 45500  time[fs]=45.50000
   C -0.400636833E+01  0.921298186E-02 -0.889636067E-01
   C  0.389984222E+01  0.171191136E+00  0.157512753E+00
   H -0.208412567E+02 -0.816736518E+00  0.276500676E+01
   H  0.201316980E+02 -0.156534541E+01 -0.312050521E+01
     4
 # iter = 46000  time[fs]=46.00000
   C -0.409054243E+01  0.920799753E-02 -0.914856609E-01
   C  0.398138317E+01  0.174568642E+00  0.162032622E+00
   H -0.212405612E+02 -0.832339434E+00  0.281875184E+01
   H  0.205128680E+02 -0.159592917E+01 -0.317995176E+01
     4
 # iter = 46500  time[fs]=46.50000
   C -0.417491716E+01  0.920031840E-02 -0.940164899E-01
   C  0.406312291E+01  0.177953204E+00  0.166562483E+00
   H -0.216402445E+02 -0.847958567E+00  0.287255300E+01
   H  0.208944388E+02 -0.162654921E+01 -0.323946913E+01
     4
 # iter = 47000  time[fs]=47.00000
   C -0.425948445E+01  0.919005909E-02 -0.965558016E-01
   C  0.414505343E+01  0.181344556E+00  0.171102006E+00
   H -0.220402930E+02 -0.863593328E+00  0.292640822E+01
   H  0.212763960E+02 -0.165720423E+01 -0.329905484E+01
     4
 # iter = 47500  time[fs]=47.50000
   C -0.434423669E+01  0.917732985E-02 -0.991033152E-01
   C  0.422716718E+01  0.184742447E+00  0.175650877E+00
   H -0.224406935E+02 -0.879243144E+00  0.298031565E+01
   H  0.216587258E+02 -0.168789304E+01 -0.335870649E+01
     4
 # iter = 48000  time[fs]=48.00000
   C -0.442916669E+01  0.916223281E-02 -0.101658764E+00
   C  0.430945703E+01  0.188146638E+00  0.180208794E+00
   H -0.228414338E+02 -0.894907483E+00  0.303427348E+01
   H  0.220414155E+02 -0.171861447E+01 -0.341842186E+01
     4
 # iter = 48500  time[fs]=48.50000
   C -0.451426768E+01  0.914486271E-02 -0.104221896E+00
   C  0.439191624E+01  0.191556901E+00  0.184775468E+00
   H -0.232425021E+02 -0.910585849E+00  0.308828002E+01
   H  0.224244527E+02 -0.174936744E+01 -0.347819880E+01
     4
 # iter = 49000  time[fs]=49.00000
   C -0.459953323E+01  0.912530884E-02 -0.106792468E+00
   C  0.447453843E+01  0.194973020E+00  0.189350623E+00
   H -0.236438873E+02 -0.926277770E+00  0.314233362E+01
   H  0.228078257E+02 -0.178015094E+01 -0.353803530E+01
     4
 # iter = 49500  time[fs]=49.50000
   C -0.468495727E+01  0.910365600E-02 -0.109370250E+00
   C  0.455731757E+01  0.198394790E+00  0.193933995E+00
   H -0.240455788E+02 -0.941982796E+00  0.319643276E+01
   H  0.231915235E+02 -0.181096396E+01 -0.359792942E+01
     4
 # iter = 50000  time[fs]=50.00000
   C -0.477053404E+01  0.907998455E-02 -0.111955021E+00
   C  0.464024796E+01  0.201822019E+00  0.198525333E+00
   H -0.244475665E+02 -0.957700497E+00  0.325057596E+01
   H  0.235755354E+02 -0.184180559E+01 -0.365787933E+01
     4
 # iter = 50500  time[fs]=50.50000
   C -0.485625808E+01  0.905437051E-02 -0.114546568E+00
   C  0.472332417E+01  0.205254520E+00  0.203124395E+00
   H -0.248498410E+02 -0.973430463E+00  0.330476183E+01
   H  0.239598513E+02 -0.187267491E+01 -0.371788328E+01
     4
 # iter = 51000  time[fs]=51.00000
   C -0.494212422E+01  0.902688575E-02 -0.117144689E+00
   C  0.480654106E+01  0.208692120E+00  0.207730951E+00
   H -0.252523930E+02 -0.989172307E+00  0.335898902E+01
   H  0.243444618E+02 -0.190357109E+01 -0.377793959E+01
     4
 # iter = 51500  time[fs]=51.50000
   C -0.502812752E+01  0.899759837E-02 -0.119749190E+00
   C  0.488989375E+01  0.212134651E+00  0.212344779E+00
   H -0.256552138E+02 -0.100492566E+01  0.341325628E+01
   H  0.247293575E+02 -0.193449330E+01 -0.383804667E+01
     4
 # iter = 52000  time[fs]=52.00000
   C -0.511426332E+01  0.896657301E-02 -0.122359885E+00
   C  0.497337759E+01  0.215581954E+00  0.216965668E+00
   H -0.260582952E+02 -0.102069016E+01  0.346756237E+01
   H  0.251145299E+02 -0.196544077E+01 -0.389820300E+01
     4
 # iter = 52500  time[fs]=52.50000
   C -0.520052716E+01  0.893387102E-02 -0.124976596E+00
   C  0.505698818E+01  0.219033878E+00  0.221593415E+00
   H -0.264616291E+02 -0.103646547E+01  0.352190614E+01
   H  0.254999704E+02 -0.199641276E+01 -0.395840711E+01
     4
 # iter = 53000  time[fs]=53.00000
   C -0.528691482E+01  0.889955068E-02 -0.127599152E+00
   C  0.514072131E+01  0.222490277E+00  0.226227825E+00
   H -0.268652081E+02 -0.105225128E+01  0.357628648E+01
   H  0.258856712E+02 -0.202740854E+01 -0.401865761E+01
     4
 # iter = 53500  time[fs]=53.50000
   C -0.537342224E+01  0.886366741E-02 -0.130227388E+00
   C  0.522457298E+01  0.225951015E+00  0.230868712E+00
   H -0.272690249E+02 -0.106804726E+01  0.363070233E+01
   H  0.262716246E+02 -0.205842745E+01 -0.407895317E+01
     4
 # iter = 54000  time[fs]=54.00000
   C -0.546004559E+01  0.882627394E-02 -0.132861147E+00
   C  0.530853937E+01  0.229415959E+00  0.235515896E+00
   H -0.276730726E+02 -0.108385313E+01  0.368515267E+01
   H  0.266578232E+02 -0.208946883E+01 -0.413929251E+01
     4
 # iter = 54500  time[fs]=54.50000
   C -0.554678120E+01  0.878742047E-02 -0.135500278E+00
   C  0.539261685E+01  0.232884983E+00  0.240169205E+00
   H -0.280773444E+02 -0.109966860E+01  0.373963652E+01
   H  0.270442602E+02 -0.212053204E+01 -0.419967440E+01
     4
 # iter = 55000  time[fs]=55.00000
   C -0.563362557E+01  0.874715482E-02 -0.138144636E+00
   C  0.547680194E+01  0.236357967E+00  0.244828474E+00
   H -0.284818341E+02 -0.111549341E+01  0.379415295E+01
   H  0.274309287E+02 -0.215161650E+01 -0.426009768E+01
     4
 # iter = 55500  time[fs]=55.50000
   C -0.572057534E+01  0.870552259E-02 -0.140794080E+00
   C  0.556109132E+01  0.239834796E+00  0.249493544E+00
   H -0.288865356E+02 -0.113132728E+01  0.384870106E+01
   H  0.278178224E+02 -0.218272162E+01 -0.432056120E+01
     4
 # iter = 56000  time[fs]=56.00000
   C -0.580762732E+01  0.866256730E-02 -0.143448478E+00
   C  0.564548183E+01  0.243315359E+00  0.254164262E+00
   H -0.292914430E+02 -0.114716998E+01  0.390328001E+01
   H  0.282049350E+02 -0.221384686E+01 -0.438106389E+01
     4
 # iter = 56500  time[fs]=56.50000
   C -0.589477846E+01  0.861833048E-02 -0.146107698E+00
   C  0.572997043E+01  0.246799550E+00  0.258840480E+00
   H -0.296965507E+02 -0.116302125E+01  0.395788895E+01
   H  0.285922607E+02 -0.224499167E+01 -0.444160471E+01
     4
 # iter = 57000  time[fs]=57.00000
   C -0.598202583E+01  0.857285180E-02 -0.148771617E+00
   C  0.581455422E+01  0.250287269E+00  0.263522057E+00
   H -0.301018533E+02 -0.117888089E+01  0.401252709E+01
   H  0.289797937E+02 -0.227615555E+01 -0.450218266E+01
     4
 # iter = 57500  time[fs]=57.50000
   C -0.606936661E+01  0.852616919E-02 -0.151440115E+00
   C  0.589923042E+01  0.253778417E+00  0.268208857E+00
   H -0.305073457E+02 -0.119474865E+01  0.406719369E+01
   H  0.293675286E+02 -0.230733802E+01 -0.456279678E+01
     4
 # iter = 58000  time[fs]=58.00000
   C -0.615679814E+01  0.847831891E-02 -0.154113076E+00
   C  0.598399638E+01  0.257272901E+00  0.272900748E+00
   H -0.309130228E+02 -0.121062433E+01  0.412188799E+01
   H  0.297554601E+02 -0.233853858E+01 -0.462344614E+01
     4
 # iter = 58500  time[fs]=58.50000
   C -0.624431783E+01  0.842933569E-02 -0.156790390E+00
   C  0.606884953E+01  0.260770632E+00  0.277597603E+00
   H -0.313188800E+02 -0.122650773E+01  0.417660930E+01
   H  0.301435833E+02 -0.236975680E+01 -0.468412986E+01
     4
 # iter = 59000  time[fs]=59.00000
   C -0.633192322E+01  0.837925274E-02 -0.159471948E+00
   C  0.615378744E+01  0.264271524E+00  0.282299302E+00
   H -0.317249126E+02 -0.124239864E+01  0.423135694E+01
   H  0.305318931E+02 -0.240099223E+01 -0.474484708E+01
     4
 # iter = 59500  time[fs]=59.50000
   C -0.641961194E+01  0.832810193E-02 -0.162157648E+00
   C  0.623880777E+01  0.267775494E+00  0.287005725E+00
   H -0.321311161E+02 -0.125829689E+01  0.428613025E+01
   H  0.309203850E+02 -0.243224445E+01 -0.480559698E+01
     4
 # iter = 60000  time[fs]=60.00000
   C -0.650738172E+01  0.827591376E-02 -0.164847390E+00
   C  0.632390824E+01  0.271282462E+00  0.291716759E+00
   H -0.325374864E+02 -0.127420228E+01  0.434092861E+01
   H  0.313090543E+02 -0.246351306E+01 -0.486637875E+01
     4
 # iter = 60500  time[fs]=60.50000
   C -0.659523037E+01  0.822271751E-02 -0.167541078E+00
   C  0.640908671E+01  0.274792352E+00  0.296432295E+00
   H -0.329440193E+02 -0.129011465E+01  0.439575141E+01
   H  0.316978969E+02 -0.249479765E+01 -0.492719164E+01
     4
 # iter = 61000  time[fs]=61.00000
   C -0.668315579E+01  0.816854128E-02 -0.170238618E+00
   C  0.649434109E+01  0.278305089E+00  0.301152227E+00
   H -0.333507108E+02 -0.130603382E+01  0.445059806E+01
   H  0.320869084E+02 -0.252609786E+01 -0.498803489E+01
     4
 # iter = 61500  time[fs]=61.50000
   C -0.677115596E+01  0.811341202E-02 -0.172939920E+00
   C  0.657966939E+01  0.281820604E+00  0.305876452E+00
   H -0.337575572E+02 -0.132195963E+01  0.450546800E+01
   H  0.324760848E+02 -0.255741331E+01 -0.504890781E+01
     4
 # iter = 62000  time[fs]=62.00000
   C -0.685922895E+01  0.805735565E-02 -0.175644898E+00
   C  0.666506967E+01  0.285338827E+00  0.310604872E+00
   H -0.341645547E+02 -0.133789193E+01  0.456036068E+01
   H  0.328654223E+02 -0.258874365E+01 -0.510980970E+01
     4
 # iter = 62500  time[fs]=62.50000
   C -0.694737288E+01  0.800039705E-02 -0.178353469E+00
   C  0.675054010E+01  0.288859693E+00  0.315337392E+00
   H -0.345716998E+02 -0.135383055E+01  0.461527558E+01
   H  0.332549170E+02 -0.262008855E+01 -0.517073989E+01
     4
 # iter = 63000  time[fs]=63.00000
   C -0.703558595E+01  0.794256016E-02 -0.181065550E+00
   C  0.683607888E+01  0.292383138E+00  0.320073918E+00
   H -0.349789891E+02 -0.136977537E+01  0.467021219E+01
   H  0.336445654E+02 -0.265144767E+01 -0.523169774E+01
     4
 # iter = 63500  time[fs]=63.50000
   C -0.712386644E+01  0.788386800E-02 -0.183781063E+00
   C  0.692168430E+01  0.295909100E+00  0.324814361E+00
   H -0.353864193E+02 -0.138572622E+01  0.472517002E+01
   H  0.340343639E+02 -0.268282070E+01 -0.529268264E+01
     4
 # iter = 64000  time[fs]=64.00000
   C -0.721221267E+01  0.782434272E-02 -0.186499933E+00
   C  0.700735471E+01  0.299437521E+00  0.329558636E+00
   H -0.357939871E+02 -0.140168298E+01  0.478014859E+01
   H  0.344243091E+02 -0.271420733E+01 -0.535369397E+01
     4
 # iter = 64500  time[fs]=64.50000
   C -0.730062303E+01  0.776400564E-02 -0.189222085E+00
   C  0.709308851E+01  0.302968343E+00  0.334306658E+00
   H -0.362016895E+02 -0.141764552E+01  0.483514744E+01
   H  0.348143977E+02 -0.274560725E+01 -0.541473116E+01
     4
 # iter = 65000  time[fs]=65.00000
   C -0.738909598E+01  0.770287732E-02 -0.191947450E+00
   C  0.717888416E+01  0.306501511E+00  0.339058346E+00
   H -0.366095235E+02 -0.143361371E+01  0.489016613E+01
   H  0.352046266E+02 -0.277702018E+01 -0.547579365E+01
     4
 # iter = 65500  time[fs]=65.50000
   C -0.747763000E+01  0.764097754E-02 -0.194675957E+00
   C  0.726474019E+01  0.310036972E+00  0.343813623E+00
   H -0.370174862E+02 -0.144958741E+01  0.494520424E+01
   H  0.355949928E+02 -0.280844585E+01 -0.553688088E+01
     4
 # iter = 66000  time[fs]=66.00000
   C -0.756622366E+01  0.757832539E-02 -0.197407541E+00
   C  0.735065516E+01  0.313574675E+00  0.348572411E+00
   H -0.374255747E+02 -0.146556652E+01  0.500026134E+01
   H  0.359854931E+02 -0.283988398E+01 -0.559799235E+01
     4
 # iter = 66500  time[fs]=66.50000
   C -0.765487555E+01  0.751493926E-02 -0.200142136E+00
   C  0.743662769E+01  0.317114568E+00  0.353334638E+00
   H -0.378337864E+02 -0.148155092E+01  0.505533703E+01
   H  0.363761248E+02 -0.287133430E+01 -0.565912752E+01
     4
 # iter = 67000  time[fs]=67.00000
   C -0.774358434E+01  0.745083692E-02 -0.202879679E+00
   C  0.752265644E+01  0.320656604E+00  0.358100231E+00
   H -0.382421187E+02 -0.149754050E+01  0.511043092E+01
   H  0.367668850E+02 -0.290279658E+01 -0.572028592E+01
     4
 # iter = 67500  time[fs]=67.50000
   C -0.783234872E+01  0.738603548E-02 -0.205620111E+00
   C  0.760874012E+01  0.324200737E+00  0.362869122E+00
   H -0.386505689E+02 -0.151353514E+01  0.516554264E+01
   H  0.371577711E+02 -0.293427055E+01 -0.578146705E+01
     4
 # iter = 68000  time[fs]=68.00000
   C -0.792116742E+01  0.732055149E-02 -0.208363372E+00
   C  0.769487749E+01  0.327746921E+00  0.367641244E+00
   H -0.390591347E+02 -0.152953474E+01  0.522067181E+01
   H  0.375487804E+02 -0.296575599E+01 -0.584267046E+01
     4
 # iter = 68500  time[fs]=68.50000
   C -0.801003923E+01  0.725440092E-02 -0.211109404E+00
   C  0.778106733E+01  0.331295113E+00  0.372416531E+00
   H -0.394678137E+02 -0.154553920E+01  0.527581808E+01
   H  0.379399105E+02 -0.299725266E+01 -0.590389569E+01
     4
 # iter = 69000  time[fs]=69.00000
   C -0.809896297E+01  0.718759922E-02 -0.213858152E+00
   C  0.786730849E+01  0.334845269E+00  0.377194919E+00
   H -0.398766035E+02 -0.156154842E+01  0.533098112E+01
   H  0.383311588E+02 -0.302876033E+01 -0.596514231E+01
     4
 # iter = 69500  time[fs]=69.50000
   C -0.818793749E+01  0.712016130E-02 -0.216609563E+00
   C  0.795359983E+01  0.338397350E+00  0.381976349E+00
   H -0.402855019E+02 -0.157756231E+01  0.538616057E+01
   H  0.387225230E+02 -0.306027880E+01 -0.602640989E+01
     4
 # iter = 70000  time[fs]=70.00000
   C -0.827696171E+01  0.705210159E-02 -0.219363584E+00
   C  0.803994026E+01  0.341951314E+00  0.386760759E+00
   H -0.406945067E+02 -0.159358077E+01  0.544135612E+01
   H  0.391140007E+02 -0.309180784E+01 -0.608769803E+01
     4
 # iter = 70500  time[fs]=70.50000
   C -0.836603454E+01  0.698343404E-02 -0.222120163E+00
   C  0.812632873E+01  0.345507124E+00  0.391548092E+00
   H -0.411036159E+02 -0.160960371E+01  0.549656746E+01
   H  0.395055897E+02 -0.312334725E+01 -0.614900631E+01
     4
 # iter = 71000  time[fs]=71.00000
   C -0.845515495E+01  0.691417214E-02 -0.224879253E+00
   C  0.821276421E+01  0.349064743E+00  0.396338292E+00
   H -0.415128273E+02 -0.162563104E+01  0.555179427E+01
   H  0.398972878E+02 -0.315489684E+01 -0.621033435E+01
     4
 # iter = 71500  time[fs]=71.50000
   C -0.854432194E+01  0.684432897E-02 -0.227640804E+00
   C  0.829924570E+01  0.352624133E+00  0.401131304E+00
   H -0.419221389E+02 -0.164166268E+01  0.560703626E+01
   H  0.402890930E+02 -0.318645640E+01 -0.627168178E+01
     4
 # iter = 72000  time[fs]=72.00000
   C -0.863353453E+01  0.677391717E-02 -0.230404770E+00
   C  0.838577224E+01  0.356185260E+00  0.405927075E+00
   H -0.423315489E+02 -0.165769854E+01  0.566229315E+01
   H  0.406810030E+02 -0.321802576E+01 -0.633304822E+01
     4
 # iter = 72500  time[fs]=72.50000
   C -0.872279178E+01  0.670294899E-02 -0.233171106E+00
   C  0.847234290E+01  0.359748089E+00  0.410725553E+00
   H -0.427410553E+02 -0.167373855E+01  0.571756464E+01
   H  0.410730161E+02 -0.324960472E+01 -0.639443333E+01
     4
 # iter = 73000  time[fs]=73.00000
   C -0.881209279E+01  0.663143631E-02 -0.235939767E+00
   C  0.855895678E+01  0.363312587E+00  0.415526688E+00
   H -0.431506563E+02 -0.168978262E+01  0.577285047E+01
   H  0.414651301E+02 -0.328119311E+01 -0.645583675E+01
     4
 # iter = 73500  time[fs]=73.50000
   C -0.890143665E+01  0.655939062E-02 -0.238710711E+00
   C  0.864561300E+01  0.366878723E+00  0.420330431E+00
   H -0.435603502E+02 -0.170583069E+01  0.582815037E+01
   H  0.418573433E+02 -0.331279076E+01 -0.651725815E+01
     4
 # iter = 74000  time[fs]=74.00000
   C -0.899082251E+01  0.648682308E-02 -0.241483896E+00
   C  0.873231070E+01  0.370446464E+00  0.425136735E+00
   H -0.439701352E+02 -0.172188267E+01  0.588346409E+01
   H  0.422496537E+02 -0.334439750E+01 -0.657869719E+01
     4
 # iter = 74500  time[fs]=74.50000
   C -0.908024954E+01  0.641374449E-02 -0.244259281E+00
   C  0.881904906E+01  0.374015780E+00  0.429945552E+00
   H -0.443800097E+02 -0.173793850E+01  0.593879137E+01
   H  0.426420596E+02 -0.337601316E+01 -0.664015357E+01
     4
 # iter = 75000  time[fs]=75.00000
   C -0.916971691E+01  0.634016534E-02 -0.247036826E+00
   C  0.890582728E+01  0.377586641E+00  0.434756839E+00
   H -0.447899719E+02 -0.175399810E+01  0.599413197E+01
   H  0.430345593E+02 -0.340763759E+01 -0.670162696E+01
     4
 # iter = 75500  time[fs]=75.50000
   C -0.925922386E+01  0.626609580E-02 -0.249816494E+00
   C  0.899264458E+01  0.381159020E+00  0.439570551E+00
   H -0.452000204E+02 -0.177006141E+01  0.604948565E+01
   H  0.434271510E+02 -0.343927063E+01 -0.676311707E+01
     4
 # iter = 76000  time[fs]=76.00000
   C -0.934876960E+01  0.619154576E-02 -0.252598247E+00
   C  0.907950020E+01  0.384732887E+00  0.444386645E+00
   H -0.456101535E+02 -0.178612835E+01  0.610485218E+01
   H  0.438198332E+02 -0.347091212E+01 -0.682462360E+01
     4
 # iter = 76500  time[fs]=76.50000
   C -0.943835339E+01  0.611652479E-02 -0.255382047E+00
   C  0.916639340E+01  0.388308215E+00  0.449205079E+00
   H -0.460203698E+02 -0.180219888E+01  0.616023133E+01
   H  0.442126041E+02 -0.350256193E+01 -0.688614627E+01
     4
 # iter = 77000  time[fs]=77.00000
   C -0.952797452E+01  0.604104219E-02 -0.258167860E+00
   C  0.925332347E+01  0.391884979E+00  0.454025814E+00
   H -0.464306679E+02 -0.181827292E+01  0.621562289E+01
   H  0.446054623E+02 -0.353421990E+01 -0.694768479E+01
     4
 # iter = 77500  time[fs]=77.50000
   C -0.961763228E+01  0.596510702E-02 -0.260955651E+00
   C  0.934028972E+01  0.395463152E+00  0.458848809E+00
   H -0.468410461E+02 -0.183435041E+01  0.627102664E+01
   H  0.449984063E+02 -0.356588590E+01 -0.700923890E+01
     4
 # iter = 78000  time[fs]=78.00000
   C -0.970732599E+01  0.588872806E-02 -0.263745386E+00
   C  0.942729146E+01  0.399042709E+00  0.463674027E+00
   H -0.472515033E+02 -0.185043129E+01  0.632644237E+01
   H  0.453914345E+02 -0.359755980E+01 -0.707080833E+01
     4
 # iter = 78500  time[fs]=78.50000
   C -0.979705497E+01  0.581191383E-02 -0.266537032E+00
   C  0.951432804E+01  0.402623625E+00  0.468501429E+00
   H -0.476620380E+02 -0.186651550E+01  0.638186988E+01
   H  0.457845455E+02 -0.362924145E+01 -0.713239282E+01
     4
 # iter = 79000  time[fs]=79.00000
   C -0.988681859E+01  0.573467263E-02 -0.269330556E+00
   C  0.960139883E+01  0.406205878E+00  0.473330978E+00
   H -0.480726488E+02 -0.188260300E+01  0.643730897E+01
   H  0.461777379E+02 -0.366093073E+01 -0.719399211E+01
     4
 # iter = 79500  time[fs]=79.50000
   C -0.997661621E+01  0.565701254E-02 -0.272125928E+00
   C  0.968850320E+01  0.409789443E+00  0.478162640E+00
   H -0.484833346E+02 -0.189869371E+01  0.649275944E+01
   H  0.465710103E+02 -0.369262751E+01 -0.725560596E+01
     4
 # iter = 80000  time[fs]=80.00000
   C -0.100664472E+02  0.557894139E-02 -0.274923118E+00
   C  0.977564053E+01  0.413374298E+00  0.482996378E+00
   H -0.488940941E+02 -0.191478760E+01  0.654822112E+01
   H  0.469643614E+02 -0.372433167E+01 -0.731723414E+01
