     4
 # iter = 25000  time[fs]=25.00000
   C -0.959212443E+00  0.306892054E-02  0.433883707E-01
   C  0.101048407E+01 -0.275604489E-01  0.493752447E-01
   H -0.529822240E+01  0.268166406E+00 -0.424348170E+00
   H  0.526584958E+01 -0.381188863E-01 -0.312644824E+00
     4
 # iter = 25500  time[fs]=25.50000
   C -0.100258651E+01  0.117280371E-02  0.457814264E-01
   C  0.104984901E+01 -0.298349605E-01  0.508470176E-01
   H -0.563636436E+01  0.276879768E+00 -0.458267957E+00
   H  0.557749945E+01 -0.486393502E-01 -0.341733664E+00
     4
 # iter = 26000  time[fs]=26.00000
   C -0.104967079E+01 -0.153220317E-02  0.473607347E-01
   C  0.109097715E+01 -0.332116606E-01  0.513144317E-01
   H -0.598493172E+01  0.280456099E+00 -0.498051434E+00
   H  0.588942704E+01 -0.646015847E-01 -0.376653283E+00
     4
 # iter = 26500  time[fs]=26.50000
   C -0.109773770E+01 -0.254566338E-02  0.506279416E-01
   C  0.113677847E+01 -0.345534532E-01  0.539028538E-01
   H -0.632726363E+01  0.294946763E+00 -0.527562205E+00
   H  0.621711629E+01 -0.699120980E-01 -0.401268984E+00
     4
 # iter = 27000  time[fs]=27.00000
   C -0.114645010E+01 -0.174696295E-02  0.557050352E-01
   C  0.118719970E+01 -0.337003702E-01  0.587620855E-01
   H -0.666209066E+01  0.321122228E+00 -0.545960687E+00
   H  0.656082740E+01 -0.637719219E-01 -0.414745404E+00
     4
 # iter = 27500  time[fs]=27.50000
   C -0.119747004E+01 -0.100189775E-02  0.607276196E-01
   C  0.123971747E+01 -0.329776162E-01  0.635581145E-01
   H -0.700098829E+01  0.346995824E+00 -0.565176959E+00
   H  0.690811309E+01 -0.581505061E-01 -0.429019689E+00
     4
 # iter = 28000  time[fs]=28.00000
   C -0.125193087E+01 -0.163117483E-02  0.643761908E-01
   C  0.129250447E+01 -0.340296312E-01  0.666389213E-01
   H -0.735208466E+01  0.364083383E+00 -0.593646341E+00
   H  0.725009485E+01 -0.615161212E-01 -0.452532446E+00
     4
 # iter = 28500  time[fs]=28.50000
   C -0.130913252E+01 -0.310468731E-02  0.671817834E-01
   C  0.134606243E+01 -0.361869823E-01  0.686674356E-01
   H -0.771165465E+01  0.375791324E+00 -0.627918709E+00
   H  0.758985347E+01 -0.704422986E-01 -0.481834002E+00
     4
 # iter = 29000  time[fs]=29.00000
   C -0.136761645E+01 -0.411809787E-02  0.704494575E-01
   C  0.140187521E+01 -0.378127412E-01  0.712749809E-01
   H -0.807103507E+01  0.390500010E+00 -0.659574948E+00
   H  0.793549365E+01 -0.765280306E-01 -0.508503514E+00
     4
 # iter = 29500  time[fs]=29.50000
   C -0.142679264E+01 -0.422199056E-02  0.746292376E-01
   C  0.146037047E+01 -0.383400299E-01  0.750235688E-01
   H -0.842709398E+01  0.411096099E+00 -0.685694868E+00
   H  0.828965557E+01 -0.768711586E-01 -0.529621266E+00
     4
 # iter = 30000  time[fs]=30.00000
   C -0.148716692E+01 -0.405043714E-02  0.790875738E-01
   C  0.152063289E+01 -0.385578004E-01  0.791200049E-01
   H -0.878369515E+01  0.433503949E+00 -0.710325225E+00
   H  0.864803886E+01 -0.755375281E-01 -0.549237342E+00
     4
 # iter = 30500  time[fs]=30.50000
   C -0.154932983E+01 -0.431037094E-02  0.831179514E-01
   C  0.158166734E+01 -0.393466353E-01  0.826800051E-01
   H -0.914519571E+01  0.453179997E+00 -0.737984199E+00
   H  0.900589984E+01 -0.770625727E-01 -0.571873164E+00
     4
 # iter = 31000  time[fs]=31.00000
   C -0.161318727E+01 -0.501281210E-02  0.867096570E-01
   C  0.164335948E+01 -0.407170695E-01  0.856898032E-01
   H -0.951149963E+01  0.470053064E+00 -0.768720199E+00
   H  0.936299367E+01 -0.815079233E-01 -0.597578035E+00
     4
 # iter = 31500  time[fs]=31.50000
   C -0.167818501E+01 -0.569854415E-02  0.903221218E-01
   C  0.170619250E+01 -0.420918367E-01  0.887238348E-01
   H -0.987950567E+01  0.487073846E+00 -0.799562030E+00
   H  0.972211948E+01 -0.859125974E-01 -0.623380084E+00
     4
 # iter = 32000  time[fs]=32.00000
   C -0.174395251E+01 -0.608311082E-02  0.942399526E-01
   C  0.177043945E+01 -0.431126419E-01  0.921379030E-01
   H -0.102472519E+02  0.506069586E+00 -0.828664108E+00
   H  0.100849685E+02 -0.884406153E-01 -0.647433576E+00
     4
 # iter = 32500  time[fs]=32.50000
   C -0.181053321E+01 -0.628814594E-02  0.983416201E-01
   C  0.183587303E+01 -0.439294777E-01  0.957798121E-01
   H -0.106154009E+02  0.526257429E+00 -0.856792928E+00
   H  0.104506336E+02 -0.898684011E-01 -0.670506109E+00
     4
 # iter = 33000  time[fs]=33.00000
   C -0.187810604E+01 -0.656360331E-02  0.102377234E+00
   C  0.190211229E+01 -0.448531047E-01  0.993368476E-01
   H -0.109854522E+02  0.546029826E+00 -0.885541350E+00
   H  0.108173944E+02 -0.917982320E-01 -0.694191971E+00
     4
 # iter = 33500  time[fs]=33.50000
   C -0.194668003E+01 -0.698303624E-02  0.106273269E+00
   C  0.196900312E+01 -0.459738299E-01  0.102716966E+00
   H -0.113577817E+02  0.564913092E+00 -0.915369759E+00
   H  0.111846761E+02 -0.946984481E-01 -0.718952286E+00
     4
 # iter = 34000  time[fs]=34.00000
   C -0.201609065E+01 -0.744056735E-02  0.110135596E+00
   C  0.203662143E+01 -0.471576926E-01  0.106052580E+00
   H -0.117316209E+02  0.583586822E+00 -0.945586454E+00
   H  0.115530675E+02 -0.978839505E-01 -0.744095424E+00
     4
 # iter = 34500  time[fs]=34.50000
   C -0.208618090E+01 -0.783262383E-02  0.114067760E+00
   C  0.210504523E+01 -0.482737875E-01  0.109473210E+00
   H -0.121062241E+02  0.602715743E+00 -0.975515687E+00
   H  0.119231511E+02 -0.100684977E+00 -0.768945685E+00
     4
 # iter = 35000  time[fs]=35.00000
   C -0.215690406E+01 -0.816128039E-02  0.118067642E+00
   C  0.217422485E+01 -0.493235209E-01  0.112976207E+00
   H -0.124815319E+02  0.622285482E+00 -0.100516180E+01
   H  0.122948370E+02 -0.103111673E+00 -0.793507788E+00
     4
 # iter = 35500  time[fs]=35.50000
   C -0.222827536E+01 -0.848632769E-02  0.122075391E+00
   C  0.224404242E+01 -0.503806274E-01  0.116486716E+00
   H -0.128578624E+02  0.641910692E+00 -0.103490096E+01
   H  0.126676705E+02 -0.105545733E+00 -0.818158456E+00
     4
 # iter = 36000  time[fs]=36.00000
   C -0.230028663E+01 -0.884041718E-02  0.126058286E+00
   C  0.231441767E+01 -0.514850005E-01  0.119963834E+00
   H -0.132353648E+02  0.661380512E+00 -0.106493564E+01
   H  0.130413776E+02 -0.108194590E+00 -0.843100561E+00
     4
 # iter = 36500  time[fs]=36.50000
   C -0.237288658E+01 -0.920966144E-02  0.130030137E+00
   C  0.238533180E+01 -0.526184106E-01  0.123424875E+00
   H -0.136138941E+02  0.680783256E+00 -0.109516980E+01
   H  0.134159886E+02 -0.110966609E+00 -0.868238279E+00
     4
 # iter = 37000  time[fs]=37.00000
   C -0.244601626E+01 -0.956944573E-02  0.134015473E+00
   C  0.245678238E+01 -0.537492948E-01  0.126900574E+00
   H -0.139932408E+02  0.700276208E+00 -0.112543904E+01
   H  0.137916077E+02 -0.113701407E+00 -0.893407366E+00
     4
 # iter = 37500  time[fs]=37.50000
   C -0.251963818E+01 -0.991385131E-02  0.138020125E+00
   C  0.252874624E+01 -0.548695554E-01  0.130398272E+00
   H -0.143733196E+02  0.719896489E+00 -0.115569968E+01
   H  0.141682229E+02 -0.116359063E+00 -0.918564340E+00
     4
 # iter = 38000  time[fs]=38.00000
   C -0.259373278E+01 -0.102524185E-01  0.142034460E+00
   C  0.260118329E+01 -0.559905010E-01  0.133905973E+00
   H -0.147541485E+02  0.739581872E+00 -0.118600787E+01
   H  0.145457265E+02 -0.118999272E+00 -0.943765597E+00
     4
 # iter = 38500  time[fs]=38.50000
   C -0.266828145E+01 -0.105933612E-01  0.146050172E+00
   C  0.267405723E+01 -0.571218400E-01  0.137413337E+00
   H -0.151357398E+02  0.759278687E+00 -0.121641167E+01
   H  0.149240228E+02 -0.121673357E+00 -0.969059404E+00
     4
 # iter = 39000  time[fs]=39.00000
   C -0.274325924E+01 -0.109365223E-01  0.150067324E+00
   C  0.274734426E+01 -0.582628606E-01  0.140920500E+00
   H -0.155180552E+02  0.778987104E+00 -0.124690569E+01
   H  0.153030732E+02 -0.124378940E+00 -0.994440545E+00
     4
 # iter = 39500  time[fs]=39.50000
   C -0.281863937E+01 -0.112780460E-01  0.154089677E+00
   C  0.282102694E+01 -0.594082704E-01  0.144432224E+00
   H -0.159010353E+02  0.798731098E+00 -0.127746111E+01
   H  0.156828654E+02 -0.127089980E+00 -0.101988034E+01
     4
 # iter = 40000  time[fs]=40.00000
   C -0.289439880E+01 -0.116161526E-01  0.158118917E+00
   C  0.289508689E+01 -0.605554164E-01  0.147950674E+00
   H -0.162846365E+02  0.818521321E+00 -0.130806276E+01
   H  0.160633766E+02 -0.129793904E+00 -0.104536376E+01
     4
 # iter = 40500  time[fs]=40.50000
   C -0.297051880E+01 -0.119518269E-01  0.162153969E+00
   C  0.296950375E+01 -0.617051407E-01  0.151474559E+00
   H -0.166688349E+02  0.838350686E+00 -0.133871351E+01
   H  0.164445683E+02 -0.132496023E+00 -0.107089381E+01
     4
 # iter = 41000  time[fs]=41.00000
   C -0.304698247E+01 -0.122864791E-01  0.166193330E+00
   C  0.304425796E+01 -0.628588509E-01  0.155002055E+00
   H -0.170536118E+02  0.858209397E+00 -0.136941924E+01
   H  0.168264015E+02 -0.135204471E+00 -0.109647649E+01
     4
 # iter = 41500  time[fs]=41.50000
   C -0.312377312E+01 -0.126204818E-01  0.170236538E+00
   C  0.311933252E+01 -0.640166868E-01  0.158532638E+00
   H -0.174389433E+02  0.878094354E+00 -0.140017936E+01
   H  0.172088458E+02 -0.137920791E+00 -0.112211134E+01
     4
 # iter = 42000  time[fs]=42.00000
   C -0.320087455E+01 -0.129535014E-01  0.174283841E+00
   C  0.319471240E+01 -0.651779309E-01  0.162066669E+00
   H -0.178248028E+02  0.898007025E+00 -0.143098896E+01
   H  0.175918772E+02 -0.140642056E+00 -0.114779355E+01
     4
 # iter = 42500  time[fs]=42.50000
   C -0.327827170E+01 -0.132852985E-01  0.178335392E+00
   C  0.327038352E+01 -0.663420080E-01  0.165604392E+00
   H -0.182111660E+02  0.917948296E+00 -0.146184392E+01
   H  0.179754725E+02 -0.143366009E+00 -0.117351909E+01
     4
 # iter = 43000  time[fs]=43.00000
   C -0.335595082E+01 -0.136159699E-01  0.182391012E+00
   C  0.334633230E+01 -0.675087850E-01  0.169145632E+00
   H -0.185980118E+02  0.937916920E+00 -0.149274245E+01
   H  0.183596082E+02 -0.146092614E+00 -0.119928627E+01
     4
 # iter = 43500  time[fs]=43.50000
   C -0.343389920E+01 -0.139457273E-01  0.186450408E+00
   C  0.342254590E+01 -0.686782924E-01  0.172690071E+00
   H -0.189853215E+02  0.957910931E+00 -0.152368367E+01
   H  0.187442610E+02 -0.148822626E+00 -0.122509429E+01
     4
 # iter = 44000  time[fs]=44.00000
   C -0.351210483E+01 -0.142746948E-01  0.190513377E+00
   C  0.349901237E+01 -0.698504689E-01  0.176237502E+00
   H -0.193730768E+02  0.977928951E+00 -0.155466626E+01
   H  0.191294099E+02 -0.151556285E+00 -0.125094192E+01
     4
 # iter = 44500  time[fs]=44.50000
   C -0.359055639E+01 -0.146029046E-01  0.194579813E+00
   C  0.357572064E+01 -0.710251542E-01  0.179787836E+00
   H -0.197612602E+02  0.997970215E+00 -0.158568846E+01
   H  0.195150353E+02 -0.154293285E+00 -0.127682746E+01
     4
 # iter = 45000  time[fs]=45.00000
   C -0.366924324E+01 -0.149303756E-01  0.198649621E+00
   C  0.365266031E+01 -0.722021865E-01  0.183340999E+00
   H -0.201498549E+02  0.101803407E+01 -0.161674853E+01
   H  0.199011191E+02 -0.157033271E+00 -0.130274926E+01
     4
 # iter = 45500  time[fs]=45.50000
   C -0.374815540E+01 -0.152571517E-01  0.202722686E+00
   C  0.372982158E+01 -0.733814479E-01  0.186896890E+00
   H -0.205388453E+02  0.103811970E+01 -0.164784502E+01
   H  0.202876437E+02 -0.159776085E+00 -0.132870592E+01
     4
 # iter = 46000  time[fs]=46.00000
   C -0.382728353E+01 -0.155832891E-01  0.206798884E+00
   C  0.380719521E+01 -0.745628487E-01  0.190455393E+00
   H -0.209282167E+02  0.105822627E+01 -0.167897664E+01
   H  0.206745926E+02 -0.162521679E+00 -0.135469623E+01
     4
 # iter = 46500  time[fs]=46.50000
   C -0.390661880E+01 -0.159088369E-01  0.210878098E+00
   C  0.388477251E+01 -0.757463011E-01  0.194016401E+00
   H -0.213179552E+02  0.107835298E+01 -0.171014218E+01
   H  0.210619501E+02 -0.165269993E+00 -0.138071901E+01
     4
 # iter = 47000  time[fs]=47.00000
   C -0.398615289E+01 -0.162338338E-01  0.214960224E+00
   C  0.396254529E+01 -0.769317146E-01  0.197579824E+00
   H -0.217080476E+02  0.109849912E+01 -0.174134042E+01
   H  0.214497016E+02 -0.168020923E+00 -0.140677312E+01
     4
 # iter = 47500  time[fs]=47.50000
   C -0.406587796E+01 -0.165583133E-01  0.219045168E+00
   C  0.404050585E+01 -0.781190015E-01  0.201145576E+00
   H -0.220984816E+02  0.111866402E+01 -0.177257020E+01
   H  0.218378330E+02 -0.170774357E+00 -0.143285744E+01
     4
 # iter = 48000  time[fs]=48.00000
   C -0.414578660E+01 -0.168823079E-01  0.223132834E+00
   C  0.411864688E+01 -0.793080814E-01  0.204713577E+00
   H -0.224892451E+02  0.113884707E+01 -0.180383044E+01
   H  0.222263311E+02 -0.173530200E+00 -0.145897095E+01
     4
 # iter = 48500  time[fs]=48.50000
   C -0.422587180E+01 -0.172058490E-01  0.227223135E+00
   C  0.419696150E+01 -0.804988801E-01  0.208283748E+00
   H -0.228803269E+02  0.115904764E+01 -0.183512011E+01
   H  0.226151832E+02 -0.176288369E+00 -0.148511266E+01
     4
 # iter = 49000  time[fs]=49.00000
   C -0.430612694E+01 -0.175289657E-01  0.231315984E+00
   C  0.427544319E+01 -0.816913282E-01  0.211856015E+00
   H -0.232717163E+02  0.117926516E+01 -0.186643823E+01
   H  0.230043775E+02 -0.179048788E+00 -0.151128163E+01
     4
 # iter = 49500  time[fs]=49.50000
   C -0.438654574E+01 -0.178516847E-01  0.235411300E+00
   C  0.435408577E+01 -0.828853597E-01  0.215430306E+00
   H -0.236634033E+02  0.119949908E+01 -0.189778389E+01
   H  0.233939024E+02 -0.181811380E+00 -0.153747699E+01
     4
 # iter = 50000  time[fs]=50.00000
   C -0.446712228E+01 -0.181740306E-01  0.239509005E+00
   C  0.443288340E+01 -0.840809121E-01  0.219006555E+00
   H -0.240553780E+02  0.121974886E+01 -0.192915618E+01
   H  0.237837473E+02 -0.184576071E+00 -0.156369788E+01
     4
 # iter = 50500  time[fs]=50.50000
   C -0.454785089E+01 -0.184960263E-01  0.243609026E+00
   C  0.451183053E+01 -0.852779264E-01  0.222584699E+00
   H -0.244476312E+02  0.124001402E+01 -0.196055426E+01
   H  0.241739018E+02 -0.187342792E+00 -0.158994349E+01
     4
 # iter = 51000  time[fs]=51.00000
   C -0.462872625E+01 -0.188176932E-01  0.247711292E+00
   C  0.459092190E+01 -0.864763471E-01  0.226164677E+00
   H -0.248401543E+02  0.126029407E+01 -0.199197734E+01
   H  0.245643560E+02 -0.190111477E+00 -0.161621307E+01
     4
 # iter = 51500  time[fs]=51.50000
   C -0.470974325E+01 -0.191390511E-01  0.251815735E+00
   C  0.467015250E+01 -0.876761215E-01  0.229746431E+00
   H -0.252329387E+02  0.128058857E+01 -0.202342464E+01
   H  0.249551006E+02 -0.192882063E+00 -0.164250586E+01
     4
 # iter = 52000  time[fs]=52.00000
   C -0.479089708E+01 -0.194601187E-01  0.255922291E+00
   C  0.474951759E+01 -0.888772000E-01  0.233329907E+00
   H -0.256259765E+02  0.130089706E+01 -0.205489543E+01
   H  0.253461266E+02 -0.195654491E+00 -0.166882118E+01
     4
 # iter = 52500  time[fs]=52.50000
   C -0.487218312E+01 -0.197809133E-01  0.260030898E+00
   C  0.482901263E+01 -0.900795353E-01  0.236915052E+00
   H -0.260192600E+02  0.132121915E+01 -0.208638900E+01
   H  0.257374256E+02 -0.198428703E+00 -0.169515834E+01
     4
 # iter = 53000  time[fs]=53.00000
   C -0.495359702E+01 -0.201014510E-01  0.264141496E+00
   C  0.490863332E+01 -0.912830826E-01  0.240501815E+00
   H -0.264127820E+02  0.134155443E+01 -0.211790469E+01
   H  0.261289893E+02 -0.201204645E+00 -0.172151672E+01
     4
 # iter = 53500  time[fs]=53.50000
   C -0.503513459E+01 -0.204217469E-01  0.268254030E+00
   C  0.498837556E+01 -0.924877995E-01  0.244090150E+00
   H -0.268065354E+02  0.136190252E+01 -0.214944186E+01
   H  0.265208100E+02 -0.203982265E+00 -0.174789569E+01
     4
 # iter = 54000  time[fs]=54.00000
   C -0.511679185E+01 -0.207418151E-01  0.272368443E+00
   C  0.506823545E+01 -0.936936457E-01  0.247680010E+00
   H -0.272005135E+02  0.138226306E+01 -0.218099989E+01
   H  0.269128801E+02 -0.206761512E+00 -0.177429467E+01
     4
 # iter = 54500  time[fs]=54.50000
   C -0.519856503E+01 -0.210616689E-01  0.276484686E+00
   C  0.514820924E+01 -0.949005828E-01  0.251271352E+00
   H -0.275947100E+02  0.140263569E+01 -0.221257819E+01
   H  0.273051925E+02 -0.209542340E+00 -0.180071310E+01
     4
 # iter = 55000  time[fs]=55.00000
   C -0.528045049E+01 -0.213813206E-01  0.280602706E+00
   C  0.522829337E+01 -0.961085744E-01  0.254864133E+00
   H -0.279891186E+02  0.142302009E+01 -0.224417620E+01
   H  0.276977404E+02 -0.212324703E+00 -0.182715043E+01
     4
 # iter = 55500  time[fs]=55.50000
   C -0.536244478E+01 -0.217007819E-01  0.284722457E+00
   C  0.530848445E+01 -0.973175856E-01  0.258458313E+00
   H -0.283837336E+02  0.144341593E+01 -0.227579338E+01
   H  0.280905172E+02 -0.215108556E+00 -0.185360615E+01
     4
 # iter = 56000  time[fs]=56.00000
   C -0.544454459E+01 -0.220200636E-01  0.288843891E+00
   C  0.538877923E+01 -0.985275835E-01  0.262053855E+00
   H -0.287785492E+02  0.146382291E+01 -0.230742921E+01
   H  0.284835166E+02 -0.217893858E+00 -0.188007976E+01
     4
 # iter = 56500  time[fs]=56.50000
   C -0.552674676E+01 -0.223391760E-01  0.292966966E+00
   C  0.546917459E+01 -0.997385364E-01  0.265650721E+00
   H -0.291735600E+02  0.148424072E+01 -0.233908319E+01
   H  0.288767326E+02 -0.220680570E+00 -0.190657078E+01
     4
 # iter = 57000  time[fs]=57.00000
   C -0.560904827E+01 -0.226581286E-01  0.297091637E+00
   C  0.554966755E+01 -0.100950414E+00  0.269248875E+00
   H -0.295687608E+02  0.150466908E+01 -0.237075484E+01
   H  0.292701592E+02 -0.223468651E+00 -0.193307876E+01
     4
 # iter = 57500  time[fs]=57.50000
   C -0.569144621E+01 -0.229769305E-01  0.301217864E+00
   C  0.563025528E+01 -0.102163188E+00  0.272848284E+00
   H -0.299641467E+02  0.152510773E+01 -0.240244370E+01
   H  0.296637911E+02 -0.226258066E+00 -0.195960326E+01
     4
 # iter = 58000  time[fs]=58.00000
   C -0.577393782E+01 -0.232955901E-01  0.305345608E+00
   C  0.571093503E+01 -0.103376831E+00  0.276448915E+00
   H -0.303597128E+02  0.154555639E+01 -0.243414934E+01
   H  0.300576227E+02 -0.229048779E+00 -0.198614384E+01
     4
 # iter = 58500  time[fs]=58.50000
   C -0.585652042E+01 -0.236141155E-01  0.309474830E+00
   C  0.579170419E+01 -0.104591317E+00  0.280050736E+00
   H -0.307554544E+02  0.156601481E+01 -0.246587131E+01
   H  0.304516490E+02 -0.231840756E+00 -0.201270010E+01
     4
 # iter = 59000  time[fs]=59.00000
   C -0.593919147E+01 -0.239325140E-01  0.313605493E+00
   C  0.587256026E+01 -0.105806620E+00  0.283653718E+00
   H -0.311513672E+02  0.158648275E+01 -0.249760922E+01
   H  0.308458650E+02 -0.234633964E+00 -0.203927166E+01
     4
 # iter = 59500  time[fs]=59.50000
   C -0.602194853E+01 -0.242507929E-01  0.317737563E+00
   C  0.595350082E+01 -0.107022716E+00  0.287257831E+00
   H -0.315474468E+02  0.160695998E+01 -0.252936267E+01
   H  0.312402659E+02 -0.237428371E+00 -0.206585812E+01
     4
 # iter = 60000  time[fs]=60.00000
   C -0.610478923E+01 -0.245689588E-01  0.321871005E+00
   C  0.603452356E+01 -0.108239583E+00  0.290863047E+00
   H -0.319436891E+02  0.162744627E+01 -0.256113128E+01
   H  0.316348471E+02 -0.240223947E+00 -0.209245914E+01
     4
 # iter = 60500  time[fs]=60.50000
   C -0.618771132E+01 -0.248870180E-01  0.326005786E+00
   C  0.611562626E+01 -0.109457198E+00  0.294469339E+00
   H -0.323400902E+02  0.164794139E+01 -0.259291468E+01
   H  0.320296041E+02 -0.243020662E+00 -0.211907434E+01
     4
 # iter = 61000  time[fs]=61.00000
   C -0.627071263E+01 -0.252049763E-01  0.330141875E+00
   C  0.619680679E+01 -0.110675540E+00  0.298076682E+00
   H -0.327366461E+02  0.166844514E+01 -0.262471251E+01
   H  0.324245328E+02 -0.245818490E+00 -0.214570341E+01
     4
 # iter = 61500  time[fs]=61.50000
   C -0.635379107E+01 -0.255228395E-01  0.334279240E+00
   C  0.627806309E+01 -0.111894590E+00  0.301685049E+00
   H -0.331333533E+02  0.168895732E+01 -0.265652444E+01
   H  0.328196290E+02 -0.248617401E+00 -0.217234600E+01
     4
 # iter = 62000  time[fs]=62.00000
   C -0.643694464E+01 -0.258406128E-01  0.338417853E+00
   C  0.635939320E+01 -0.113114327E+00  0.305294418E+00
   H -0.335302080E+02  0.170947773E+01 -0.268835014E+01
   H  0.332148886E+02 -0.251417371E+00 -0.219900181E+01
     4
 # iter = 62500  time[fs]=62.50000
   C -0.652017140E+01 -0.261583012E-01  0.342557685E+00
   C  0.644079521E+01 -0.114334733E+00  0.308904765E+00
   H -0.339272069E+02  0.173000618E+01 -0.272018929E+01
   H  0.336103080E+02 -0.254218373E+00 -0.222567053E+01
     4
 # iter = 63000  time[fs]=63.00000
   C -0.660346950E+01 -0.264759095E-01  0.346698709E+00
   C  0.652226729E+01 -0.115555789E+00  0.312516066E+00
   H -0.343243467E+02  0.175054249E+01 -0.275204158E+01
   H  0.340058833E+02 -0.257020384E+00 -0.225235186E+01
     4
 # iter = 63500  time[fs]=63.50000
   C -0.668683713E+01 -0.267934420E-01  0.350840896E+00
   C  0.660380768E+01 -0.116777480E+00  0.316128301E+00
   H -0.347216241E+02  0.177108648E+01 -0.278390672E+01
   H  0.344016110E+02 -0.259823381E+00 -0.227904552E+01
     4
 # iter = 64000  time[fs]=64.00000
   C -0.677027258E+01 -0.271109031E-01  0.354984223E+00
   C  0.668541468E+01 -0.117999787E+00  0.319741448E+00
   H -0.351190361E+02  0.179163798E+01 -0.281578441E+01
   H  0.347974876E+02 -0.262627339E+00 -0.230575123E+01
     4
 # iter = 64500  time[fs]=64.50000
   C -0.685377418E+01 -0.274282968E-01  0.359128663E+00
   C  0.676708666E+01 -0.119222696E+00  0.323355487E+00
   H -0.355165795E+02  0.181219682E+01 -0.284767438E+01
   H  0.351935098E+02 -0.265432238E+00 -0.233246873E+01
     4
 # iter = 65000  time[fs]=65.00000
   C -0.693734033E+01 -0.277456268E-01  0.363274193E+00
   C  0.684882205E+01 -0.120446190E+00  0.326970399E+00
   H -0.359142516E+02  0.183276285E+01 -0.287957637E+01
   H  0.355896744E+02 -0.268238056E+00 -0.235919777E+01
     4
 # iter = 65500  time[fs]=65.50000
   C -0.702096947E+01 -0.280628968E-01  0.367420789E+00
   C  0.693061930E+01 -0.121670255E+00  0.330586164E+00
   H -0.363120495E+02  0.185333590E+01 -0.291149011E+01
   H  0.359859783E+02 -0.271044772E+00 -0.238593808E+01
     4
 # iter = 66000  time[fs]=66.00000
   C -0.710466011E+01 -0.283801101E-01  0.371568428E+00
   C  0.701247697E+01 -0.122894878E+00  0.334202764E+00
   H -0.367099704E+02  0.187391584E+01 -0.294341535E+01
   H  0.363824183E+02 -0.273852367E+00 -0.241268944E+01
     4
 # iter = 66500  time[fs]=66.50000
   C -0.718841081E+01 -0.286972700E-01  0.375717089E+00
   C  0.709439362E+01 -0.124120043E+00  0.337820182E+00
   H -0.371080118E+02  0.189450251E+01 -0.297535184E+01
   H  0.367789916E+02 -0.276660822E+00 -0.243945161E+01
     4
 # iter = 67000  time[fs]=67.00000
   C -0.727222017E+01 -0.290143795E-01  0.379866750E+00
   C  0.717636789E+01 -0.125345738E+00  0.341438399E+00
   H -0.375061711E+02  0.191509578E+01 -0.300729936E+01
   H  0.371756954E+02 -0.279470118E+00 -0.246622435E+01
     4
 # iter = 67500  time[fs]=67.50000
   C -0.735608685E+01 -0.293314416E-01  0.384017390E+00
   C  0.725839845E+01 -0.126571950E+00  0.345057399E+00
   H -0.379044459E+02  0.193569550E+01 -0.303925767E+01
   H  0.375725269E+02 -0.282280236E+00 -0.249300746E+01
     4
 # iter = 68000  time[fs]=68.00000
   C -0.744000954E+01 -0.296484590E-01  0.388168990E+00
   C  0.734048402E+01 -0.127798666E+00  0.348677167E+00
   H -0.383028336E+02  0.195630155E+01 -0.307122655E+01
   H  0.379694834E+02 -0.285091161E+00 -0.251980071E+01
     4
 # iter = 68500  time[fs]=68.50000
   C -0.752398699E+01 -0.299654344E-01  0.392321531E+00
   C  0.742262337E+01 -0.129025876E+00  0.352297686E+00
   H -0.387013321E+02  0.197691380E+01 -0.310320579E+01
   H  0.383665624E+02 -0.287902874E+00 -0.254660391E+01
     4
 # iter = 69000  time[fs]=69.00000
   C -0.760801797E+01 -0.302823701E-01  0.396474992E+00
   C  0.750481530E+01 -0.130253566E+00  0.355918942E+00
   H -0.390999390E+02  0.199753212E+01 -0.313519517E+01
   H  0.387637614E+02 -0.290715359E+00 -0.257341686E+01
     4
 # iter = 69500  time[fs]=69.50000
   C -0.769210131E+01 -0.305992687E-01  0.400629357E+00
   C  0.758705865E+01 -0.131481727E+00  0.359540919E+00
   H -0.394986523E+02  0.201815639E+01 -0.316719451E+01
   H  0.391610778E+02 -0.293528601E+00 -0.260023935E+01
     4
 # iter = 70000  time[fs]=70.00000
   C -0.777623586E+01 -0.309161322E-01  0.404784607E+00
   C  0.766935229E+01 -0.132710348E+00  0.363163603E+00
   H -0.398974696E+02  0.203878650E+01 -0.319920359E+01
   H  0.395585095E+02 -0.296342584E+00 -0.262707120E+01
     4
 # iter = 70500  time[fs]=70.50000
   C -0.786042052E+01 -0.312329630E-01  0.408940725E+00
   C  0.775169514E+01 -0.133939417E+00  0.366786980E+00
   H -0.402963891E+02  0.205942233E+01 -0.323122222E+01
   H  0.399560540E+02 -0.299157293E+00 -0.265391223E+01
     4
 # iter = 71000  time[fs]=71.00000
   C -0.794465423E+01 -0.315497629E-01  0.413097694E+00
   C  0.783408615E+01 -0.135168926E+00  0.370411037E+00
   H -0.406954087E+02  0.208006377E+01 -0.326325024E+01
   H  0.403537093E+02 -0.301972713E+00 -0.268076226E+01
     4
 # iter = 71500  time[fs]=71.50000
   C -0.802893594E+01 -0.318665340E-01  0.417255499E+00
   C  0.791652431E+01 -0.136398864E+00  0.374035761E+00
   H -0.410945264E+02  0.210071071E+01 -0.329528744E+01
   H  0.407514730E+02 -0.304788832E+00 -0.270762111E+01
     4
 # iter = 72000  time[fs]=72.00000
   C -0.811326464E+01 -0.321832780E-01  0.421414123E+00
   C  0.799900861E+01 -0.137629222E+00  0.377661139E+00
   H -0.414937404E+02  0.212136305E+01 -0.332733367E+01
   H  0.411493432E+02 -0.307605634E+00 -0.273448863E+01
     4
 # iter = 72500  time[fs]=72.50000
   C -0.819763937E+01 -0.324999968E-01  0.425573550E+00
   C  0.808153811E+01 -0.138859990E+00  0.381287158E+00
   H -0.418930489E+02  0.214202070E+01 -0.335938874E+01
   H  0.415473178E+02 -0.310423107E+00 -0.276136464E+01
     4
 # iter = 73000  time[fs]=73.00000
   C -0.828205918E+01 -0.328166919E-01  0.429733767E+00
   C  0.816411188E+01 -0.140091161E+00  0.384913807E+00
   H -0.422924500E+02  0.216268354E+01 -0.339145250E+01
   H  0.419453948E+02 -0.313241238E+00 -0.278824900E+01
     4
 # iter = 73500  time[fs]=73.50000
   C -0.836652315E+01 -0.331333650E-01  0.433894758E+00
   C  0.824672901E+01 -0.141322726E+00  0.388541074E+00
   H -0.426919421E+02  0.218335148E+01 -0.342352478E+01
   H  0.423435723E+02 -0.316060014E+00 -0.281514153E+01
     4
 # iter = 74000  time[fs]=74.00000
   C -0.845103040E+01 -0.334500176E-01  0.438056509E+00
   C  0.832938863E+01 -0.142554676E+00  0.392168948E+00
   H -0.430915234E+02  0.220402444E+01 -0.345560543E+01
   H  0.427418485E+02 -0.318879424E+00 -0.284204211E+01
     4
 # iter = 74500  time[fs]=74.50000
   C -0.853558005E+01 -0.337666511E-01  0.442219007E+00
   C  0.841208989E+01 -0.143787003E+00  0.395797417E+00
   H -0.434911924E+02  0.222470231E+01 -0.348769430E+01
   H  0.431402214E+02 -0.321699455E+00 -0.286895057E+01
     4
 # iter = 75000  time[fs]=75.00000
   C -0.862017128E+01 -0.340832669E-01  0.446382238E+00
   C  0.849483198E+01 -0.145019699E+00  0.399426470E+00
   H -0.438909474E+02  0.224538502E+01 -0.351979123E+01
   H  0.435386895E+02 -0.324520096E+00 -0.289586677E+01
     4
 # iter = 75500  time[fs]=75.50000
   C -0.870480326E+01 -0.343998663E-01  0.450546189E+00
   C  0.857761408E+01 -0.146252758E+00  0.403056099E+00
   H -0.442907868E+02  0.226607247E+01 -0.355189609E+01
   H  0.439372508E+02 -0.327341335E+00 -0.292279059E+01
     4
 # iter = 76000  time[fs]=76.00000
   C -0.878947521E+01 -0.347164505E-01  0.454710847E+00
   C  0.866043543E+01 -0.147486171E+00  0.406686291E+00
   H -0.446907093E+02  0.228676458E+01 -0.358400873E+01
   H  0.443359039E+02 -0.330163162E+00 -0.294972188E+01
     4
 # iter = 76500  time[fs]=76.50000
   C -0.887418636E+01 -0.350330208E-01  0.458876201E+00
   C  0.874329526E+01 -0.148719932E+00  0.410317038E+00
   H -0.450907132E+02  0.230746128E+01 -0.361612901E+01
   H  0.447346469E+02 -0.332985567E+00 -0.297666052E+01
     4
 # iter = 77000  time[fs]=77.00000
   C -0.895893596E+01 -0.353495782E-01  0.463042237E+00
   C  0.882619285E+01 -0.149954033E+00  0.413948329E+00
   H -0.454907972E+02  0.232816247E+01 -0.364825682E+01
   H  0.451334784E+02 -0.335808538E+00 -0.300360637E+01
     4
 # iter = 77500  time[fs]=77.50000
   C -0.904372328E+01 -0.356661238E-01  0.467208945E+00
   C  0.890912748E+01 -0.151188469E+00  0.417580155E+00
   H -0.458909599E+02  0.234886809E+01 -0.368039200E+01
   H  0.455323969E+02 -0.338632067E+00 -0.303055931E+01
     4
 # iter = 78000  time[fs]=78.00000
   C -0.912854763E+01 -0.359826587E-01  0.471376312E+00
   C  0.899209845E+01 -0.152423232E+00  0.421212507E+00
   H -0.462912000E+02  0.236957806E+01 -0.371253445E+01
   H  0.459314007E+02 -0.341456143E+00 -0.305751923E+01
     4
 # iter = 78500  time[fs]=78.50000
   C -0.921340831E+01 -0.362991838E-01  0.475544328E+00
   C  0.907510510E+01 -0.153658316E+00  0.424845377E+00
   H -0.466915160E+02  0.239029230E+01 -0.374468403E+01
   H  0.463304885E+02 -0.344280756E+00 -0.308448599E+01
     4
 # iter = 79000  time[fs]=79.00000
   C -0.929830465E+01 -0.366157001E-01  0.479712982E+00
   C  0.915814676E+01 -0.154893716E+00  0.428478755E+00
   H -0.470919067E+02  0.241101075E+01 -0.377684063E+01
   H  0.467296587E+02 -0.347105897E+00 -0.311145950E+01
     4
 # iter = 79500  time[fs]=79.50000
   C -0.938323601E+01 -0.369322084E-01  0.483882263E+00
   C  0.924122280E+01 -0.156129424E+00  0.432112632E+00
   H -0.474923709E+02  0.243173333E+01 -0.380900413E+01
   H  0.471289101E+02 -0.349931558E+00 -0.313843963E+01
     4
 # iter = 80000  time[fs]=80.00000
   C -0.946820174E+01 -0.372487097E-01  0.488052161E+00
   C  0.932433259E+01 -0.157365436E+00  0.435747002E+00
   H -0.478929074E+02  0.245245997E+01 -0.384117442E+01
   H  0.475282412E+02 -0.352757729E+00 -0.316542628E+01
