     4
 # iter = 25000  time[fs]=25.00000
   C -0.951749414E+00  0.552057656E-01  0.212151608E-01
   C  0.992506187E+00  0.371418157E-02 -0.728739003E-02
   H -0.526638382E+01 -0.401561702E+00  0.263085161E+00
   H  0.522981579E+01  0.481193252E+00  0.119358631E+00
     4
 # iter = 25500  time[fs]=25.50000
   C -0.995175303E+00  0.564104160E-01  0.182614041E-01
   C  0.103147417E+01  0.407095076E-03 -0.906425811E-02
   H -0.560202008E+01 -0.438467115E+00  0.266423167E+00
   H  0.553727199E+01  0.502165802E+00  0.117787292E+00
     4
 # iter = 26000  time[fs]=26.00000
   C -0.104221828E+01  0.566789735E-01  0.143160123E-01
   C  0.107215483E+01 -0.386117265E-02 -0.117601115E-01
   H -0.594572261E+01 -0.481023324E+00  0.264480351E+00
   H  0.584208913E+01  0.517998180E+00  0.110865963E+00
     4
 # iter = 26500  time[fs]=26.50000
   C -0.108963537E+01  0.590426784E-01  0.124102471E-01
   C  0.111694975E+01 -0.647586324E-02 -0.127584015E-01
   H -0.628109934E+01 -0.513115365E+00  0.273328393E+00
   H  0.616007423E+01  0.544757200E+00  0.114682998E+00
     4
 # iter = 27000  time[fs]=27.00000
   C -0.113708290E+01  0.636474039E-01  0.126905194E-01
   C  0.116579504E+01 -0.730343517E-02 -0.119247968E-01
   H -0.660710572E+01 -0.533924797E+00  0.293750712E+00
   H  0.649176867E+01  0.583214712E+00  0.130029345E+00
     4
 # iter = 27500  time[fs]=27.50000
   C -0.118664044E+01  0.682305128E-01  0.128951414E-01
   C  0.121657154E+01 -0.828160066E-02 -0.111969965E-01
   H -0.693550654E+01 -0.555402352E+00  0.313767990E+00
   H  0.682497067E+01  0.621374468E+00  0.144925786E+00
     4
 # iter = 28000  time[fs]=28.00000
   C -0.123974157E+01  0.711899594E-01  0.114234237E-01
   C  0.126774220E+01 -0.107802635E-01 -0.119454294E-01
   H -0.727459395E+01 -0.586000721E+00  0.324902962E+00
   H  0.715101292E+01  0.650745434E+00  0.150895888E+00
     4
 # iter = 28500  time[fs]=28.50000
   C -0.129559022E+01  0.731674755E-01  0.891880167E-02
   C  0.131971222E+01 -0.142402392E-01 -0.136118076E-01
   H -0.762078749E+01 -0.622282829E+00  0.330570797E+00
   H  0.747315642E+01  0.674736364E+00  0.151360629E+00
     4
 # iter = 29000  time[fs]=29.00000
   C -0.135246524E+01  0.757433145E-01  0.696344753E-02
   C  0.137370652E+01 -0.172956552E-01 -0.148314322E-01
   H -0.796555126E+01 -0.655839895E+00  0.339160887E+00
   H  0.779966141E+01  0.701733804E+00  0.154716999E+00
     4
 # iter = 29500  time[fs]=29.50000
   C -0.140969502E+01  0.794609155E-01  0.610280686E-02
   C  0.143007112E+01 -0.194724763E-01 -0.151316504E-01
   H -0.830586439E+01 -0.683761328E+00  0.353567056E+00
   H  0.813330484E+01  0.734626780E+00  0.163863303E+00
     4
 # iter = 30000  time[fs]=30.00000
   C -0.146793361E+01  0.835498160E-01  0.556844492E-02
   C  0.148803399E+01 -0.214267829E-01 -0.151700636E-01
   H -0.864568768E+01 -0.710103231E+00  0.369718755E+00
   H  0.846990757E+01  0.769337132E+00  0.174729748E+00
     4
 # iter = 30500  time[fs]=30.50000
   C -0.152793414E+01  0.871512093E-01  0.450358403E-02
   C  0.154675750E+01 -0.238910283E-01 -0.156807184E-01
   H -0.898946375E+01 -0.739392166E+00  0.383076723E+00
   H  0.880483311E+01  0.801318313E+00  0.182777254E+00
     4
 # iter = 31000  time[fs]=31.00000
   C -0.158961556E+01  0.902502209E-01  0.289536594E-02
   C  0.160613880E+01 -0.268724535E-01 -0.166724705E-01
   H -0.933717256E+01 -0.771683456E+00  0.393574244E+00
   H  0.913793098E+01  0.830499023E+00  0.187941098E+00
     4
 # iter = 31500  time[fs]=31.50000
   C -0.165233538E+01  0.934022357E-01  0.130115360E-02
   C  0.166657365E+01 -0.298883668E-01 -0.176642351E-01
   H -0.968578072E+01 -0.804011636E+00  0.404166512E+00
   H  0.947208374E+01  0.859831812E+00  0.193179646E+00
     4
 # iter = 32000  time[fs]=32.00000
   C -0.171567103E+01  0.969507159E-01  0.663209485E-04
   C  0.172828325E+01 -0.326386324E-01 -0.183574571E-01
   H -0.100333869E+02 -0.834536291E+00  0.416684744E+00
   H  0.980905704E+01  0.891145119E+00  0.200326563E+00
     4
 # iter = 32500  time[fs]=32.50000
   C -0.177969963E+01  0.100746683E+00 -0.956280746E-03
   C  0.179107233E+01 -0.352468395E-01 -0.188772666E-01
   H -0.103807081E+02 -0.864028796E+00  0.430349348E+00
   H  0.101480107E+02  0.923655652E+00  0.208603302E+00
     4
 # iter = 33000  time[fs]=33.00000
   C -0.184466031E+01  0.104485601E+00 -0.206944167E-02
   C  0.185461808E+01 -0.379706450E-01 -0.194828091E-01
   H -0.107292927E+02 -0.894086498E+00  0.443555588E+00
   H  0.104872845E+02  0.955754870E+00  0.216405633E+00
     4
 # iter = 33500  time[fs]=33.50000
   C -0.191058405E+01  0.108076937E+00 -0.336203333E-02
   C  0.191878716E+01 -0.408840193E-01 -0.202494830E-01
   H -0.110795605E+02 -0.925173716E+00  0.455832442E+00
   H  0.108263577E+02  0.986968747E+00  0.223263435E+00
     4
 # iter = 34000  time[fs]=34.00000
   C -0.197728940E+01  0.111647832E+00 -0.470533846E-02
   C  0.198363828E+01 -0.438740669E-01 -0.210657558E-01
   H -0.114307828E+02 -0.956602183E+00  0.467862066E+00
   H  0.111658681E+02  0.101797723E+01  0.229860190E+00
     4
 # iter = 34500  time[fs]=34.50000
   C -0.204460234E+01  0.115322687E+00 -0.597346247E-02
   C  0.204923226E+01 -0.468305020E-01 -0.218226386E-01
   H -0.117822501E+02 -0.987699243E+00  0.480311543E+00
   H  0.115064422E+02  0.104944538E+01  0.236864201E+00
     4
 # iter = 35000  time[fs]=35.00000
   C -0.211248119E+01  0.119097834E+00 -0.716866620E-02
   C  0.211552380E+01 -0.497533847E-01 -0.225214230E-01
   H -0.121339358E+02 -0.101847210E+01  0.493168585E+00
   H  0.118480304E+02  0.108135879E+01  0.244264001E+00
     4
 # iter = 35500  time[fs]=35.50000
   C -0.218095800E+01  0.122899665E+00 -0.836322859E-02
   C  0.218241108E+01 -0.527031243E-01 -0.232236845E-01
   H -0.124861879E+02 -0.104929956E+01  0.506049717E+00
   H  0.121902148E+02  0.111333182E+01  0.251676683E+00
     4
 # iter = 36000  time[fs]=36.00000
   C -0.225003530E+01  0.126687551E+00 -0.959652920E-02
   C  0.224982384E+01 -0.557119834E-01 -0.239627883E-01
   H -0.128391830E+02 -0.108038650E+01  0.518745808E+00
   H  0.125327545E+02  0.114515342E+01  0.258893698E+00
     4
 # iter = 36500  time[fs]=36.50000
   C -0.231966221E+01  0.130477363E+00 -0.108515191E-01
   C  0.231774331E+01 -0.587638357E-01 -0.247236500E-01
   H -0.131928013E+02 -0.111163904E+01  0.531346792E+00
   H  0.128757108E+02  0.117691189E+01  0.266005645E+00
     4
 # iter = 37000  time[fs]=37.00000
   C -0.238977759E+01  0.134298035E+00 -0.120981547E-01
   C  0.238616455E+01 -0.618314956E-01 -0.254800669E-01
   H -0.135468562E+02 -0.114289475E+01  0.544011460E+00
   H  0.132192156E+02  0.120876453E+01  0.273171954E+00
     4
 # iter = 37500  time[fs]=37.50000
   C -0.246034546E+01  0.138155879E+00 -0.133290822E-01
   C  0.245506556E+01 -0.649073869E-01 -0.262253898E-01
   H -0.139012837E+02 -0.117411177E+01  0.556778315E+00
   H  0.135632828E+02  0.124074842E+01  0.280431668E+00
     4
 # iter = 38000  time[fs]=38.00000
   C -0.253135082E+01  0.142038504E+00 -0.145557106E-01
   C  0.252441039E+01 -0.680001566E-01 -0.269691403E-01
   H -0.142561210E+02 -0.120534794E+01  0.569586401E+00
   H  0.139078286E+02  0.127280122E+01  0.287724283E+00
     4
 # iter = 38500  time[fs]=38.50000
   C -0.260277910E+01  0.145935174E+00 -0.157878514E-01
   C  0.259416645E+01 -0.711171635E-01 -0.277195017E-01
   H -0.146113987E+02 -0.123665287E+01  0.582383226E+00
   H  0.142527792E+02  0.130486916E+01  0.294997723E+00
     4
 # iter = 39000  time[fs]=39.00000
   C -0.267460743E+01  0.149845352E+00 -0.170251737E-01
   C  0.266431168E+01 -0.742571240E-01 -0.284759676E-01
   H -0.149670952E+02 -0.126802259E+01  0.595170059E+00
   H  0.145981162E+02  0.133695233E+01  0.302253665E+00
     4
 # iter = 39500  time[fs]=39.50000
   C -0.274681011E+01  0.153773025E+00 -0.182628702E-01
   C  0.273482949E+01 -0.774149762E-01 -0.292342096E-01
   H -0.153231664E+02 -0.129942962E+01  0.607971901E+00
   H  0.149438460E+02  0.136907465E+01  0.309517498E+00
     4
 # iter = 40000  time[fs]=40.00000
   C -0.281936548E+01  0.157719701E+00 -0.194986614E-01
   C  0.280570264E+01 -0.805878959E-01 -0.299920949E-01
   H -0.156795831E+02 -0.133085999E+01  0.620800359E+00
   H  0.152899634E+02  0.140124671E+01  0.316801187E+00
     4
 # iter = 40500  time[fs]=40.50000
   C -0.289225664E+01  0.161683573E+00 -0.207336285E-01
   C  0.287691233E+01 -0.837760067E-01 -0.307503999E-01
   H -0.160363348E+02 -0.136231773E+01  0.633649237E+00
   H  0.156364459E+02  0.143346134E+01  0.324098854E+00
     4
 # iter = 41000  time[fs]=41.00000
   C -0.296546845E+01  0.165662348E+00 -0.219693765E-01
   C  0.294844056E+01 -0.869799367E-01 -0.315103688E-01
   H -0.163934151E+02 -0.139380976E+01  0.646509571E+00
   H  0.159832697E+02  0.146570866E+01  0.331401834E+00
     4
 # iter = 41500  time[fs]=41.50000
   C -0.303898567E+01  0.169655028E+00 -0.232062588E-01
   C  0.302027155E+01 -0.901992874E-01 -0.322721849E-01
   H -0.167508119E+02 -0.142533649E+01  0.659379039E+00
   H  0.163304185E+02  0.149798552E+01  0.338708087E+00
     4
 # iter = 42000  time[fs]=42.00000
   C -0.311279327E+01  0.173661496E+00 -0.244437789E-01
   C  0.309239129E+01 -0.934329748E-01 -0.330353142E-01
   H -0.171085092E+02 -0.145689392E+01  0.672259842E+00
   H  0.166778812E+02  0.153029331E+01  0.346020075E+00
     4
 # iter = 42500  time[fs]=42.50000
   C -0.318687731E+01  0.177681553E+00 -0.256815602E-01
   C  0.316478660E+01 -0.966800599E-01 -0.337993376E-01
   H -0.174664928E+02 -0.148847878E+01  0.685153551E+00
   H  0.170256470E+02  0.156263284E+01  0.353339616E+00
     4
 # iter = 43000  time[fs]=43.00000
   C -0.326122512E+01  0.181714616E+00 -0.269196395E-01
   C  0.323744483E+01 -0.999399974E-01 -0.345642015E-01
   H -0.178247514E+02 -0.152009010E+01  0.698059562E+00
   H  0.173737038E+02  0.159500281E+01  0.360666337E+00
     4
 # iter = 43500  time[fs]=43.50000
   C -0.333582501E+01  0.185759987E+00 -0.281581979E-01
   C  0.331035402E+01 -0.103212402E+00 -0.353299860E-01
   H -0.181832749E+02 -0.155172774E+01  0.710976518E+00
   H  0.177220392E+02  0.162740118E+01  0.367999094E+00
     4
 # iter = 44000  time[fs]=44.00000
   C -0.341066592E+01  0.189817098E+00 -0.293973152E-01
   C  0.338350302E+01 -0.106496833E+00 -0.360966916E-01
   H -0.185420535E+02 -0.158339109E+01  0.723903610E+00
   H  0.180706421E+02  0.165982650E+01  0.375337280E+00
     4
 # iter = 44500  time[fs]=44.50000
   C -0.348573740E+01  0.193885514E+00 -0.306369637E-01
   C  0.345688147E+01 -0.109792788E+00 -0.368642340E-01
   H -0.189010774E+02 -0.161507904E+01  0.736840614E+00
   H  0.184195026E+02  0.169227795E+01  0.382680861E+00
     4
 # iter = 45000  time[fs]=45.00000
   C -0.356102958E+01  0.197964835E+00 -0.318771039E-01
   C  0.353047963E+01 -0.113099783E+00 -0.376325248E-01
   H -0.192603372E+02 -0.164679049E+01  0.749787378E+00
   H  0.187686112E+02  0.172475482E+01  0.390029864E+00
     4
 # iter = 45500  time[fs]=45.50000
   C -0.363653325E+01  0.202054651E+00 -0.331177299E-01
   C  0.360428833E+01 -0.116417388E+00 -0.384015104E-01
   H -0.196198244E+02 -0.167852456E+01  0.762743585E+00
   H  0.191179590E+02  0.175725624E+01  0.397384140E+00
     4
 # iter = 46000  time[fs]=46.00000
   C -0.371223973E+01  0.206154554E+00 -0.343588544E-01
   C  0.367829892E+01 -0.119745214E+00 -0.391711579E-01
   H -0.199795307E+02 -0.171028052E+01  0.775708833E+00
   H  0.194675372E+02  0.178978129E+01  0.404743446E+00
     4
 # iter = 46500  time[fs]=46.50000
   C -0.378814086E+01  0.210264162E+00 -0.356004847E-01
   C  0.375250324E+01 -0.123082888E+00 -0.399414346E-01
   H -0.203394486E+02 -0.174205767E+01  0.788682758E+00
   H  0.198173379E+02  0.182232913E+01  0.412107566E+00
     4
 # iter = 47000  time[fs]=47.00000
   C -0.386422892E+01  0.214383120E+00 -0.368426184E-01
   C  0.382689361E+01 -0.126430051E+00 -0.407123032E-01
   H -0.206995707E+02 -0.177385529E+01  0.801665060E+00
   H  0.201673532E+02  0.185489899E+01  0.419476344E+00
     4
 # iter = 47500  time[fs]=47.50000
   C -0.394049662E+01  0.218511095E+00 -0.380852495E-01
   C  0.390146279E+01 -0.129786359E+00 -0.414837269E-01
   H -0.210598900E+02 -0.180567268E+01  0.814655469E+00
   H  0.205175758E+02  0.188749017E+01  0.426849641E+00
     4
 # iter = 48000  time[fs]=48.00000
   C -0.401693709E+01  0.222647770E+00 -0.393283733E-01
   C  0.397620391E+01 -0.133151489E+00 -0.422556733E-01
   H -0.214203999E+02 -0.183750920E+01  0.827653716E+00
   H  0.208679988E+02  0.192010196E+01  0.434227319E+00
     4
 # iter = 48500  time[fs]=48.50000
   C -0.409354381E+01  0.226792840E+00 -0.405719863E-01
   C  0.405111050E+01 -0.136525133E+00 -0.430281139E-01
   H -0.217810941E+02 -0.186936424E+01  0.840659541E+00
   H  0.212186156E+02  0.195273372E+01  0.441609235E+00
     4
 # iter = 49000  time[fs]=49.00000
   C -0.417031063E+01  0.230946016E+00 -0.418160843E-01
   C  0.412617642E+01 -0.139907000E+00 -0.438010221E-01
   H -0.221419666E+02 -0.190123721E+01  0.853672693E+00
   H  0.215694199E+02  0.198538481E+01  0.448995253E+00
     4
 # iter = 49500  time[fs]=49.50000
   C -0.424723171E+01  0.235107025E+00 -0.430606624E-01
   C  0.420139586E+01 -0.143296812E+00 -0.445743732E-01
   H -0.225030118E+02 -0.193312755E+01  0.866692936E+00
   H  0.219204058E+02  0.201805463E+01  0.456385247E+00
     4
 # iter = 50000  time[fs]=50.00000
   C -0.432430150E+01  0.239275605E+00 -0.443057149E-01
   C  0.427676331E+01 -0.146694306E+00 -0.453481435E-01
   H -0.228642242E+02 -0.196503475E+01  0.879720049E+00
   H  0.222715674E+02  0.205074260E+01  0.463779096E+00
     4
 # iter = 50500  time[fs]=50.50000
   C -0.440151477E+01  0.243451509E+00 -0.455512361E-01
   C  0.435227352E+01 -0.150099230E+00 -0.461223115E-01
   H -0.232255986E+02 -0.199695827E+01  0.892753816E+00
   H  0.226228994E+02  0.208344819E+01  0.471176685E+00
     4
 # iter = 51000  time[fs]=51.00000
   C -0.447886651E+01  0.247634498E+00 -0.467972198E-01
   C  0.442792155E+01 -0.153511342E+00 -0.468968570E-01
   H -0.235871301E+02 -0.202889765E+01  0.905794036E+00
   H  0.229743965E+02  0.211617087E+01  0.478577904E+00
     4
 # iter = 51500  time[fs]=51.50000
   C -0.455635198E+01  0.251824348E+00 -0.480436599E-01
   C  0.450370265E+01 -0.156930415E+00 -0.476717611E-01
   H -0.239488140E+02 -0.206085242E+01  0.918840513E+00
   H  0.233260538E+02  0.214891014E+01  0.485982647E+00
     4
 # iter = 52000  time[fs]=52.00000
   C -0.463396668E+01  0.256020843E+00 -0.492905502E-01
   C  0.457961235E+01 -0.160356231E+00 -0.484470065E-01
   H -0.243106458E+02 -0.209282213E+01  0.931893062E+00
   H  0.236778666E+02  0.218166552E+01  0.493390814E+00
     4
 # iter = 52500  time[fs]=52.50000
   C -0.471170631E+01  0.260223776E+00 -0.505378841E-01
   C  0.465564637E+01 -0.163788580E+00 -0.492225765E-01
   H -0.246726210E+02 -0.212480636E+01  0.944951505E+00
   H  0.240298302E+02  0.221443656E+01  0.500802307E+00
     4
 # iter = 53000  time[fs]=53.00000
   C -0.478956678E+01  0.264432951E+00 -0.517856552E-01
   C  0.473180063E+01 -0.167227263E+00 -0.499984559E-01
   H -0.250347357E+02 -0.215680471E+01  0.958015672E+00
   H  0.243819405E+02  0.224722282E+01  0.508217034E+00
     4
 # iter = 53500  time[fs]=53.50000
   C -0.486754419E+01  0.268648180E+00 -0.530338568E-01
   C  0.480807125E+01 -0.170672089E+00 -0.507746303E-01
   H -0.253969859E+02 -0.218881677E+01  0.971085400E+00
   H  0.247341931E+02  0.228002388E+01  0.515634906E+00
     4
 # iter = 54000  time[fs]=54.00000
   C -0.494563482E+01  0.272869284E+00 -0.542824823E-01
   C  0.488445453E+01 -0.174122877E+00 -0.515510861E-01
   H -0.257593677E+02 -0.222084219E+01  0.984160533E+00
   H  0.250865841E+02  0.231283933E+01  0.523055838E+00
     4
 # iter = 54500  time[fs]=54.50000
   C -0.502383513E+01  0.277096088E+00 -0.555315252E-01
   C  0.496094693E+01 -0.177579451E+00 -0.523278108E-01
   H -0.261218775E+02 -0.225288059E+01  0.997240922E+00
   H  0.254391097E+02  0.234566879E+01  0.530479748E+00
     4
 # iter = 55000  time[fs]=55.00000
   C -0.510214171E+01  0.281328430E+00 -0.567809789E-01
   C  0.503754508E+01 -0.181041645E+00 -0.531047923E-01
   H -0.264845118E+02 -0.228493164E+01  0.101032642E+01
   H  0.257917663E+02  0.237851189E+01  0.537906557E+00
     4
 # iter = 55500  time[fs]=55.50000
   C -0.518055134E+01  0.285566149E+00 -0.580308367E-01
   C  0.511424576E+01 -0.184509298E+00 -0.538820196E-01
   H -0.268472674E+02 -0.231699500E+01  0.102341690E+01
   H  0.261445502E+02  0.241136827E+01  0.545336189E+00
     4
 # iter = 56000  time[fs]=56.00000
   C -0.525906091E+01  0.289809096E+00 -0.592810922E-01
   C  0.519104587E+01 -0.187982256E+00 -0.546594820E-01
   H -0.272101409E+02 -0.234907036E+01  0.103651222E+01
   H  0.264974582E+02  0.244423759E+01  0.552768573E+00
     4
 # iter = 56500  time[fs]=56.50000
   C -0.533766745E+01  0.294057124E+00 -0.605317388E-01
   C  0.526794248E+01 -0.191460372E+00 -0.554371697E-01
   H -0.275731293E+02 -0.238115740E+01  0.104961226E+01
   H  0.268504869E+02  0.247711952E+01  0.560203637E+00
     4
 # iter = 57000  time[fs]=57.00000
   C -0.541636814E+01  0.298310093E+00 -0.617827702E-01
   C  0.534493274E+01 -0.194943504E+00 -0.562150733E-01
   H -0.279362297E+02 -0.241325584E+01  0.106271689E+01
   H  0.272036333E+02  0.251001374E+01  0.567641315E+00
     4
 # iter = 57500  time[fs]=57.50000
   C -0.549516024E+01  0.302567870E+00 -0.630341800E-01
   C  0.542201396E+01 -0.198431517E+00 -0.569931839E-01
   H -0.282994391E+02 -0.244536539E+01  0.107582599E+01
   H  0.275568943E+02  0.254291994E+01  0.575081543E+00
     4
 # iter = 58000  time[fs]=58.00000
   C -0.557404116E+01  0.306830326E+00 -0.642859620E-01
   C  0.549918354E+01 -0.201924281E+00 -0.577714933E-01
   H -0.286627548E+02 -0.247748578E+01  0.108893946E+01
   H  0.279102671E+02  0.257583783E+01  0.582524257E+00
     4
 # iter = 58500  time[fs]=58.50000
   C -0.565300840E+01  0.311097337E+00 -0.655381100E-01
   C  0.557643899E+01 -0.205421668E+00 -0.585499935E-01
   H -0.290261741E+02 -0.250961674E+01  0.110205719E+01
   H  0.282637489E+02  0.260876714E+01  0.589969397E+00
     4
 # iter = 59000  time[fs]=59.00000
   C -0.573205955E+01  0.315368784E+00 -0.667906179E-01
   C  0.565377793E+01 -0.208923559E+00 -0.593286770E-01
   H -0.293896946E+02 -0.254175802E+01  0.111517906E+01
   H  0.286173369E+02  0.264170757E+01  0.597416906E+00
     4
 # iter = 59500  time[fs]=59.50000
   C -0.581119232E+01  0.319644553E+00 -0.680434796E-01
   C  0.573119807E+01 -0.212429838E+00 -0.601075368E-01
   H -0.297533137E+02 -0.257390938E+01  0.112830499E+01
   H  0.289710286E+02  0.267465888E+01  0.604866727E+00
     4
 # iter = 60000  time[fs]=60.00000
   C -0.589040449E+01  0.323924532E+00 -0.692966893E-01
   C  0.580869720E+01 -0.215940393E+00 -0.608865663E-01
   H -0.301170291E+02 -0.260607057E+01  0.114143487E+01
   H  0.293248215E+02  0.270762080E+01  0.612318806E+00
     4
 # iter = 60500  time[fs]=60.50000
   C -0.596969394E+01  0.328208616E+00 -0.705502411E-01
   C  0.588627320E+01 -0.219455115E+00 -0.616657589E-01
   H -0.304808385E+02 -0.263824138E+01  0.115456861E+01
   H  0.296787133E+02  0.274059309E+01  0.619773092E+00
     4
 # iter = 61000  time[fs]=61.00000
   C -0.604905863E+01  0.332496703E+00 -0.718041294E-01
   C  0.596392406E+01 -0.222973902E+00 -0.624451089E-01
   H -0.308447397E+02 -0.267042158E+01  0.116770611E+01
   H  0.300327015E+02  0.277357551E+01  0.627229534E+00
     4
 # iter = 61500  time[fs]=61.50000
   C -0.612849659E+01  0.336788693E+00 -0.730583485E-01
   C  0.604164780E+01 -0.226496653E+00 -0.632246103E-01
   H -0.312087306E+02 -0.270261095E+01  0.118084730E+01
   H  0.303867840E+02  0.280656784E+01  0.634688084E+00
     4
 # iter = 62000  time[fs]=62.00000
   C -0.620800593E+01  0.341084493E+00 -0.743128930E-01
   C  0.611944256E+01 -0.230023272E+00 -0.640042579E-01
   H -0.315728091E+02 -0.273480930E+01  0.119399208E+01
   H  0.307409585E+02  0.283956985E+01  0.642148693E+00
     4
 # iter = 62500  time[fs]=62.50000
   C -0.628758484E+01  0.345384009E+00 -0.755677573E-01
   C  0.619730651E+01 -0.233553666E+00 -0.647840464E-01
   H -0.319369732E+02 -0.276701643E+01  0.120714038E+01
   H  0.310952231E+02  0.287258133E+01  0.649611318E+00
     4
 # iter = 63000  time[fs]=63.00000
   C -0.636723155E+01  0.349687154E+00 -0.768229362E-01
   C  0.627523792E+01 -0.237087745E+00 -0.655639708E-01
   H -0.323012210E+02 -0.279923214E+01  0.122029211E+01
   H  0.314495756E+02  0.290560207E+01  0.657075913E+00
     4
 # iter = 63500  time[fs]=63.50000
   C -0.644694439E+01  0.353993842E+00 -0.780784245E-01
   C  0.635323510E+01 -0.240625423E+00 -0.663440267E-01
   H -0.326655506E+02 -0.283145624E+01  0.123344720E+01
   H  0.318040141E+02  0.293863187E+01  0.664542436E+00
     4
 # iter = 64000  time[fs]=64.00000
   C -0.652672172E+01  0.358303990E+00 -0.793342170E-01
   C  0.643129643E+01 -0.244166615E+00 -0.671242094E-01
   H -0.330299603E+02 -0.286368856E+01  0.124660559E+01
   H  0.321585368E+02  0.297167053E+01  0.672010847E+00
     4
 # iter = 64500  time[fs]=64.50000
   C -0.660656197E+01  0.362617520E+00 -0.805903087E-01
   C  0.650942035E+01 -0.247711241E+00 -0.679045147E-01
   H -0.333944484E+02 -0.289592892E+01  0.125976718E+01
   H  0.325131418E+02  0.300471788E+01  0.679481104E+00
     4
 # iter = 65000  time[fs]=65.00000
   C -0.668646364E+01  0.366934353E+00 -0.818466948E-01
   C  0.658760536E+01 -0.251259223E+00 -0.686849386E-01
   H -0.337590130E+02 -0.292817715E+01  0.127293192E+01
   H  0.328678273E+02  0.303777372E+01  0.686953170E+00
     4
 # iter = 65500  time[fs]=65.50000
   C -0.676642524E+01  0.371254415E+00 -0.831033704E-01
   C  0.666584999E+01 -0.254810484E+00 -0.694654773E-01
   H -0.341236527E+02 -0.296043310E+01  0.128609974E+01
   H  0.332225917E+02  0.307083788E+01  0.694427007E+00
     4
 # iter = 66000  time[fs]=66.00000
   C -0.684644539E+01  0.375577635E+00 -0.843603307E-01
   C  0.674415285E+01 -0.258364953E+00 -0.702461269E-01
   H -0.344883657E+02 -0.299269659E+01  0.129927058E+01
   H  0.335774332E+02  0.310391019E+01  0.701902579E+00
     4
 # iter = 66500  time[fs]=66.50000
   C -0.692652270E+01  0.379903942E+00 -0.856175713E-01
   C  0.682251257E+01 -0.261922559E+00 -0.710268841E-01
   H -0.348531507E+02 -0.302496749E+01  0.131244437E+01
   H  0.339323503E+02  0.313699048E+01  0.709379850E+00
     4
 # iter = 67000  time[fs]=67.00000
   C -0.700665588E+01  0.384233270E+00 -0.868750874E-01
   C  0.690092785E+01 -0.265483232E+00 -0.718077454E-01
   H -0.352180061E+02 -0.305724563E+01  0.132562105E+01
   H  0.342873413E+02  0.317007860E+01  0.716858787E+00
     4
 # iter = 67500  time[fs]=67.50000
   C -0.708684363E+01  0.388565552E+00 -0.881328747E-01
   C  0.697939742E+01 -0.269046907E+00 -0.725887076E-01
   H -0.355829304E+02 -0.308953088E+01  0.133880056E+01
   H  0.346424049E+02  0.320317438E+01  0.724339356E+00
     4
 # iter = 68000  time[fs]=68.00000
   C -0.716708474E+01  0.392900725E+00 -0.893909288E-01
   C  0.705792006E+01 -0.272613520E+00 -0.733697676E-01
   H -0.359479224E+02 -0.312182309E+01  0.135198285E+01
   H  0.349975395E+02  0.323627768E+01  0.731821525E+00
     4
 # iter = 68500  time[fs]=68.50000
   C -0.724737800E+01  0.397238729E+00 -0.906492454E-01
   C  0.713649458E+01 -0.276183007E+00 -0.741509225E-01
   H -0.363129806E+02 -0.315412213E+01  0.136516786E+01
   H  0.353527437E+02  0.326938835E+01  0.739305262E+00
     4
 # iter = 69000  time[fs]=69.00000
   C -0.732772228E+01  0.401579504E+00 -0.919078205E-01
   C  0.721511983E+01 -0.279755310E+00 -0.749321694E-01
   H -0.366781037E+02 -0.318642786E+01  0.137835554E+01
   H  0.357080162E+02  0.330250625E+01  0.746790538E+00
     4
 # iter = 69500  time[fs]=69.50000
   C -0.740811645E+01  0.405922992E+00 -0.931666498E-01
   C  0.729379470E+01 -0.283330370E+00 -0.757135057E-01
   H -0.370432905E+02 -0.321874016E+01  0.139154583E+01
   H  0.360633555E+02  0.333563123E+01  0.754277324E+00
     4
 # iter = 70000  time[fs]=70.00000
   C -0.748855944E+01  0.410269138E+00 -0.944257294E-01
   C  0.737251813E+01 -0.286908130E+00 -0.764949287E-01
   H -0.374085397E+02 -0.325105891E+01  0.140473868E+01
   H  0.364187604E+02  0.336876317E+01  0.761765589E+00
     4
 # iter = 70500  time[fs]=70.50000
   C -0.756905019E+01  0.414617887E+00 -0.956850554E-01
   C  0.745128906E+01 -0.290488535E+00 -0.772764359E-01
   H -0.377738501E+02 -0.328338397E+01  0.141793405E+01
   H  0.367742297E+02  0.340190193E+01  0.769255308E+00
     4
 # iter = 71000  time[fs]=71.00000
   C -0.764958770E+01  0.418969187E+00 -0.969446239E-01
   C  0.753010650E+01 -0.294071532E+00 -0.780580250E-01
   H -0.381392205E+02 -0.331571524E+01  0.143113189E+01
   H  0.371297620E+02  0.343504738E+01  0.776746452E+00
     4
 # iter = 71500  time[fs]=71.50000
   C -0.773017099E+01  0.423322986E+00 -0.982044311E-01
   C  0.760896946E+01 -0.297657069E+00 -0.788396936E-01
   H -0.385046499E+02 -0.334805260E+01  0.144433214E+01
   H  0.374853563E+02  0.346819941E+01  0.784238995E+00
     4
 # iter = 72000  time[fs]=72.00000
   C -0.781079910E+01  0.427679237E+00 -0.994644735E-01
   C  0.768787701E+01 -0.301245096E+00 -0.796214395E-01
   H -0.388701371E+02 -0.338039593E+01  0.145753477E+01
   H  0.378410113E+02  0.350135789E+01  0.791732912E+00
     4
 # iter = 72500  time[fs]=72.50000
   C -0.789147111E+01  0.432037889E+00 -0.100724747E+00
   C  0.776682821E+01 -0.304835565E+00 -0.804032607E-01
   H -0.392356810E+02 -0.341274513E+01  0.147073973E+01
   H  0.381967259E+02  0.353452271E+01  0.799228178E+00
     4
 # iter = 73000  time[fs]=73.00000
   C -0.797218613E+01  0.436398898E+00 -0.101985249E+00
   C  0.784582218E+01 -0.308428427E+00 -0.811851551E-01
   H -0.396012807E+02 -0.344510010E+01  0.148394698E+01
   H  0.385524991E+02  0.356769374E+01  0.806724769E+00
     4
 # iter = 73500  time[fs]=73.50000
   C -0.805294329E+01  0.440762217E+00 -0.103245975E+00
   C  0.792485806E+01 -0.312023637E+00 -0.819671207E-01
   H -0.399669350E+02 -0.347746073E+01  0.149715648E+01
   H  0.389083297E+02  0.360087089E+01  0.814222661E+00
     4
 # iter = 74000  time[fs]=74.00000
   C -0.813374173E+01  0.445127802E+00 -0.104506922E+00
   C  0.800393501E+01 -0.315621150E+00 -0.827491556E-01
   H -0.403326430E+02 -0.350982692E+01  0.151036819E+01
   H  0.392642168E+02  0.363405404E+01  0.821721831E+00
     4
 # iter = 74500  time[fs]=74.50000
   C -0.821458066E+01  0.449495610E+00 -0.105768087E+00
   C  0.808305220E+01 -0.319220923E+00 -0.835312580E-01
   H -0.406984038E+02 -0.354219857E+01  0.152358206E+01
   H  0.396201593E+02  0.366724308E+01  0.829222257E+00
     4
 # iter = 75000  time[fs]=75.00000
   C -0.829545927E+01  0.453865601E+00 -0.107029467E+00
   C  0.816220887E+01 -0.322822913E+00 -0.843134262E-01
   H -0.410642164E+02 -0.357457559E+01  0.153679806E+01
   H  0.399761562E+02  0.370043792E+01  0.836723917E+00
     4
 # iter = 75500  time[fs]=75.50000
   C -0.837637678E+01  0.458237733E+00 -0.108291058E+00
   C  0.824140422E+01 -0.326427080E+00 -0.850956585E-01
   H -0.414300798E+02 -0.360695789E+01  0.155001615E+01
   H  0.403322066E+02  0.373363846E+01  0.844226789E+00
     4
 # iter = 76000  time[fs]=76.00000
   C -0.845733246E+01  0.462611967E+00 -0.109552856E+00
   C  0.832063752E+01 -0.330033383E+00 -0.858779532E-01
   H -0.417959933E+02 -0.363934537E+01  0.156323630E+01
   H  0.406883096E+02  0.376684460E+01  0.851730854E+00
     4
 # iter = 76500  time[fs]=76.50000
   C -0.853832556E+01  0.466988264E+00 -0.110814860E+00
   C  0.839990805E+01 -0.333641784E+00 -0.866603088E-01
   H -0.421619560E+02 -0.367173795E+01  0.157645846E+01
   H  0.410444642E+02  0.380005624E+01  0.859236091E+00
     4
 # iter = 77000  time[fs]=77.00000
   C -0.861935539E+01  0.471366588E+00 -0.112077067E+00
   C  0.847921510E+01 -0.337252244E+00 -0.874427239E-01
   H -0.425279669E+02 -0.370413555E+01  0.158968262E+01
   H  0.414006695E+02  0.383327329E+01  0.866742481E+00
     4
 # iter = 77500  time[fs]=77.50000
   C -0.870042125E+01  0.475746902E+00 -0.113339472E+00
   C  0.855855797E+01 -0.340864726E+00 -0.882251968E-01
   H -0.428940254E+02 -0.373653808E+01  0.160290872E+01
   H  0.417569248E+02  0.386649566E+01  0.874250004E+00
     4
 # iter = 78000  time[fs]=78.00000
   C -0.878152247E+01  0.480129170E+00 -0.114602074E+00
   C  0.863793602E+01 -0.344479196E+00 -0.890077263E-01
   H -0.432601305E+02 -0.376894545E+01  0.161613675E+01
   H  0.421132291E+02  0.389972327E+01  0.881758641E+00
     4
 # iter = 78500  time[fs]=78.50000
   C -0.886265841E+01  0.484513359E+00 -0.115864869E+00
   C  0.871734858E+01 -0.348095617E+00 -0.897903109E-01
   H -0.436262816E+02 -0.380135759E+01  0.162936666E+01
   H  0.424695816E+02  0.393295603E+01  0.889268375E+00
     4
 # iter = 79000  time[fs]=79.00000
   C -0.894382842E+01  0.488899435E+00 -0.117127855E+00
   C  0.879679503E+01 -0.351713956E+00 -0.905729494E-01
   H -0.439924777E+02 -0.383377443E+01  0.164259842E+01
   H  0.428259816E+02  0.396619385E+01  0.896779187E+00
     4
 # iter = 79500  time[fs]=79.50000
   C -0.902503189E+01  0.493287364E+00 -0.118391028E+00
   C  0.887627475E+01 -0.355334180E+00 -0.913556404E-01
   H -0.443587184E+02 -0.386619588E+01  0.165583202E+01
   H  0.431824282E+02  0.399943665E+01  0.904291061E+00
     4
 # iter = 80000  time[fs]=80.00000
   C -0.910626822E+01  0.497677116E+00 -0.119654387E+00
   C  0.895578714E+01 -0.358956256E+00 -0.921383828E-01
   H -0.447250026E+02 -0.389862187E+01  0.166906741E+01
   H  0.435389207E+02  0.403268436E+01  0.911803979E+00
