     4
 # iter = 25000  time[fs]=25.00000
   C -0.105663231E+01  0.721734392E-03 -0.210600043E-01
   C  0.994809903E+00 -0.183766895E-01  0.506918621E-03
   H -0.540246401E+01 -0.552796947E+00  0.438308120E+00
   H  0.536672917E+01  0.119800419E+00 -0.465769843E+00
     4
 # iter = 25500  time[fs]=25.50000
   C -0.111010036E+01  0.174019498E-02 -0.229805497E-01
   C  0.103660578E+01 -0.209251008E-01  0.923092224E-03
   H -0.574496795E+01 -0.594062605E+00  0.459617045E+00
   H  0.567992657E+01  0.120954021E+00 -0.503185547E+00
     4
 # iter = 26000  time[fs]=26.00000
   C -0.116715526E+01  0.200381739E-02 -0.257629077E-01
   C  0.107996691E+01 -0.246505414E-01  0.247788453E-03
   H -0.609780623E+01 -0.641250165E+00  0.475980816E+00
   H  0.599337045E+01  0.116864798E+00 -0.546563754E+00
     4
 # iter = 26500  time[fs]=26.50000
   C -0.122513756E+01  0.393256318E-02 -0.269808210E-01
   C  0.112808300E+01 -0.261301009E-01  0.190083003E-02
   H -0.644438362E+01 -0.678265745E+00  0.503381954E+00
   H  0.632255856E+01  0.123607382E+00 -0.579756966E+00
     4
 # iter = 27000  time[fs]=27.00000
   C -0.128370678E+01  0.764306179E-02 -0.265118244E-01
   C  0.118090800E+01 -0.251941883E-01  0.604815956E-02
   H -0.678344444E+01 -0.704266045E+00  0.542572673E+00
   H  0.666776139E+01  0.141963305E+00 -0.601918816E+00
     4
 # iter = 27500  time[fs]=27.50000
   C -0.134446164E+01  0.113293387E-01 -0.261564494E-01
   C  0.123569790E+01 -0.243889755E-01  0.101395876E-01
   H -0.712653508E+01 -0.731138800E+00  0.581590231E+00
   H  0.701653925E+01  0.159947055E+00 -0.624976916E+00
     4
 # iter = 28000  time[fs]=28.00000
   C -0.140849288E+01  0.137127575E-01 -0.271880896E-01
   C  0.129047157E+01 -0.255155960E-01  0.123699875E-01
   H -0.748176380E+01 -0.767288412E+00  0.611965250E+00
   H  0.736001913E+01  0.169076479E+00 -0.657363436E+00
     4
 # iter = 28500  time[fs]=28.50000
   C -0.147511995E+01  0.153057027E-01 -0.290892609E-01
   C  0.134579534E+01 -0.278449490E-01  0.134646905E-01
   H -0.784542163E+01 -0.809271115E+00  0.637083252E+00
   H  0.770128595E+01  0.172766512E+00 -0.695621158E+00
     4
 # iter = 29000  time[fs]=29.00000
   C -0.154293036E+01  0.173697290E-01 -0.305935367E-01
   C  0.140330959E+01 -0.295897013E-01  0.152074378E-01
   H -0.820887613E+01 -0.848689986E+00  0.665289403E+00
   H  0.804844748E+01  0.179408317E+00 -0.731322520E+00
     4
 # iter = 29500  time[fs]=29.50000
   C -0.161135350E+01  0.203389465E-01 -0.312622518E-01
   C  0.146349963E+01 -0.301318972E-01  0.182126773E-01
   H -0.856900800E+01 -0.882630421E+00  0.699453376E+00
   H  0.840414604E+01  0.191895165E+00 -0.761541889E+00
     4
 # iter = 30000  time[fs]=30.00000
   C -0.168088013E+01  0.235988469E-01 -0.317056864E-01
   C  0.152538179E+01 -0.303354661E-01  0.216130592E-01
   H -0.892967121E+01 -0.915123567E+00  0.735505192E+00
   H  0.876408260E+01  0.206153046E+00 -0.790324135E+00
     4
 # iter = 30500  time[fs]=30.50000
   C -0.175208367E+01  0.264643787E-01 -0.326049487E-01
   C  0.158788428E+01 -0.311642072E-01  0.244415244E-01
   H -0.929521109E+01 -0.950670859E+00  0.768909207E+00
   H  0.912351437E+01  0.217639200E+00 -0.822186010E+00
     4
 # iter = 31000  time[fs]=31.00000
   C -0.182487539E+01  0.289239615E-01 -0.339679245E-01
   C  0.165089743E+01 -0.326304895E-01  0.266826556E-01
   H -0.966553336E+01 -0.989318089E+00  0.799588897E+00
   H  0.948219706E+01  0.226285588E+00 -0.857172578E+00
     4
 # iter = 31500  time[fs]=31.50000
   C -0.189872155E+01  0.314210982E-01 -0.353476580E-01
   C  0.171496393E+01 -0.341038720E-01  0.289640521E-01
   H -0.100375476E+02 -0.102810104E+01  0.830480771E+00
   H  0.984293017E+01  0.235047552E+00 -0.892308117E+00
     4
 # iter = 32000  time[fs]=32.00000
   C -0.197326626E+01  0.342301787E-01 -0.364665502E-01
   C  0.178039570E+01 -0.351931565E-01  0.316742460E-01
   H -0.104092990E+02 -0.106517782E+01  0.863401880E+00
   H  0.102074050E+02  0.245755979E+00 -0.925743426E+00
     4
 # iter = 32500  time[fs]=32.50000
   C -0.204855431E+01  0.372326142E-01 -0.374402164E-01
   C  0.184695665E+01 -0.360627161E-01  0.346463566E-01
   H -0.107814488E+02 -0.110131072E+01  0.897567747E+00
   H  0.105747143E+02  0.257629777E+00 -0.958242994E+00
     4
 # iter = 33000  time[fs]=33.00000
   C -0.212476149E+01  0.401856584E-01 -0.385086452E-01
   C  0.191424175E+01 -0.370525842E-01  0.375380007E-01
   H -0.111554927E+02 -0.113808600E+01  0.931372158E+00
   H  0.109431375E+02  0.269062409E+00 -0.991398291E+00
     4
 # iter = 33500  time[fs]=33.50000
   C -0.220189915E+01  0.430173101E-01 -0.397412766E-01
   C  0.198209313E+01 -0.382616949E-01  0.402480538E-01
   H -0.115318057E+02 -0.117596108E+01  0.964339575E+00
   H  0.113120995E+02  0.279581691E+00 -0.102566786E+01
     4
 # iter = 34000  time[fs]=34.00000
   C -0.227981053E+01  0.458292473E-01 -0.410340514E-01
   C  0.205060356E+01 -0.395437309E-01  0.429207952E-01
   H -0.119096223E+02 -0.121424504E+01  0.997144452E+00
   H  0.116821888E+02  0.289869253E+00 -0.106035769E+01
     4
 # iter = 34500  time[fs]=34.50000
   C -0.235834603E+01  0.487209524E-01 -0.422852752E-01
   C  0.211986733E+01 -0.407556646E-01  0.456973530E-01
   H -0.122881994E+02 -0.125226295E+01  0.103044668E+01
   H  0.120539874E+02  0.300591690E+00 -0.109478992E+01
     4
 # iter = 35000  time[fs]=35.00000
   C -0.243746267E+01  0.516897003E-01 -0.434956187E-01
   C  0.218983841E+01 -0.418990817E-01  0.485743686E-01
   H -0.126674781E+02 -0.129001797E+01  0.106422941E+01
   H  0.124274049E+02  0.311735947E+00 -0.112896728E+01
     4
 # iter = 35500  time[fs]=35.50000
   C -0.251717725E+01  0.546769449E-01 -0.447217185E-01
   C  0.226039559E+01 -0.430546105E-01  0.514695587E-01
   H -0.130477758E+02 -0.132788404E+01  0.109810616E+01
   H  0.128019864E+02  0.322917648E+00 -0.116326467E+01
     4
 # iter = 36000  time[fs]=36.00000
   C -0.259748379E+01  0.576504381E-01 -0.459940462E-01
   C  0.233145814E+01 -0.442658547E-01  0.543377757E-01
   H -0.134292413E+02 -0.136606200E+01  0.113186460E+01
   H  0.131774572E+02  0.333926900E+00 -0.119788329E+01
     4
 # iter = 36500  time[fs]=36.50000
   C -0.267833448E+01  0.606230035E-01 -0.472981240E-01
   C  0.240301196E+01 -0.455128525E-01  0.571975405E-01
   H -0.138117303E+02 -0.140445522E+01  0.116559081E+01
   H  0.135538472E+02  0.344853073E+00 -0.123272574E+01
     4
 # iter = 37000  time[fs]=37.00000
   C -0.275967394E+01  0.636178775E-01 -0.486091733E-01
   C  0.247506039E+01 -0.467610492E-01  0.600820629E-01
   H -0.141950342E+02 -0.144289894E+01  0.119943977E+01
   H  0.139312601E+02  0.355854465E+00 -0.126762636E+01
     4
 # iter = 37500  time[fs]=37.50000
   C -0.284146744E+01  0.666402340E-01 -0.499205821E-01
   C  0.254758359E+01 -0.480015325E-01  0.629989980E-01
   H -0.145790680E+02 -0.148134885E+01  0.123344681E+01
   H  0.143096835E+02  0.366969065E+00 -0.130254032E+01
     4
 # iter = 38000  time[fs]=38.00000
   C -0.292369750E+01  0.696803152E-01 -0.512407658E-01
   C  0.262054281E+01 -0.492465976E-01  0.659348746E-01
   H -0.149638496E+02 -0.151986021E+01  0.126754834E+01
   H  0.146890092E+02  0.378135383E+00 -0.133752279E+01
     4
 # iter = 38500  time[fs]=38.50000
   C -0.300634745E+01  0.727296742E-01 -0.525769168E-01
   C  0.269390310E+01 -0.505067829E-01  0.688780533E-01
   H -0.153493915E+02 -0.155848023E+01  0.130168942E+01
   H  0.150691412E+02  0.389300432E+00 -0.137262087E+01
     4
 # iter = 39000  time[fs]=39.00000
   C -0.308939440E+01  0.757879918E-01 -0.539281807E-01
   C  0.276764273E+01 -0.517812301E-01  0.718283617E-01
   H -0.157356556E+02 -0.159720293E+01  0.133586888E+01
   H  0.154500403E+02  0.400465043E+00 -0.140782829E+01
     4
 # iter = 39500  time[fs]=39.50000
   C -0.317281356E+01  0.788585531E-01 -0.552901739E-01
   C  0.284174671E+01 -0.530640691E-01  0.747907032E-01
   H -0.161225826E+02 -0.163599899E+01  0.137010937E+01
   H  0.158316938E+02  0.411653816E+00 -0.144311535E+01
     4
 # iter = 40000  time[fs]=40.00000
   C -0.325658372E+01  0.819426572E-01 -0.566605677E-01
   C  0.291619866E+01 -0.543523135E-01  0.777671571E-01
   H -0.165101291E+02 -0.167485274E+01  0.140442035E+01
   H  0.162140785E+02  0.422877978E+00 -0.147846610E+01
     4
 # iter = 40500  time[fs]=40.50000
   C -0.334068774E+01  0.850389500E-01 -0.580397500E-01
   C  0.299097978E+01 -0.556467970E-01  0.807560383E-01
   H -0.168982715E+02 -0.171376654E+01  0.143879366E+01
   H  0.165971555E+02  0.434130964E+00 -0.151388266E+01
     4
 # iter = 41000  time[fs]=41.00000
   C -0.342511017E+01  0.881456869E-01 -0.594285589E-01
   C  0.306607191E+01 -0.569489714E-01  0.837550943E-01
   H -0.172869909E+02 -0.175274575E+01  0.147321852E+01
   H  0.169808855E+02  0.445403462E+00 -0.154937023E+01
     4
 # iter = 41500  time[fs]=41.50000
   C -0.350983573E+01  0.912621465E-01 -0.608268630E-01
   C  0.314145944E+01 -0.582589020E-01  0.867635065E-01
   H -0.176762637E+02 -0.179178934E+01  0.150769089E+01
   H  0.173652376E+02  0.456692827E+00 -0.158492755E+01
     4
 # iter = 42000  time[fs]=42.00000
   C -0.359484952E+01  0.943883097E-01 -0.622338795E-01
   C  0.321712875E+01 -0.595757185E-01  0.897814364E-01
   H -0.180660634E+02 -0.183089200E+01  0.154221133E+01
   H  0.177501875E+02  0.468000953E+00 -0.162054910E+01
     4
 # iter = 42500  time[fs]=42.50000
   C -0.368013769E+01  0.975240837E-01 -0.636489462E-01
   C  0.329306702E+01 -0.608987066E-01  0.928089297E-01
   H -0.184563656E+02 -0.187004923E+01  0.157677990E+01
   H  0.181357118E+02  0.479329127E+00 -0.165623019E+01
     4
 # iter = 43000  time[fs]=43.00000
   C -0.376568764E+01  0.100669066E+00 -0.650717530E-01
   C  0.336926184E+01 -0.622276373E-01  0.958455851E-01
   H -0.188471494E+02 -0.190925886E+01  0.161139455E+01
   H  0.185217864E+02  0.490676471E+00 -0.169196846E+01
     4
 # iter = 43500  time[fs]=43.50000
   C -0.385148768E+01  0.103822760E+00 -0.665021263E-01
   C  0.344570143E+01 -0.635624620E-01  0.988908562E-01
   H -0.192383962E+02 -0.194851967E+01  0.164605259E+01
   H  0.189083880E+02  0.502041370E+00 -0.172776253E+01
     4
 # iter = 44000  time[fs]=44.00000
   C -0.393752679E+01  0.106984767E+00 -0.679398306E-01
   C  0.352237485E+01 -0.649030336E-01  0.101944328E+00
   H -0.196300878E+02 -0.198783001E+01  0.168075194E+01
   H  0.192954950E+02  0.513422771E+00 -0.176361058E+01
     4
 # iter = 44500  time[fs]=44.50000
   C -0.402379456E+01  0.110154790E+00 -0.693845623E-01
   C  0.359927196E+01 -0.662490990E-01  0.105005722E+00
   H -0.200222065E+02 -0.202718781E+01  0.171549117E+01
   H  0.196830877E+02  0.524820218E+00 -0.179951040E+01
     4
 # iter = 45000  time[fs]=45.00000
   C -0.411028121E+01  0.113332559E+00 -0.708360251E-01
   C  0.367638326E+01 -0.676004050E-01  0.108074788E+00
   H -0.204147358E+02 -0.206659104E+01  0.175026901E+01
   H  0.200711476E+02  0.536233342E+00 -0.183545980E+01
     4
 # iter = 45500  time[fs]=45.50000
   C -0.419697756E+01  0.116517793E+00 -0.722939645E-01
   C  0.375369976E+01 -0.689567493E-01  0.111151252E+00
   H -0.208076599E+02 -0.210603797E+01  0.178508407E+01
   H  0.204596569E+02  0.547661617E+00 -0.187145692E+01
     4
 # iter = 46000  time[fs]=46.00000
   C -0.428387501E+01  0.119710208E+00 -0.737581550E-01
   C  0.383121301E+01 -0.703179618E-01  0.114234832E+00
   H -0.212009644E+02 -0.214552707E+01  0.181993494E+01
   H  0.208485988E+02  0.559104443E+00 -0.190750007E+01
     4
 # iter = 46500  time[fs]=46.50000
   C -0.437096544E+01  0.122909539E+00 -0.752283799E-01
   C  0.390891504E+01 -0.716838774E-01  0.117325265E+00
   H -0.215946354E+02 -0.218505685E+01  0.185482029E+01
   H  0.212379575E+02  0.570561268E+00 -0.194358767E+01
     4
 # iter = 47000  time[fs]=47.00000
   C -0.445824118E+01  0.126115541E+00 -0.767044268E-01
   C  0.398679834E+01 -0.730543295E-01  0.120422312E+00
   H -0.219886597E+02 -0.222462588E+01  0.188973891E+01
   H  0.216277179E+02  0.582031614E+00 -0.197971815E+01
     4
 # iter = 47500  time[fs]=47.50000
   C -0.454569502E+01  0.129327984E+00 -0.781860917E-01
   C  0.406485584E+01 -0.744291571E-01  0.123525745E+00
   H -0.223830248E+02 -0.226423277E+01  0.192468969E+01
   H  0.220178659E+02  0.593515041E+00 -0.201589001E+01
     4
 # iter = 48000  time[fs]=48.00000
   C -0.463332011E+01  0.132546646E+00 -0.796731825E-01
   C  0.414308084E+01 -0.758082092E-01  0.126635350E+00
   H -0.227777190E+02 -0.230387623E+01  0.195967152E+01
   H  0.224083880E+02  0.605011119E+00 -0.205210185E+01
     4
 # iter = 48500  time[fs]=48.50000
   C -0.472111000E+01  0.135771318E+00 -0.811655172E-01
   C  0.422146703E+01 -0.771913438E-01  0.129750919E+00
   H -0.231727309E+02 -0.234355502E+01  0.199468338E+01
   H  0.227992712E+02  0.616519432E+00 -0.208835232E+01
     4
 # iter = 49000  time[fs]=49.00000
   C -0.480905859E+01  0.139001798E+00 -0.826629232E-01
   C  0.430000841E+01 -0.785784259E-01  0.132872254E+00
   H -0.235680500E+02 -0.238326798E+01  0.202972426E+01
   H  0.231905036E+02  0.628039582E+00 -0.212464016E+01
     4
 # iter = 49500  time[fs]=49.50000
   C -0.489716009E+01  0.142237895E+00 -0.841652352E-01
   C  0.437869933E+01 -0.799693263E-01  0.135999166E+00
   H -0.239636660E+02 -0.242301400E+01  0.206479324E+01
   H  0.235820735E+02  0.639571194E+00 -0.216096417E+01
     4
 # iter = 50000  time[fs]=50.00000
   C -0.498540900E+01  0.145479427E+00 -0.856722957E-01
   C  0.445753439E+01 -0.813639214E-01  0.139131478E+00
   H -0.243595693E+02 -0.246279202E+01  0.209988941E+01
   H  0.239739698E+02  0.651113910E+00 -0.219732319E+01
     4
 # iter = 50500  time[fs]=50.50000
   C -0.507380012E+01  0.148726222E+00 -0.871839543E-01
   C  0.453650850E+01 -0.827620936E-01  0.142269019E+00
   H -0.247557508E+02 -0.250260101E+01  0.213501193E+01
   H  0.243661822E+02  0.662667389E+00 -0.223371611E+01
     4
 # iter = 51000  time[fs]=51.00000
   C -0.516232850E+01  0.151978114E+00 -0.887000678E-01
   C  0.461561683E+01 -0.841637306E-01  0.145411626E+00
   H -0.251522016E+02 -0.254244003E+01  0.217015999E+01
   H  0.247587006E+02  0.674231305E+00 -0.227014191E+01
     4
 # iter = 51500  time[fs]=51.50000
   C -0.525098945E+01  0.155234945E+00 -0.902204991E-01
   C  0.469485476E+01 -0.855687251E-01  0.148559143E+00
   H -0.255489133E+02 -0.258230815E+01  0.220533279E+01
   H  0.251515154E+02  0.685805346E+00 -0.230659957E+01
     4
 # iter = 52000  time[fs]=52.00000
   C -0.533977850E+01  0.158496564E+00 -0.917451174E-01
   C  0.477421793E+01 -0.869769746E-01  0.151711422E+00
   H -0.259458781E+02 -0.262220450E+01  0.224052961E+01
   H  0.255446176E+02  0.697389213E+00 -0.234308813E+01
     4
 # iter = 52500  time[fs]=52.50000
   C -0.542869140E+01  0.161762826E+00 -0.932737974E-01
   C  0.485370216E+01 -0.883883811E-01  0.154868320E+00
   H -0.263430881E+02 -0.266212823E+01  0.227574974E+01
   H  0.259379984E+02  0.708982621E+00 -0.237960669E+01
     4
 # iter = 53000  time[fs]=53.00000
   C -0.551772408E+01  0.165033595E+00 -0.948064193E-01
   C  0.493330350E+01 -0.898028507E-01  0.158029701E+00
   H -0.267405363E+02 -0.270207853E+01  0.231099248E+01
   H  0.263316496E+02  0.720585297E+00 -0.241615437E+01
     4
 # iter = 53500  time[fs]=53.50000
   C -0.560687270E+01  0.168308737E+00 -0.963428685E-01
   C  0.501301816E+01 -0.912202936E-01  0.161195435E+00
   H -0.271382155E+02 -0.274205465E+01  0.234625720E+01
   H  0.267255632E+02  0.732196979E+00 -0.245273033E+01
     4
 # iter = 54000  time[fs]=54.00000
   C -0.569613357E+01  0.171588126E+00 -0.978830350E-01
   C  0.509284253E+01 -0.926406237E-01  0.164365397E+00
   H -0.275361190E+02 -0.278205585E+01  0.238154328E+01
   H  0.271197315E+02  0.743817417E+00 -0.248933377E+01
     4
 # iter = 54500  time[fs]=54.50000
   C -0.578550317E+01  0.174871642E+00 -0.994268136E-01
   C  0.517277318E+01 -0.940637587E-01  0.167539468E+00
   H -0.279342406E+02 -0.282208141E+01  0.241685010E+01
   H  0.275141474E+02  0.755446369E+00 -0.252596392E+01
     4
 # iter = 55000  time[fs]=55.00000
   C -0.587497815E+01  0.178159167E+00 -0.100974103E+00
   C  0.525280682E+01 -0.954896193E-01  0.170717532E+00
   H -0.283325741E+02 -0.286213067E+01  0.245217711E+01
   H  0.279088038E+02  0.767083605E+00 -0.256262005E+01
     4
 # iter = 55500  time[fs]=55.50000
   C -0.596455530E+01  0.181450591E+00 -0.102524807E+00
   C  0.533294031E+01 -0.969181297E-01  0.173899481E+00
   H -0.287311135E+02 -0.290220298E+01  0.248752375E+01
   H  0.283036940E+02  0.778728903E+00 -0.259930145E+01
     4
 # iter = 56000  time[fs]=56.00000
   C -0.605423155E+01  0.184745807E+00 -0.104078831E+00
   C  0.541317064E+01 -0.983492170E-01  0.177085207E+00
   H -0.291298533E+02 -0.294229771E+01  0.252288950E+01
   H  0.286988116E+02  0.790382049E+00 -0.263600743E+01
     4
 # iter = 56500  time[fs]=56.50000
   C -0.614400397E+01  0.188044711E+00 -0.105636088E+00
   C  0.549349495E+01 -0.997828114E-01  0.180274609E+00
   H -0.295287880E+02 -0.298241426E+01  0.255827385E+01
   H  0.290941505E+02  0.802042840E+00 -0.267273736E+01
     4
 # iter = 57000  time[fs]=57.00000
   C -0.623386974E+01  0.191347206E+00 -0.107196490E+00
   C  0.557391049E+01 -0.101218846E+00  0.183467591E+00
   H -0.299279125E+02 -0.302255207E+01  0.259367631E+01
   H  0.294897047E+02  0.813711079E+00 -0.270949059E+01
     4
 # iter = 57500  time[fs]=57.50000
   C -0.632382618E+01  0.194653195E+00 -0.108759955E+00
   C  0.565441462E+01 -0.102657255E+00  0.186664057E+00
   H -0.303272217E+02 -0.306271058E+01  0.262909641E+01
   H  0.298854685E+02  0.825386575E+00 -0.274626654E+01
     4
 # iter = 58000  time[fs]=58.00000
   C -0.641387071E+01  0.197962589E+00 -0.110326404E+00
   C  0.573500481E+01 -0.104097977E+00  0.189863919E+00
   H -0.307267108E+02 -0.310288925E+01  0.266453371E+01
   H  0.302814364E+02  0.837069146E+00 -0.278306461E+01
     4
 # iter = 58500  time[fs]=58.50000
   C -0.650400085E+01  0.201275299E+00 -0.111895760E+00
   C  0.581567866E+01 -0.105540953E+00  0.193067088E+00
   H -0.311263753E+02 -0.314308758E+01  0.269998778E+01
   H  0.306776033E+02  0.848758618E+00 -0.281988425E+01
     4
 # iter = 59000  time[fs]=59.00000
   C -0.659421423E+01  0.204591241E+00 -0.113467950E+00
   C  0.589643382E+01 -0.106986124E+00  0.196273482E+00
   H -0.315262106E+02 -0.318330508E+01  0.273545818E+01
   H  0.310739641E+02  0.860454820E+00 -0.285672493E+01
     4
 # iter = 59500  time[fs]=59.50000
   C -0.668450857E+01  0.207910334E+00 -0.115042903E+00
   C  0.597726808E+01 -0.108433435E+00  0.199483020E+00
   H -0.319262125E+02 -0.322354127E+01  0.277094453E+01
   H  0.314705138E+02  0.872157589E+00 -0.289358612E+01
     4
 # iter = 60000  time[fs]=60.00000
   C -0.677488168E+01  0.211232498E+00 -0.116620550E+00
   C  0.605817930E+01 -0.109882834E+00  0.202695625E+00
   H -0.323263769E+02 -0.326379569E+01  0.280644643E+01
   H  0.318672478E+02  0.883866768E+00 -0.293046733E+01
     4
 # iter = 60500  time[fs]=60.50000
   C -0.686533146E+01  0.214557660E+00 -0.118200826E+00
   C  0.613916542E+01 -0.111334267E+00  0.205911220E+00
   H -0.327266998E+02 -0.330406791E+01  0.284196352E+01
   H  0.322641615E+02  0.895582206E+00 -0.296736807E+01
     4
 # iter = 61000  time[fs]=61.00000
   C -0.695585590E+01  0.217885745E+00 -0.119783668E+00
   C  0.622022445E+01 -0.112787686E+00  0.209129736E+00
   H -0.331271774E+02 -0.334435750E+01  0.287749543E+01
   H  0.326612507E+02  0.907303756E+00 -0.300428788E+01
     4
 # iter = 61500  time[fs]=61.50000
   C -0.704645303E+01  0.221216684E+00 -0.121369013E+00
   C  0.630135450E+01 -0.114243043E+00  0.212351101E+00
   H -0.335278059E+02 -0.338466405E+01  0.291304181E+01
   H  0.330585110E+02  0.919031276E+00 -0.304122632E+01
     4
 # iter = 62000  time[fs]=62.00000
   C -0.713712100E+01  0.224550409E+00 -0.122956803E+00
   C  0.638255374E+01 -0.115700292E+00  0.215575248E+00
   H -0.339285818E+02 -0.342498716E+01  0.294860232E+01
   H  0.334559386E+02  0.930764630E+00 -0.307818296E+01
     4
 # iter = 62500  time[fs]=62.50000
   C -0.722785800E+01  0.227886854E+00 -0.124546980E+00
   C  0.646382041E+01 -0.117159388E+00  0.218802113E+00
   H -0.343295017E+02 -0.346532646E+01  0.298417665E+01
   H  0.338535293E+02  0.942503686E+00 -0.311515736E+01
     4
 # iter = 63000  time[fs]=63.00000
   C -0.731866230E+01  0.231225957E+00 -0.126139490E+00
   C  0.654515281E+01 -0.118620287E+00  0.222031634E+00
   H -0.347305622E+02 -0.350568157E+01  0.301976448E+01
   H  0.342512795E+02  0.954248316E+00 -0.315214914E+01
     4
 # iter = 63500  time[fs]=63.50000
   C -0.740953223E+01  0.234567656E+00 -0.127734279E+00
   C  0.662654930E+01 -0.120082949E+00  0.225263749E+00
   H -0.351317601E+02 -0.354605214E+01  0.305536551E+01
   H  0.346491855E+02  0.965998396E+00 -0.318915789E+01
     4
 # iter = 64000  time[fs]=64.00000
   C -0.750046616E+01  0.237911892E+00 -0.129331296E+00
   C  0.670800830E+01 -0.121547333E+00  0.228498399E+00
   H -0.355330924E+02 -0.358643782E+01  0.309097944E+01
   H  0.350472438E+02  0.977753809E+00 -0.322618326E+01
     4
 # iter = 64500  time[fs]=64.50000
   C -0.759146256E+01  0.241258608E+00 -0.130930491E+00
   C  0.678952831E+01 -0.123013400E+00  0.231735530E+00
   H -0.359345560E+02 -0.362683828E+01  0.312660600E+01
   H  0.354454510E+02  0.989514437E+00 -0.326322486E+01
     4
 # iter = 65000  time[fs]=65.00000
   C -0.768251992E+01  0.244607749E+00 -0.132531815E+00
   C  0.687110785E+01 -0.124481113E+00  0.234975084E+00
   H -0.363361480E+02 -0.366725320E+01  0.316224490E+01
   H  0.358438037E+02  0.100128017E+01 -0.330028234E+01
     4
 # iter = 65500  time[fs]=65.50000
   C -0.777363679E+01  0.247959262E+00 -0.134135222E+00
   C  0.695274551E+01 -0.125950435E+00  0.238217011E+00
   H -0.367378657E+02 -0.370768227E+01  0.319789588E+01
   H  0.362422988E+02  0.101305090E+01 -0.333735537E+01
     4
 # iter = 66000  time[fs]=66.00000
   C -0.786481178E+01  0.251313095E+00 -0.135740668E+00
   C  0.703443991E+01 -0.127421331E+00  0.241461258E+00
   H -0.371397062E+02 -0.374812517E+01  0.323355868E+01
   H  0.366409331E+02  0.102482652E+01 -0.337444362E+01
     4
 # iter = 66500  time[fs]=66.50000
   C -0.795604354E+01  0.254669198E+00 -0.137348107E+00
   C  0.711618975E+01 -0.128893767E+00  0.244707775E+00
   H -0.375416670E+02 -0.378858163E+01  0.326923307E+01
   H  0.370397038E+02  0.103660692E+01 -0.341154675E+01
     4
 # iter = 67000  time[fs]=67.00000
   C -0.804733076E+01  0.258027522E+00 -0.138957499E+00
   C  0.719799375E+01 -0.130367710E+00  0.247956515E+00
   H -0.379437456E+02 -0.382905136E+01  0.330491878E+01
   H  0.374386079E+02  0.104839202E+01 -0.344866447E+01
     4
 # iter = 67500  time[fs]=67.50000
   C -0.813867218E+01  0.261388021E+00 -0.140568801E+00
   C  0.727985067E+01 -0.131843127E+00  0.251207431E+00
   H -0.383459394E+02 -0.386953407E+01  0.334061560E+01
   H  0.378376425E+02  0.106018172E+01 -0.348579648E+01
     4
 # iter = 68000  time[fs]=68.00000
   C -0.823006659E+01  0.264750650E+00 -0.142181974E+00
   C  0.736175933E+01 -0.133319989E+00  0.254460477E+00
   H -0.387482460E+02 -0.391002952E+01  0.337632329E+01
   H  0.382368051E+02  0.107197591E+01 -0.352294247E+01
     4
 # iter = 68500  time[fs]=68.50000
   C -0.832151280E+01  0.268115363E+00 -0.143796980E+00
   C  0.744371856E+01 -0.134798264E+00  0.257715611E+00
   H -0.391506632E+02 -0.395053743E+01  0.341204164E+01
   H  0.386360929E+02  0.108377452E+01 -0.356010217E+01
     4
 # iter = 69000  time[fs]=69.00000
   C -0.841300968E+01  0.271482119E+00 -0.145413781E+00
   C  0.752572726E+01 -0.136277924E+00  0.260972789E+00
   H -0.395531887E+02 -0.399105756E+01  0.344777043E+01
   H  0.390355034E+02  0.109557746E+01 -0.359727530E+01
     4
 # iter = 69500  time[fs]=69.50000
   C -0.850455612E+01  0.274850876E+00 -0.147032341E+00
   C  0.760778435E+01 -0.137758941E+00  0.264231970E+00
   H -0.399558203E+02 -0.403158966E+01  0.348350945E+01
   H  0.394350341E+02  0.110738463E+01 -0.363446160E+01
     4
 # iter = 70000  time[fs]=70.00000
   C -0.859615105E+01  0.278221593E+00 -0.148652625E+00
   C  0.768988878E+01 -0.139241287E+00  0.267493115E+00
   H -0.403585560E+02 -0.407213350E+01  0.351925851E+01
   H  0.398346826E+02  0.111919596E+01 -0.367166081E+01
     4
 # iter = 70500  time[fs]=70.50000
   C -0.868779344E+01  0.281594233E+00 -0.150274598E+00
   C  0.777203954E+01 -0.140724935E+00  0.270756184E+00
   H -0.407613935E+02 -0.411268885E+01  0.355501740E+01
   H  0.402344465E+02  0.113101138E+01 -0.370887267E+01
     4
 # iter = 71000  time[fs]=71.00000
   C -0.877948229E+01  0.284968756E+00 -0.151898228E+00
   C  0.785423565E+01 -0.142209860E+00  0.274021139E+00
   H -0.411643310E+02 -0.415325548E+01  0.359078595E+01
   H  0.406343237E+02  0.114283079E+01 -0.374609695E+01
     4
 # iter = 71500  time[fs]=71.50000
   C -0.887121661E+01  0.288345126E+00 -0.153523481E+00
   C  0.793647616E+01 -0.143696036E+00  0.277287945E+00
   H -0.415673666E+02 -0.419383319E+01  0.362656396E+01
   H  0.410343119E+02  0.115465412E+01 -0.378333340E+01
     4
 # iter = 72000  time[fs]=72.00000
   C -0.896299548E+01  0.291723307E+00 -0.155150328E+00
   C  0.801876015E+01 -0.145183440E+00  0.280556565E+00
   H -0.419704982E+02 -0.423442176E+01  0.366235125E+01
   H  0.414344090E+02  0.116648131E+01 -0.382058180E+01
     4
 # iter = 72500  time[fs]=72.50000
   C -0.905481797E+01  0.295103265E+00 -0.156778737E+00
   C  0.810108672E+01 -0.146672047E+00  0.283826965E+00
   H -0.423737242E+02 -0.427502098E+01  0.369814766E+01
   H  0.418346129E+02  0.117831228E+01 -0.385784192E+01
     4
 # iter = 73000  time[fs]=73.00000
   C -0.914668320E+01  0.298484965E+00 -0.158408679E+00
   C  0.818345501E+01 -0.148161835E+00  0.287099111E+00
   H -0.427770427E+02 -0.431563066E+01  0.373395301E+01
   H  0.422349215E+02  0.119014696E+01 -0.389511355E+01
     4
 # iter = 73500  time[fs]=73.50000
   C -0.923859031E+01  0.301868376E+00 -0.160040125E+00
   C  0.826586418E+01 -0.149652781E+00  0.290372971E+00
   H -0.431804520E+02 -0.435625060E+01  0.376976714E+01
   H  0.426353330E+02  0.120198529E+01 -0.393239646E+01
     4
 # iter = 74000  time[fs]=74.00000
   C -0.933053846E+01  0.305253465E+00 -0.161673048E+00
   C  0.834831340E+01 -0.151144864E+00  0.293648513E+00
   H -0.435839504E+02 -0.439688062E+01  0.380558989E+01
   H  0.430358453E+02  0.121382719E+01 -0.396969047E+01
     4
 # iter = 74500  time[fs]=74.50000
   C -0.942252685E+01  0.308640200E+00 -0.163307419E+00
   C  0.843080190E+01 -0.152638062E+00  0.296925706E+00
   H -0.439875363E+02 -0.443752054E+01  0.384142110E+01
   H  0.434364568E+02  0.122567261E+01 -0.400699536E+01
     4
 # iter = 75000  time[fs]=75.00000
   C -0.951455468E+01  0.312028553E+00 -0.164943214E+00
   C  0.851332890E+01 -0.154132354E+00  0.300204520E+00
   H -0.443912081E+02 -0.447817017E+01  0.387726063E+01
   H  0.438371654E+02  0.123752148E+01 -0.404431094E+01
     4
 # iter = 75500  time[fs]=75.50000
   C -0.960662120E+01  0.315418493E+00 -0.166580405E+00
   C  0.859589365E+01 -0.155627722E+00  0.303484925E+00
   H -0.447949643E+02 -0.451882934E+01  0.391310832E+01
   H  0.442379696E+02  0.124937374E+01 -0.408163702E+01
     4
 # iter = 76000  time[fs]=76.00000
   C -0.969872565E+01  0.318809992E+00 -0.168218968E+00
   C  0.867849543E+01 -0.157124145E+00  0.306766894E+00
   H -0.451988033E+02 -0.455949789E+01  0.394896403E+01
   H  0.446388675E+02  0.126122933E+01 -0.411897342E+01
     4
 # iter = 76500  time[fs]=76.50000
   C -0.979086731E+01  0.322203022E+00 -0.169858878E+00
   C  0.876113352E+01 -0.158621604E+00  0.310050398E+00
   H -0.456027237E+02 -0.460017566E+01  0.398482762E+01
   H  0.450398576E+02  0.127308820E+01 -0.415631995E+01
     4
 # iter = 77000  time[fs]=77.00000
   C -0.988304549E+01  0.325597556E+00 -0.171500112E+00
   C  0.884380726E+01 -0.160120081E+00  0.313335410E+00
   H -0.460067240E+02 -0.464086247E+01  0.402069895E+01
   H  0.454409382E+02  0.128495028E+01 -0.419367645E+01
     4
 # iter = 77500  time[fs]=77.50000
   C -0.997525950E+01  0.328993568E+00 -0.173142647E+00
   C  0.892651596E+01 -0.161619559E+00  0.316621905E+00
   H -0.464108029E+02 -0.468155817E+01  0.405657790E+01
   H  0.458421076E+02  0.129681553E+01 -0.423104274E+01
     4
 # iter = 78000  time[fs]=78.00000
   C -0.100675087E+02  0.332391031E+00 -0.174786460E+00
   C  0.900925898E+01 -0.163120018E+00  0.319909856E+00
   H -0.468149590E+02 -0.472226263E+01  0.409246433E+01
   H  0.462433645E+02  0.130868389E+01 -0.426841865E+01
     4
 # iter = 78500  time[fs]=78.50000
   C -0.101597924E+02  0.335789921E+00 -0.176431528E+00
   C  0.909203568E+01 -0.164621444E+00  0.323199238E+00
   H -0.472191910E+02 -0.476297567E+01  0.412835812E+01
   H  0.466447072E+02  0.132055531E+01 -0.430580402E+01
     4
 # iter = 79000  time[fs]=79.00000
   C -0.102521100E+02  0.339190214E+00 -0.178077832E+00
   C  0.917484546E+01 -0.166123818E+00  0.326490028E+00
   H -0.476234976E+02 -0.480369717E+01  0.416425914E+01
   H  0.470461344E+02  0.133242974E+01 -0.434319870E+01
     4
 # iter = 79500  time[fs]=79.50000
   C -0.103444608E+02  0.342591886E+00 -0.179725349E+00
   C  0.925768772E+01 -0.167627124E+00  0.329782201E+00
   H -0.480278775E+02 -0.484442698E+01  0.420016727E+01
   H  0.474476446E+02  0.134430712E+01 -0.438060252E+01
     4
 # iter = 80000  time[fs]=80.00000
   C -0.104368444E+02  0.345994913E+00 -0.181374060E+00
   C  0.934056187E+01 -0.169131348E+00  0.333075734E+00
   H -0.484323295E+02 -0.488516496E+01  0.423608240E+01
   H  0.478492363E+02  0.135618742E+01 -0.441801534E+01
