     4
 # iter = 25000  time[fs]=25.00000
   C -0.990965672E+00  0.109138631E-01  0.858510007E-02
   C  0.975372806E+00 -0.285059284E-01 -0.222246419E-01
   H -0.518524293E+01  0.425657416E+00  0.647246567E+00
   H  0.527423167E+01 -0.318278131E+00 -0.585883226E+00
     4
 # iter = 25500  time[fs]=25.50000
   C -0.103887720E+01  0.781144160E-02  0.575309948E-02
   C  0.101666532E+01 -0.300145767E-01 -0.208762516E-01
   H -0.552429642E+01  0.442648518E+00  0.680410306E+00
   H  0.558032298E+01 -0.347461133E+00 -0.627459348E+00
     4
 # iter = 26000  time[fs]=26.00000
   C -0.109070660E+01  0.374636318E-02  0.193765829E-02
   C  0.105993133E+01 -0.325137455E-01 -0.204959794E-01
   H -0.587146425E+01  0.454474636E+00  0.708537575E+00
   H  0.588367795E+01 -0.382224123E+00 -0.674763397E+00
     4
 # iter = 26500  time[fs]=26.50000
   C -0.114320518E+01  0.171251465E-02  0.131944377E-03
   C  0.110772057E+01 -0.331949033E-01 -0.182746969E-01
   H -0.621035172E+01  0.477188654E+00  0.747666530E+00
   H  0.620011547E+01 -0.406454511E+00 -0.711666590E+00
     4
 # iter = 27000  time[fs]=27.00000
   C -0.119599511E+01  0.185198467E-02  0.477754385E-03
   C  0.115994093E+01 -0.319125314E-01 -0.140667570E-01
   H -0.653990582E+01  0.511563206E+00  0.798557745E+00
   H  0.653018911E+01 -0.419340902E+00 -0.737343508E+00
     4
 # iter = 27500  time[fs]=27.50000
   C -0.125109870E+01  0.192638142E-02  0.736736667E-03
   C  0.121429852E+01 -0.307440802E-01 -0.994984054E-02
   H -0.687187814E+01  0.545614741E+00  0.849217708E+00
   H  0.686170920E+01 -0.432845212E+00 -0.763743825E+00
     4
 # iter = 28000  time[fs]=28.00000
   C -0.130990379E+01  0.351235841E-03 -0.675262146E-03
   C  0.126912727E+01 -0.311587170E-01 -0.739358629E-02
   H -0.721455090E+01  0.570861642E+00  0.891156235E+00
   H  0.718601829E+01 -0.455428836E+00 -0.799318498E+00
     4
 # iter = 28500  time[fs]=28.50000
   C -0.137159773E+01 -0.223880904E-02 -0.312306893E-02
   C  0.132484796E+01 -0.325568355E-01 -0.579901787E-02
   H -0.756434078E+01  0.590711145E+00  0.927772992E+00
   H  0.750638452E+01 -0.483657382E+00 -0.840624366E+00
     4
 # iter = 29000  time[fs]=29.00000
   C -0.143445677E+01 -0.428069776E-02 -0.504295511E-02
   C  0.138276341E+01 -0.334739444E-01 -0.370238631E-02
   H -0.791271244E+01  0.613543641E+00  0.967441694E+00
   H  0.783107352E+01 -0.509121964E+00 -0.879245040E+00
     4
 # iter = 29500  time[fs]=29.50000
   C -0.149779779E+01 -0.523615119E-02 -0.589588730E-02
   C  0.144323558E+01 -0.334026223E-01 -0.597091749E-03
   H -0.825664377E+01  0.642246760E+00  0.101304418E+01
   H  0.816286695E+01 -0.528913987E+00 -0.912265323E+00
     4
 # iter = 30000  time[fs]=30.00000
   C -0.156225095E+01 -0.586573133E-02 -0.644163071E-02
   C  0.150542869E+01 -0.330480209E-01  0.281084522E-02
   H -0.860009170E+01  0.672747022E+00  0.106050195E+01
   H  0.849758999E+01 -0.547094380E+00 -0.943740254E+00
     4
 # iter = 30500  time[fs]=30.50000
   C -0.162854664E+01 -0.701719955E-02 -0.752712802E-02
   C  0.156843803E+01 -0.331973785E-01  0.573330133E-02
   H -0.894749512E+01  0.700502931E+00  0.110526907E+01
   H  0.883060994E+01 -0.568194362E+00 -0.978195833E+00
     4
 # iter = 31000  time[fs]=31.00000
   C -0.169659250E+01 -0.870382665E-02 -0.916482447E-02
   C  0.163214847E+01 -0.338600550E-01  0.816003854E-02
   H -0.929883254E+01  0.725444267E+00  0.114727136E+01
   H  0.916177951E+01 -0.592271461E+00 -0.101568499E+01
     4
 # iter = 31500  time[fs]=31.50000
   C -0.176574281E+01 -0.103750137E-01 -0.108033039E-01
   C  0.169698081E+01 -0.345198821E-01  0.106063660E-01
   H -0.965107069E+01  0.750521951E+00  0.118945618E+01
   H  0.949398393E+01 -0.616360725E+00 -0.105323871E+01
     4
 # iter = 32000  time[fs]=32.00000
   C -0.183557073E+01 -0.116896666E-01 -0.121006760E-01
   C  0.176316945E+01 -0.348565442E-01  0.133917664E-01
   H -0.100023082E+02  0.777563669E+00  0.123364802E+01
   H  0.982899111E+01 -0.638622616E+00 -0.108901381E+01
     4
 # iter = 32500  time[fs]=32.50000
   C -0.190614461E+01 -0.127935706E-01 -0.132019596E-01
   C  0.183050266E+01 -0.350042664E-01  0.163812126E-01
   H -0.103532610E+02  0.805787563E+00  0.127906216E+01
   H  0.101659628E+02 -0.659830486E+00 -0.112378036E+01
     4
 # iter = 33000  time[fs]=33.00000
   C -0.197769409E+01 -0.139863370E-01 -0.144060318E-01
   C  0.189863242E+01 -0.352410621E-01  0.192959240E-01
   H -0.107054761E+02  0.833587194E+00  0.132408958E+01
   H  0.105032405E+02 -0.681583896E+00 -0.115913494E+01
     4
 # iter = 33500  time[fs]=33.50000
   C -0.205024387E+01 -0.153560377E-01 -0.158002651E-01
   C  0.196741441E+01 -0.356478466E-01  0.220542568E-01
   H -0.110593730E+02  0.860489616E+00  0.136825500E+01
   H  0.108403052E+02 -0.704348669E+00 -0.119554069E+01
     4
 # iter = 34000  time[fs]=34.00000
   C -0.212360943E+01 -0.167755839E-01 -0.172569056E-01
   C  0.203691075E+01 -0.361050171E-01  0.247751235E-01
   H -0.114142226E+02  0.887174824E+00  0.141223627E+01
   H  0.111777957E+02 -0.727437349E+00 -0.123230773E+01
     4
 # iter = 34500  time[fs]=34.50000
   C -0.219761424E+01 -0.181206468E-01 -0.186509953E-01
   C  0.210718608E+01 -0.364957102E-01  0.275747357E-01
   H -0.117693155E+02  0.914307904E+00  0.145669655E+01
   H  0.115163399E+02 -0.750178002E+00 -0.126876189E+01
     4
 # iter = 35000  time[fs]=35.00000
   C -0.227221315E+01 -0.193935757E-01 -0.199842895E-01
   C  0.217819147E+01 -0.368213740E-01  0.304510305E-01
   H -0.121246248E+02  0.941874979E+00  0.150162018E+01
   H  0.118558892E+02 -0.772578798E+00 -0.130490933E+01
     4
 # iter = 35500  time[fs]=35.50000
   C -0.234743444E+01 -0.206659246E-01 -0.213277824E-01
   C  0.224981748E+01 -0.371481313E-01  0.333373062E-01
   H -0.124804982E+02  0.969491255E+00  0.154662074E+01
   H  0.121960264E+02 -0.795019633E+00 -0.134112808E+01
     4
 # iter = 36000  time[fs]=36.00000
   C -0.242327757E+01 -0.219767040E-01 -0.227199575E-01
   C  0.232198873E+01 -0.375118455E-01  0.361971549E-01
   H -0.128371122E+02  0.996946332E+00  0.159148632E+01
   H  0.125365118E+02 -0.817706273E+00 -0.137762220E+01
     4
 # iter = 36500  time[fs]=36.50000
   C -0.249968957E+01 -0.233091215E-01 -0.241435267E-01
   C  0.239468516E+01 -0.378964060E-01  0.390461756E-01
   H -0.131943466E+02  0.102432887E+01  0.163630422E+01
   H  0.128774070E+02 -0.840545538E+00 -0.141429696E+01
     4
 # iter = 37000  time[fs]=37.00000
   C -0.257660765E+01 -0.246335255E-01 -0.255683717E-01
   C  0.246790167E+01 -0.382737760E-01  0.419119241E-01
   H -0.135520151E+02  0.105179646E+01  0.168123075E+01
   H  0.132188449E+02 -0.863375604E+00 -0.145098906E+01
     4
 # iter = 37500  time[fs]=37.50000
   C -0.265399414E+01 -0.259426872E-01 -0.269868258E-01
   C  0.254161492E+01 -0.386368951E-01  0.448010094E-01
   H -0.139100535E+02  0.107938652E+01  0.172630216E+01
   H  0.135608397E+02 -0.886155217E+00 -0.148765594E+01
     4
 # iter = 38000  time[fs]=38.00000
   C -0.273183238E+01 -0.272479197E-01 -0.284097899E-01
   C  0.261578663E+01 -0.389960492E-01  0.477027210E-01
   H -0.142684990E+02  0.110703713E+01  0.177145544E+01
   H  0.139033083E+02 -0.908942834E+00 -0.152435479E+01
     4
 # iter = 38500  time[fs]=38.50000
   C -0.281010630E+01 -0.285589502E-01 -0.298466038E-01
   C  0.269038220E+01 -0.393600877E-01  0.506078109E-01
   H -0.146273822E+02  0.113469492E+01  0.181663619E+01
   H  0.142461772E+02 -0.931788624E+00 -0.156113465E+01
     4
 # iter = 39000  time[fs]=39.00000
   C -0.288879182E+01 -0.298754727E-01 -0.312965973E-01
   C  0.276537835E+01 -0.397285364E-01  0.535163785E-01
   H -0.149866814E+02  0.116236030E+01  0.186184389E+01
   H  0.145894284E+02 -0.954689131E+00 -0.159799099E+01
     4
 # iter = 39500  time[fs]=39.50000
   C -0.296786222E+01 -0.311927509E-01 -0.327546915E-01
   C  0.284075768E+01 -0.400968192E-01  0.564326478E-01
   H -0.153463525E+02  0.119005746E+01  0.190710185E+01
   H  0.149330690E+02 -0.977617307E+00 -0.163489577E+01
     4
 # iter = 40000  time[fs]=40.00000
   C -0.304729490E+01 -0.325085434E-01 -0.342183225E-01
   C  0.291650210E+01 -0.404627133E-01  0.593585096E-01
   H -0.157063664E+02  0.121779727E+01  0.195242012E+01
   H  0.152770937E+02 -0.100055963E+01 -0.167183454E+01
     4
 # iter = 40500  time[fs]=40.50000
   C -0.312707210E+01 -0.338239283E-01 -0.356882648E-01
   C  0.299259187E+01 -0.408271152E-01  0.622927558E-01
   H -0.160667126E+02  0.124557284E+01  0.199779105E+01
   H  0.156214806E+02 -0.102352054E+01 -0.170881086E+01
     4
 # iter = 41000  time[fs]=41.00000
   C -0.320717789E+01 -0.351404986E-01 -0.371658254E-01
   C  0.306900811E+01 -0.411914208E-01  0.652336964E-01
   H -0.164273846E+02  0.127337456E+01  0.204320430E+01
   H  0.159662060E+02 -0.104650733E+01 -0.174583122E+01
     4
 # iter = 41500  time[fs]=41.50000
   C -0.328759635E+01 -0.364586081E-01 -0.386510885E-01
   C  0.314573432E+01 -0.415558860E-01  0.681807987E-01
   H -0.167883704E+02  0.130119951E+01  0.208865629E+01
   H  0.163112539E+02 -0.106952076E+01 -0.178289562E+01
     4
 # iter = 42000  time[fs]=42.00000
   C -0.336831184E+01 -0.377777677E-01 -0.401433106E-01
   C  0.322275587E+01 -0.419199950E-01  0.711343172E-01
   H -0.171496542E+02  0.132904930E+01  0.213414799E+01
   H  0.166566135E+02 -0.109255717E+01 -0.181999969E+01
     4
 # iter = 42500  time[fs]=42.50000
   C -0.344930985E+01 -0.390976057E-01 -0.416418800E-01
   C  0.330005905E+01 -0.422833533E-01  0.740944003E-01
   H -0.175112217E+02  0.135692498E+01  0.217967985E+01
   H  0.170022741E+02 -0.111561362E+01 -0.185713982E+01
     4
 # iter = 43000  time[fs]=43.00000
   C -0.353057725E+01 -0.404181575E-01 -0.431466055E-01
   C  0.337763072E+01 -0.426459564E-01  0.770608194E-01
   H -0.178730615E+02  0.138482542E+01  0.222525021E+01
   H  0.173482239E+02 -0.113868940E+01 -0.189431467E+01
     4
 # iter = 43500  time[fs]=43.50000
   C -0.361210187E+01 -0.417396001E-01 -0.446574498E-01
   C  0.345545842E+01 -0.430079409E-01  0.800332181E-01
   H -0.182351638E+02  0.141274881E+01  0.227085670E+01
   H  0.176944506E+02 -0.116178467E+01 -0.193152379E+01
     4
 # iter = 44000  time[fs]=44.00000
   C -0.369387227E+01 -0.430620095E-01 -0.461742863E-01
   C  0.353353060E+01 -0.433693567E-01  0.830113388E-01
   H -0.185975187E+02  0.144069387E+01  0.231649757E+01
   H  0.180409432E+02 -0.118489908E+01 -0.196876628E+01
     4
 # iter = 44500  time[fs]=44.50000
   C -0.377587760E+01 -0.443853547E-01 -0.476968921E-01
   C  0.361183651E+01 -0.437301603E-01  0.859950281E-01
   H -0.189601164E+02  0.146865996E+01  0.236217169E+01
   H  0.183876920E+02 -0.120803176E+01 -0.200604075E+01
     4
 # iter = 45000  time[fs]=45.00000
   C -0.385810768E+01 -0.457095922E-01 -0.492250421E-01
   C  0.369036608E+01 -0.440903022E-01  0.889841491E-01
   H -0.193229477E+02  0.149664653E+01  0.240787807E+01
   H  0.187346877E+02 -0.123118184E+01 -0.204334582E+01
     4
 # iter = 45500  time[fs]=45.50000
   C -0.394055299E+01 -0.470347113E-01 -0.507585537E-01
   C  0.376910985E+01 -0.444497684E-01  0.919785393E-01
   H -0.196860039E+02  0.152465288E+01  0.245361559E+01
   H  0.190819213E+02 -0.125434867E+01 -0.208068036E+01
     4
 # iter = 46000  time[fs]=46.00000
   C -0.402320458E+01 -0.483607194E-01 -0.522972708E-01
   C  0.384805885E+01 -0.448085655E-01  0.949780246E-01
   H -0.200492771E+02  0.155267824E+01  0.249938310E+01
   H  0.194293845E+02 -0.127753173E+01 -0.211804341E+01
     4
 # iter = 46500  time[fs]=46.50000
   C -0.410605404E+01 -0.496876183E-01 -0.538410403E-01
   C  0.392720470E+01 -0.451666987E-01  0.979824410E-01
   H -0.204127595E+02  0.158072190E+01  0.254517950E+01
   H  0.197770691E+02 -0.130073050E+01 -0.215543403E+01
     4
 # iter = 47000  time[fs]=47.00000
   C -0.418909341E+01 -0.510153995E-01 -0.553897066E-01
   C  0.400653947E+01 -0.455241664E-01  0.100991639E+00
   H -0.207764438E+02  0.160878325E+01  0.259100381E+01
   H  0.201249674E+02 -0.132394446E+01 -0.219285129E+01
     4
 # iter = 47500  time[fs]=47.50000
   C -0.427231521E+01 -0.523440513E-01 -0.569431181E-01
   C  0.408605571E+01 -0.458809664E-01  0.104005478E+00
   H -0.211403232E+02  0.163686170E+01  0.263685511E+01
   H  0.204730724E+02 -0.134717310E+01 -0.223029430E+01
     4
 # iter = 48000  time[fs]=48.00000
   C -0.435571237E+01 -0.536735628E-01 -0.585011311E-01
   C  0.416574637E+01 -0.462370998E-01  0.107023819E+00
   H -0.215043911E+02  0.166495669E+01  0.268273252E+01
   H  0.208213770E+02 -0.137041592E+01 -0.226776220E+01
     4
 # iter = 48500  time[fs]=48.50000
   C -0.443927819E+01 -0.550039243E-01 -0.600636091E-01
   C  0.424560478E+01 -0.465925700E-01  0.110046531E+00
   H -0.218686412E+02  0.169306768E+01  0.272863519E+01
   H  0.211698749E+02 -0.139367249E+01 -0.230525420E+01
     4
 # iter = 49000  time[fs]=49.00000
   C -0.452300636E+01 -0.563351254E-01 -0.616304213E-01
   C  0.432562465E+01 -0.469473818E-01  0.113073484E+00
   H -0.222330675E+02  0.172119415E+01  0.277456231E+01
   H  0.215185597E+02 -0.141694237E+01 -0.234276953E+01
     4
 # iter = 49500  time[fs]=49.50000
   C -0.460689089E+01 -0.576671549E-01 -0.632014418E-01
   C  0.440580001E+01 -0.473015402E-01  0.116104556E+00
   H -0.225976645E+02  0.174933562E+01  0.282051311E+01
   H  0.218674255E+02 -0.144022515E+01 -0.238030749E+01
     4
 # iter = 50000  time[fs]=50.00000
   C -0.469092611E+01 -0.590000009E-01 -0.647765491E-01
   C  0.448612522E+01 -0.476550506E-01  0.119139630E+00
   H -0.229624268E+02  0.177749162E+01  0.286648686E+01
   H  0.222164666E+02 -0.146352043E+01 -0.241786736E+01
     4
 # iter = 50500  time[fs]=50.50000
   C -0.477510665E+01 -0.603336513E-01 -0.663556266E-01
   C  0.456659492E+01 -0.480079192E-01  0.122178591E+00
   H -0.233273491E+02  0.180566170E+01  0.291248285E+01
   H  0.225656778E+02 -0.148682785E+01 -0.245544850E+01
     4
 # iter = 51000  time[fs]=51.00000
   C -0.485942738E+01 -0.616680940E-01 -0.679385626E-01
   C  0.464720403E+01 -0.483601525E-01  0.125221332E+00
   H -0.236924266E+02  0.183384543E+01  0.295850042E+01
   H  0.229150537E+02 -0.151014704E+01 -0.249305026E+01
     4
 # iter = 51500  time[fs]=51.50000
   C -0.494388348E+01 -0.630033165E-01 -0.695252495E-01
   C  0.472794771E+01 -0.487117578E-01  0.128267747E+00
   H -0.240576547E+02  0.186204243E+01  0.300453894E+01
   H  0.232645896E+02 -0.153347766E+01 -0.253067205E+01
     4
 # iter = 52000  time[fs]=52.00000
   C -0.502847032E+01 -0.643393066E-01 -0.711155838E-01
   C  0.480882137E+01 -0.490627425E-01  0.131317736E+00
   H -0.244230288E+02  0.189025228E+01  0.305059778E+01
   H  0.236142806E+02 -0.155681939E+01 -0.256831328E+01
     4
 # iter = 52500  time[fs]=52.50000
   C -0.511318353E+01 -0.656760518E-01 -0.727094662E-01
   C  0.488982065E+01 -0.494131142E-01  0.134371202E+00
   H -0.247885446E+02  0.191847463E+01  0.309667637E+01
   H  0.239641223E+02 -0.158017190E+01 -0.260597341E+01
     4
 # iter = 53000  time[fs]=53.00000
   C -0.519801892E+01 -0.670135396E-01 -0.743068009E-01
   C  0.497094140E+01 -0.497628809E-01  0.137428051E+00
   H -0.251541981E+02  0.194670912E+01  0.314277415E+01
   H  0.243141104E+02 -0.160353490E+01 -0.264365190E+01
     4
 # iter = 53500  time[fs]=53.50000
   C -0.528297252E+01 -0.683517576E-01 -0.759074958E-01
   C  0.505217964E+01 -0.501120506E-01  0.140488194E+00
   H -0.255199854E+02  0.197495541E+01  0.318889058E+01
   H  0.246642408E+02 -0.162690810E+01 -0.268134825E+01
     4
 # iter = 54000  time[fs]=54.00000
   C -0.536804054E+01 -0.696906937E-01 -0.775114622E-01
   C  0.513353161E+01 -0.504606315E-01  0.143551545E+00
   H -0.258859026E+02  0.200321317E+01  0.323502515E+01
   H  0.250145095E+02 -0.165029122E+01 -0.271906196E+01
     4
 # iter = 54500  time[fs]=54.50000
   C -0.545321937E+01 -0.710303354E-01 -0.791186147E-01
   C  0.521499370E+01 -0.508086319E-01  0.146618020E+00
   H -0.262519462E+02  0.203148208E+01  0.328117737E+01
   H  0.253649126E+02 -0.167368400E+01 -0.275679257E+01
     4
 # iter = 55000  time[fs]=55.00000
   C -0.553850554E+01 -0.723706708E-01 -0.807288712E-01
   C  0.529656248E+01 -0.511560602E-01  0.149687538E+00
   H -0.266181127E+02  0.205976186E+01  0.332734675E+01
   H  0.257154466E+02 -0.169708618E+01 -0.279453964E+01
     4
 # iter = 55500  time[fs]=55.50000
   C -0.562389576E+01 -0.737116879E-01 -0.823421522E-01
   C  0.537823467E+01 -0.515029246E-01  0.152760023E+00
   H -0.269843989E+02  0.208805220E+01  0.337353285E+01
   H  0.260661080E+02 -0.172049751E+01 -0.283230272E+01
     4
 # iter = 56000  time[fs]=56.00000
   C -0.570938687E+01 -0.750533748E-01 -0.839583814E-01
   C  0.546000712E+01 -0.518492337E-01  0.155835400E+00
   H -0.273508015E+02  0.211635284E+01  0.341973524E+01
   H  0.264168934E+02 -0.174391776E+01 -0.287008141E+01
     4
 # iter = 56500  time[fs]=56.50000
   C -0.579497587E+01 -0.763957199E-01 -0.855774850E-01
   C  0.554187683E+01 -0.521949957E-01  0.158913597E+00
   H -0.277173174E+02  0.214466350E+01  0.346595348E+01
   H  0.267677995E+02 -0.176734670E+01 -0.290787531E+01
     4
 # iter = 57000  time[fs]=57.00000
   C -0.588065986E+01 -0.777387118E-01 -0.871993921E-01
   C  0.562384093E+01 -0.525402189E-01  0.161994544E+00
   H -0.280839438E+02  0.217298393E+01  0.351218718E+01
   H  0.271188233E+02 -0.179078412E+01 -0.294568403E+01
     4
 # iter = 57500  time[fs]=57.50000
   C -0.596643608E+01 -0.790823392E-01 -0.888240339E-01
   C  0.570589668E+01 -0.528849117E-01  0.165078175E+00
   H -0.284506777E+02  0.220131389E+01  0.355843595E+01
   H  0.274699618E+02 -0.181422980E+01 -0.298350720E+01
     4
 # iter = 58000  time[fs]=58.00000
   C -0.605230188E+01 -0.804265908E-01 -0.904513443E-01
   C  0.578804143E+01 -0.532290823E-01  0.168164424E+00
   H -0.288175166E+02  0.222965313E+01  0.360469941E+01
   H  0.278212121E+02 -0.183768354E+01 -0.302134447E+01
     4
 # iter = 58500  time[fs]=58.50000
   C -0.613825473E+01 -0.817714559E-01 -0.920812594E-01
   C  0.587027266E+01 -0.535727387E-01  0.171253230E+00
   H -0.291844577E+02  0.225800143E+01  0.365097721E+01
   H  0.281725714E+02 -0.186114515E+01 -0.305919549E+01
     4
 # iter = 59000  time[fs]=59.00000
   C -0.622429219E+01 -0.831169237E-01 -0.937137173E-01
   C  0.595258795E+01 -0.539158891E-01  0.174344532E+00
   H -0.295514985E+02  0.228635857E+01  0.369726900E+01
   H  0.285240371E+02 -0.188461444E+01 -0.309705994E+01
     4
 # iter = 59500  time[fs]=59.50000
   C -0.631041193E+01 -0.844629837E-01 -0.953486585E-01
   C  0.603498498E+01 -0.542585414E-01  0.177438272E+00
   H -0.299186366E+02  0.231472433E+01  0.374357444E+01
   H  0.288756066E+02 -0.190809122E+01 -0.313493750E+01
     4
 # iter = 60000  time[fs]=60.00000
   C -0.639661170E+01 -0.858096255E-01 -0.969860252E-01
   C  0.611746150E+01 -0.546007034E-01  0.180534393E+00
   H -0.302858697E+02  0.234309852E+01  0.378989321E+01
   H  0.292272774E+02 -0.193157532E+01 -0.317282785E+01
     4
 # iter = 60500  time[fs]=60.50000
   C -0.648288934E+01 -0.871568390E-01 -0.986257617E-01
   C  0.620001539E+01 -0.549423830E-01  0.183632841E+00
   H -0.306531955E+02  0.237148092E+01  0.383622499E+01
   H  0.295790471E+02 -0.195506658E+01 -0.321073071E+01
     4
 # iter = 61000  time[fs]=61.00000
   C -0.656924279E+01 -0.885046143E-01 -0.100267814E+00
   C  0.628264457E+01 -0.552835878E-01  0.186733562E+00
   H -0.310206118E+02  0.239987136E+01  0.388256949E+01
   H  0.299309134E+02 -0.197856482E+01 -0.324864578E+01
     4
 # iter = 61500  time[fs]=61.50000
   C -0.665567006E+01 -0.898529416E-01 -0.101912130E+00
   C  0.636534708E+01 -0.556243253E-01  0.189836507E+00
   H -0.313881165E+02  0.242826965E+01  0.392892643E+01
   H  0.302828741E+02 -0.200206989E+01 -0.328657278E+01
     4
 # iter = 62000  time[fs]=62.00000
   C -0.674216923E+01 -0.912018115E-01 -0.103558659E+00
   C  0.644812099E+01 -0.559646030E-01  0.192941625E+00
   H -0.317557075E+02  0.245667560E+01  0.397529550E+01
   H  0.306349270E+02 -0.202558164E+01 -0.332451146E+01
     4
 # iter = 62500  time[fs]=62.50000
   C -0.682873846E+01 -0.925512145E-01 -0.105207353E+00
   C  0.653096449E+01 -0.563044280E-01  0.196048869E+00
   H -0.321233830E+02  0.248508906E+01  0.402167645E+01
   H  0.309870701E+02 -0.204909993E+01 -0.336246155E+01
     4
 # iter = 63000  time[fs]=63.00000
   C -0.691537597E+01 -0.939011415E-01 -0.106858164E+00
   C  0.661387580E+01 -0.566438078E-01  0.199158193E+00
   H -0.324911410E+02  0.251350984E+01  0.406806902E+01
   H  0.313393013E+02 -0.207262460E+01 -0.340042280E+01
     4
 # iter = 63500  time[fs]=63.50000
   C -0.700208005E+01 -0.952515837E-01 -0.108511046E+00
   C  0.669685322E+01 -0.569827492E-01  0.202269551E+00
   H -0.328589797E+02  0.254193780E+01  0.411447294E+01
   H  0.316916187E+02 -0.209615552E+01 -0.343839498E+01
     4
 # iter = 64000  time[fs]=64.00000
   C -0.708884906E+01 -0.966025321E-01 -0.110165955E+00
   C  0.677989512E+01 -0.573212593E-01  0.205382901E+00
   H -0.332268973E+02  0.257037277E+01  0.416088798E+01
   H  0.320440204E+02 -0.211969256E+01 -0.347637783E+01
     4
 # iter = 64500  time[fs]=64.50000
   C -0.717568140E+01 -0.979539783E-01 -0.111822848E+00
   C  0.686299991E+01 -0.576593448E-01  0.208498199E+00
   H -0.335948921E+02  0.259881461E+01  0.420731389E+01
   H  0.323965046E+02 -0.214323558E+01 -0.351437115E+01
     4
 # iter = 65000  time[fs]=65.00000
   C -0.726257554E+01 -0.993059137E-01 -0.113481683E+00
   C  0.694616607E+01 -0.579970125E-01  0.211615406E+00
   H -0.339629624E+02  0.262726317E+01  0.425375045E+01
   H  0.327490695E+02 -0.216678447E+01 -0.355237470E+01
     4
 # iter = 65500  time[fs]=65.50000
   C -0.734953002E+01 -0.100658330E+00 -0.115142420E+00
   C  0.702939214E+01 -0.583342689E-01  0.214734482E+00
   H -0.343311066E+02  0.265571831E+01  0.430019743E+01
   H  0.331017134E+02 -0.219033909E+01 -0.359038828E+01
     4
 # iter = 66000  time[fs]=66.00000
   C -0.743654339E+01 -0.102011220E+00 -0.116805019E+00
   C  0.711267668E+01 -0.586711205E-01  0.217855388E+00
   H -0.346993231E+02  0.268417989E+01  0.434665461E+01
   H  0.334544346E+02 -0.221389934E+01 -0.362841169E+01
     4
 # iter = 66500  time[fs]=66.50000
   C -0.752361428E+01 -0.103364575E+00 -0.118469443E+00
   C  0.719601834E+01 -0.590075737E-01  0.220978087E+00
   H -0.350676105E+02  0.271264777E+01  0.439312180E+01
   H  0.338072317E+02 -0.223746510E+01 -0.366644471E+01
     4
 # iter = 67000  time[fs]=67.00000
   C -0.761074136E+01 -0.104718387E+00 -0.120135654E+00
   C  0.727941578E+01 -0.593436346E-01  0.224102542E+00
   H -0.354359673E+02  0.274112184E+01  0.443959878E+01
   H  0.341601029E+02 -0.226103625E+01 -0.370448715E+01
     4
 # iter = 67500  time[fs]=67.50000
   C -0.769792334E+01 -0.106072649E+00 -0.121803617E+00
   C  0.736286774E+01 -0.596793093E-01  0.227228719E+00
   H -0.358043921E+02  0.276960196E+01  0.448608535E+01
   H  0.345130468E+02 -0.228461270E+01 -0.374253884E+01
     4
 # iter = 68000  time[fs]=68.00000
   C -0.778515898E+01 -0.107427354E+00 -0.123473297E+00
   C  0.744637296E+01 -0.600146039E-01  0.230356584E+00
   H -0.361728834E+02  0.279808802E+01  0.453258134E+01
   H  0.348660620E+02 -0.230819433E+01 -0.378059958E+01
     4
 # iter = 68500  time[fs]=68.50000
   C -0.787244708E+01 -0.108782494E+00 -0.125144660E+00
   C  0.752993027E+01 -0.603495243E-01  0.233486104E+00
   H -0.365414400E+02  0.282657990E+01  0.457908654E+01
   H  0.352191469E+02 -0.233178105E+01 -0.381866919E+01
     4
 # iter = 69000  time[fs]=69.00000
   C -0.795978648E+01 -0.110138063E+00 -0.126817673E+00
   C  0.761353849E+01 -0.606840760E-01  0.236617245E+00
   H -0.369100606E+02  0.285507748E+01  0.462560079E+01
   H  0.355723003E+02 -0.235537275E+01 -0.385674752E+01
     4
 # iter = 69500  time[fs]=69.50000
   C -0.804717604E+01 -0.111494053E+00 -0.128492305E+00
   C  0.769719652E+01 -0.610182649E-01  0.239749978E+00
   H -0.372787438E+02  0.288358065E+01  0.467212391E+01
   H  0.359255208E+02 -0.237896934E+01 -0.389483438E+01
     4
 # iter = 70000  time[fs]=70.00000
   C -0.813461468E+01 -0.112850458E+00 -0.130168524E+00
   C  0.778090326E+01 -0.613520964E-01  0.242884271E+00
   H -0.376474886E+02  0.291208931E+01  0.471865572E+01
   H  0.362788071E+02 -0.240257073E+01 -0.393292962E+01
     4
 # iter = 70500  time[fs]=70.50000
   C -0.822210135E+01 -0.114207270E+00 -0.131846300E+00
   C  0.786465768E+01 -0.616855760E-01  0.246020096E+00
   H -0.380162936E+02  0.294060335E+01  0.476519606E+01
   H  0.366321580E+02 -0.242617683E+01 -0.397103308E+01
     4
 # iter = 71000  time[fs]=71.00000
   C -0.830963501E+01 -0.115564484E+00 -0.133525604E+00
   C  0.794845875E+01 -0.620187090E-01  0.249157423E+00
   H -0.383851578E+02  0.296912268E+01  0.481174478E+01
   H  0.369855722E+02 -0.244978755E+01 -0.400914460E+01
     4
 # iter = 71500  time[fs]=71.50000
   C -0.839721469E+01 -0.116922094E+00 -0.135206407E+00
   C  0.803230548E+01 -0.623515006E-01  0.252296224E+00
   H -0.387540800E+02  0.299764718E+01  0.485830171E+01
   H  0.373390485E+02 -0.247340281E+01 -0.404726404E+01
     4
 # iter = 72000  time[fs]=72.00000
   C -0.848483941E+01 -0.118280092E+00 -0.136888682E+00
   C  0.811619693E+01 -0.626839560E-01  0.255436472E+00
   H -0.391230592E+02  0.302617677E+01  0.490486670E+01
   H  0.376925857E+02 -0.249702252E+01 -0.408539125E+01
     4
 # iter = 72500  time[fs]=72.50000
   C -0.857250826E+01 -0.119638474E+00 -0.138572402E+00
   C  0.820013217E+01 -0.630160800E-01  0.258578141E+00
   H -0.394920942E+02  0.305471135E+01  0.495143962E+01
   H  0.380461828E+02 -0.252064660E+01 -0.412352609E+01
     4
 # iter = 73000  time[fs]=73.00000
   C -0.866022032E+01 -0.120997233E+00 -0.140257541E+00
   C  0.828411030E+01 -0.633478778E-01  0.261721205E+00
   H -0.398611841E+02  0.308325083E+01  0.499802031E+01
   H  0.383998387E+02 -0.254427497E+01 -0.416166842E+01
     4
 # iter = 73500  time[fs]=73.50000
   C -0.874797472E+01 -0.122356362E+00 -0.141944072E+00
   C  0.836813046E+01 -0.636793540E-01  0.264865639E+00
   H -0.402303279E+02  0.311179513E+01  0.504460863E+01
   H  0.387535522E+02 -0.256790757E+01 -0.419981811E+01
     4
 # iter = 74000  time[fs]=74.00000
   C -0.883577062E+01 -0.123715858E+00 -0.143631971E+00
   C  0.845219179E+01 -0.640105134E-01  0.268011419E+00
   H -0.405995245E+02  0.314034416E+01  0.509120446E+01
   H  0.391073224E+02 -0.259154430E+01 -0.423797503E+01
     4
 # iter = 74500  time[fs]=74.50000
   C -0.892360718E+01 -0.125075713E+00 -0.145321214E+00
   C  0.853629348E+01 -0.643413606E-01  0.271158520E+00
   H -0.409687730E+02  0.316889783E+01  0.513780764E+01
   H  0.394611483E+02 -0.261518510E+01 -0.427613906E+01
     4
 # iter = 75000  time[fs]=75.00000
   C -0.901148360E+01 -0.126435923E+00 -0.147011777E+00
   C  0.862043473E+01 -0.646719003E-01  0.274306920E+00
   H -0.413380726E+02  0.319745606E+01  0.518441807E+01
   H  0.398150288E+02 -0.263882991E+01 -0.431431006E+01
     4
 # iter = 75500  time[fs]=75.50000
   C -0.909939912E+01 -0.127796482E+00 -0.148703637E+00
   C  0.870461476E+01 -0.650021367E-01  0.277456595E+00
   H -0.417074223E+02  0.322601878E+01  0.523103561E+01
   H  0.401689630E+02 -0.266247864E+01 -0.435248792E+01
     4
 # iter = 76000  time[fs]=76.00000
   C -0.918735296E+01 -0.129157385E+00 -0.150396771E+00
   C  0.878883284E+01 -0.653320743E-01  0.280607525E+00
   H -0.420768212E+02  0.325458590E+01  0.527766015E+01
   H  0.405229499E+02 -0.268613124E+01 -0.439067253E+01
     4
 # iter = 76500  time[fs]=76.50000
   C -0.927534440E+01 -0.130518627E+00 -0.152091159E+00
   C  0.887308822E+01 -0.656617174E-01  0.283759687E+00
   H -0.424462685E+02  0.328315736E+01  0.532429155E+01
   H  0.408769888E+02 -0.270978764E+01 -0.442886376E+01
     4
 # iter = 77000  time[fs]=77.00000
   C -0.936337273E+01 -0.131880203E+00 -0.153786778E+00
   C  0.895738020E+01 -0.659910702E-01  0.286913060E+00
   H -0.428157634E+02  0.331173307E+01  0.537092971E+01
   H  0.412310786E+02 -0.273344778E+01 -0.446706150E+01
     4
 # iter = 77500  time[fs]=77.50000
   C -0.945143724E+01 -0.133242108E+00 -0.155483608E+00
   C  0.904170809E+01 -0.663201368E-01  0.290067625E+00
   H -0.431853050E+02  0.334031297E+01  0.541757451E+01
   H  0.415852185E+02 -0.275711159E+01 -0.450526566E+01
     4
 # iter = 78000  time[fs]=78.00000
   C -0.953953727E+01 -0.134604337E+00 -0.157181628E+00
   C  0.912607122E+01 -0.666489212E-01  0.293223361E+00
   H -0.435548926E+02  0.336889699E+01  0.546422584E+01
   H  0.419394077E+02 -0.278077901E+01 -0.454347612E+01
     4
 # iter = 78500  time[fs]=78.50000
   C -0.962767215E+01 -0.135966886E+00 -0.158880819E+00
   C  0.921046893E+01 -0.669774274E-01  0.296380249E+00
   H -0.439245254E+02  0.339748505E+01  0.551088360E+01
   H  0.422936454E+02 -0.280444998E+01 -0.458169278E+01
     4
 # iter = 79000  time[fs]=79.00000
   C -0.971584126E+01 -0.137329750E+00 -0.160581161E+00
   C  0.929490060E+01 -0.673056592E-01  0.299538269E+00
   H -0.442942026E+02  0.342607710E+01  0.555754768E+01
   H  0.426479307E+02 -0.282812445E+01 -0.461991553E+01
     4
 # iter = 79500  time[fs]=79.50000
   C -0.980404396E+01 -0.138692923E+00 -0.162282636E+00
   C  0.937936560E+01 -0.676336205E-01  0.302697405E+00
   H -0.446639235E+02  0.345467307E+01  0.560421798E+01
   H  0.430022629E+02 -0.285180236E+01 -0.465814429E+01
     4
 # iter = 80000  time[fs]=80.00000
   C -0.989227966E+01 -0.140056403E+00 -0.163985225E+00
   C  0.946386333E+01 -0.679613150E-01  0.305857636E+00
   H -0.450336875E+02  0.348327289E+01  0.565089439E+01
   H  0.433566412E+02 -0.287548366E+01 -0.469637894E+01
