     4
 # iter = 25000  time[fs]=25.00000
   C -0.980134641E+00 -0.289143861E-01  0.153502541E-02
   C  0.997257436E+00  0.153482620E-01 -0.198767004E-01
   H -0.531860995E+01 -0.562278014E+00 -0.603854050E+00
   H  0.531616379E+01  0.498094039E+00  0.665658161E+00
     4
 # iter = 25500  time[fs]=25.50000
   C -0.102647785E+01 -0.297710297E-01  0.278378109E-02
   C  0.103810918E+01  0.116754992E-01 -0.235166808E-01
   H -0.565638530E+01 -0.605799716E+00 -0.648693045E+00
   H  0.562355359E+01  0.518026478E+00  0.699646206E+00
     4
 # iter = 26000  time[fs]=26.00000
   C -0.107675273E+01 -0.316060887E-01  0.315818043E-02
   C  0.108094204E+01  0.704915033E-02 -0.282264348E-01
   H -0.600470807E+01 -0.655304711E+00 -0.699574775E+00
   H  0.593086429E+01  0.533093180E+00  0.728973497E+00
     4
 # iter = 26500  time[fs]=26.50000
   C -0.112792134E+01 -0.316176759E-01  0.545008744E-02
   C  0.112847815E+01  0.443072453E-02 -0.310334341E-01
   H -0.634689861E+01 -0.694641770E+00 -0.740340564E+00
   H  0.625364319E+01  0.559329808E+00  0.769656300E+00
     4
 # iter = 27000  time[fs]=27.00000
   C -0.117961456E+01 -0.296602822E-01  0.979600047E-02
   C  0.118063393E+01  0.395948417E-02 -0.317884235E-01
   H -0.668167664E+01 -0.722960811E+00 -0.770134421E+00
   H  0.659219662E+01  0.597482234E+00  0.822422793E+00
     4
 # iter = 27500  time[fs]=27.50000
   C -0.123369522E+01 -0.278058633E-01  0.141158969E-01
   C  0.123498740E+01  0.341890068E-02 -0.326989114E-01
   H -0.702061292E+01 -0.752184969E+00 -0.800874753E+00
   H  0.693411002E+01  0.635532288E+00  0.875238637E+00
     4
 # iter = 28000  time[fs]=28.00000
   C -0.129143658E+01 -0.275197587E-01  0.169372216E-01
   C  0.128978043E+01  0.123993794E-02 -0.353258870E-01
   H -0.737183086E+01 -0.790743171E+00 -0.840986456E+00
   H  0.727053205E+01  0.664969984E+00  0.919579841E+00
     4
 # iter = 28500  time[fs]=28.50000
   C -0.135206614E+01 -0.282038828E-01  0.188516108E-01
   C  0.134546707E+01 -0.194984284E-02 -0.390346594E-01
   H -0.773159780E+01 -0.835177908E+00 -0.887008444E+00
   H  0.760456898E+01  0.689187627E+00  0.958826965E+00
     4
 # iter = 29000  time[fs]=29.00000
   C -0.141396497E+01 -0.283975487E-01  0.213139974E-01
   C  0.140343569E+01 -0.460379850E-02 -0.422722544E-01
   H -0.809124222E+01 -0.877062682E+00 -0.930511061E+00
   H  0.794434836E+01  0.716557409E+00  0.100134213E+01
     4
 # iter = 29500  time[fs]=29.50000
   C -0.147648326E+01 -0.275947938E-01  0.248252178E-01
   C  0.146407543E+01 -0.618940823E-02 -0.445004971E-01
   H -0.844762588E+01 -0.913471454E+00 -0.968565568E+00
   H  0.829252875E+01  0.749955601E+00  0.104999256E+01
     4
 # iter = 30000  time[fs]=30.00000
   C -0.154019389E+01 -0.264992199E-01  0.286771051E-01
   C  0.152650384E+01 -0.745955934E-02 -0.464672133E-01
   H -0.880460863E+01 -0.948446811E+00 -0.100521224E+01
   H  0.864482379E+01  0.785292599E+00  0.110068039E+01
     4
 # iter = 30500  time[fs]=30.50000
   C -0.160576402E+01 -0.258963487E-01  0.320800648E-01
   C  0.158976468E+01 -0.925335381E-02 -0.490069823E-01
   H -0.916654440E+01 -0.986503369E+00 -0.104496369E+01
   H  0.899650140E+01  0.818011741E+00  0.114884154E+01
     4
 # iter = 31000  time[fs]=31.00000
   C -0.167309644E+01 -0.257958186E-01  0.350208190E-01
   C  0.165373885E+01 -0.115838905E-01 -0.521288673E-01
   H -0.953333343E+01 -0.102768576E+01 -0.108786274E+01
   H  0.934732723E+01  0.848032950E+00  0.119438939E+01
     4
 # iter = 31500  time[fs]=31.50000
   C -0.174158015E+01 -0.256830879E-01  0.380106521E-01
   C  0.171887540E+01 -0.139061279E-01 -0.552842203E-01
   H -0.990187044E+01 -0.106901894E+01 -0.113093272E+01
   H  0.970010994E+01  0.878301095E+00  0.124026299E+01
     4
 # iter = 32000  time[fs]=32.00000
   C -0.181080867E+01 -0.252389838E-01  0.413658178E-01
   C  0.178542523E+01 -0.158823402E-01 -0.581320802E-01
   H -0.102701900E+02 -0.110865398E+01 -0.117232325E+01
   H  0.100565489E+02  0.910637669E+00  0.128827859E+01
     4
 # iter = 32500  time[fs]=32.50000
   C -0.188083710E+01 -0.245977307E-01  0.449494721E-01
   C  0.185316564E+01 -0.176566583E-01 -0.608136667E-01
   H -0.106389519E+02 -0.114735470E+01 -0.121279688E+01
   H  0.104157438E+02  0.944252997E+00  0.133764172E+01
     4
 # iter = 33000  time[fs]=33.00000
   C -0.195187130E+01 -0.240369768E-01  0.484816106E-01
   C  0.192172907E+01 -0.195254416E-01 -0.636227151E-01
   H -0.110096534E+02 -0.118671167E+01 -0.125394303E+01
   H  0.107759799E+02  0.977532744E+00  0.138673370E+01
     4
 # iter = 33500  time[fs]=33.50000
   C -0.202392719E+01 -0.236377654E-01  0.518790662E-01
   C  0.199096393E+01 -0.215756671E-01 -0.666438356E-01
   H -0.113826683E+02 -0.122718305E+01 -0.129621880E+01
   H  0.111366876E+02  0.100999773E+01  0.143507138E+01
     4
 # iter = 34000  time[fs]=34.00000
   C -0.209682662E+01 -0.232811208E-01  0.552588959E-01
   C  0.206093744E+01 -0.236813502E-01 -0.697489040E-01
   H -0.117572258E+02 -0.126807497E+01 -0.133892938E+01
   H  0.114984603E+02  0.104232329E+01  0.148332650E+01
     4
 # iter = 34500  time[fs]=34.50000
   C -0.217039949E+01 -0.228507906E-01  0.587356155E-01
   C  0.213171937E+01 -0.257192340E-01 -0.728127248E-01
   H -0.121325781E+02 -0.130870968E+01 -0.138139616E+01
   H  0.118618844E+02  0.107517034E+01  0.153215667E+01
     4
 # iter = 35000  time[fs]=35.00000
   C -0.224459843E+01 -0.223485250E-01  0.623059001E-01
   C  0.220325885E+01 -0.276914392E-01 -0.758356576E-01
   H -0.125086640E+02 -0.134908977E+01 -0.142362093E+01
   H  0.122268736E+02  0.110852058E+01  0.158154060E+01
     4
 # iter = 35500  time[fs]=35.50000
   C -0.231944484E+01 -0.218405739E-01  0.659020683E-01
   C  0.227544075E+01 -0.296685829E-01 -0.788867163E-01
   H -0.128858000E+02 -0.138958988E+01 -0.146597762E+01
   H  0.125929765E+02  0.114198487E+01  0.163108634E+01
     4
 # iter = 36000  time[fs]=36.00000
   C -0.239493376E+01 -0.213629919E-01  0.694867621E-01
   C  0.234818597E+01 -0.316890757E-01 -0.820028492E-01
   H -0.132641338E+02 -0.143041101E+01 -0.150866658E+01
   H  0.129599216E+02  0.117534890E+01  0.168057704E+01
     4
 # iter = 36500  time[fs]=36.50000
   C -0.247101180E+01 -0.208999788E-01  0.730745919E-01
   C  0.242147402E+01 -0.337361026E-01 -0.851659055E-01
   H -0.136435191E+02 -0.147145577E+01 -0.155158981E+01
   H  0.133277419E+02  0.120869805E+01  0.173009570E+01
     4
 # iter = 37000  time[fs]=37.00000
   C -0.254761677E+01 -0.204238262E-01  0.766921785E-01
   C  0.249530024E+01 -0.357801265E-01 -0.883451246E-01
   H -0.140237450E+02 -0.151255848E+01 -0.159458106E+01
   H  0.136965436E+02  0.124218692E+01  0.177979474E+01
     4
 # iter = 37500  time[fs]=37.50000
   C -0.262471020E+01 -0.199277371E-01  0.803453224E-01
   C  0.256964050E+01 -0.378138093E-01 -0.915320465E-01
   H -0.144047251E+02 -0.155367429E+01 -0.163759498E+01
   H  0.140663169E+02  0.127585009E+01  0.182970672E+01
     4
 # iter = 38000  time[fs]=38.00000
   C -0.270227338E+01 -0.194222054E-01  0.840226152E-01
   C  0.264445484E+01 -0.398481707E-01 -0.947366594E-01
   H -0.147864761E+02 -0.159485829E+01 -0.168068618E+01
   H  0.144369558E+02  0.130962292E+01  0.187976513E+01
     4
 # iter = 38500  time[fs]=38.50000
   C -0.278028848E+01 -0.189162805E-01  0.877141663E-01
   C  0.271970713E+01 -0.418926677E-01 -0.979674703E-01
   H -0.151690095E+02 -0.163615754E+01 -0.172390127E+01
   H  0.148083663E+02  0.134344950E+01  0.192991230E+01
     4
 # iter = 39000  time[fs]=39.00000
   C -0.285873038E+01 -0.184097010E-01  0.914194625E-01
   C  0.279537317E+01 -0.439468336E-01 -0.101223137E+00
   H -0.155522860E+02 -0.167756573E+01 -0.176723354E+01
   H  0.151805111E+02  0.137732797E+01  0.198014474E+01
     4
 # iter = 39500  time[fs]=39.50000
   C -0.293757174E+01 -0.178981033E-01  0.951421526E-01
   C  0.287143504E+01 -0.460058237E-01 -0.104498004E+00
   H -0.159362452E+02 -0.171905316E+01 -0.181065290E+01
   H  0.155533795E+02  0.141128041E+01  0.203048302E+01
     4
 # iter = 40000  time[fs]=40.00000
   C -0.301678926E+01 -0.173794613E-01  0.988836018E-01
   C  0.294787398E+01 -0.480672691E-01 -0.107788954E+00
   H -0.163208426E+02 -0.176060386E+01 -0.185414303E+01
   H  0.159269497E+02  0.144531570E+01  0.208093460E+01
     4
 # iter = 40500  time[fs]=40.50000
   C -0.309636426E+01 -0.168548506E-01  0.102642123E+00
   C  0.302466950E+01 -0.501320930E-01 -0.111096216E+00
   H -0.167060538E+02 -0.180221995E+01 -0.189770571E+01
   H  0.163011844E+02  0.147942511E+01  0.213148943E+01
     4
 # iter = 41000  time[fs]=41.00000
   C -0.317627996E+01 -0.163258358E-01  0.106415584E+00
   C  0.310180196E+01 -0.522017344E-01 -0.114420583E+00
   H -0.170918591E+02 -0.184390658E+01 -0.194134580E+01
   H  0.166760455E+02  0.151359728E+01  0.218213489E+01
     4
 # iter = 41500  time[fs]=41.50000
   C -0.325651974E+01 -0.157928361E-01  0.110203039E+00
   C  0.317925424E+01 -0.542764119E-01 -0.117761675E+00
   H -0.174782341E+02 -0.188566252E+01 -0.198506175E+01
   H  0.170515037E+02  0.154782766E+01  0.223286529E+01
     4
 # iter = 42000  time[fs]=42.00000
   C -0.333706733E+01 -0.152554925E-01  0.114004358E+00
   C  0.325701119E+01 -0.563555158E-01 -0.121118323E+00
   H -0.178651515E+02 -0.192748224E+01 -0.202884777E+01
   H  0.174275357E+02  0.158211638E+01  0.228367964E+01
     4
 # iter = 42500  time[fs]=42.50000
   C -0.341790767E+01 -0.147135593E-01  0.117819329E+00
   C  0.333505859E+01 -0.584385583E-01 -0.124489518E+00
   H -0.182525863E+02 -0.196936102E+01 -0.207269889E+01
   H  0.178041192E+02  0.161646305E+01  0.233457652E+01
     4
 # iter = 43000  time[fs]=43.00000
   C -0.349902705E+01 -0.141671726E-01  0.121647390E+00
   C  0.341338281E+01 -0.605254598E-01 -0.127874696E+00
   H -0.186405169E+02 -0.201129653E+01 -0.211661254E+01
   H  0.181812313E+02  0.165086521E+01  0.238555252E+01
     4
 # iter = 43500  time[fs]=43.50000
   C -0.358041280E+01 -0.136166025E-01  0.125487875E+00
   C  0.349197094E+01 -0.626162864E-01 -0.131273466E+00
   H -0.190289242E+02 -0.205328737E+01 -0.216058708E+01
   H  0.185588494E+02  0.168531978E+01  0.243660364E+01
     4
 # iter = 44000  time[fs]=44.00000
   C -0.366205297E+01 -0.130620257E-01  0.129340235E+00
   C  0.357081101E+01 -0.647110084E-01 -0.134685374E+00
   H -0.194177893E+02 -0.209533174E+01 -0.220462050E+01
   H  0.189369531E+02  0.171982433E+01  0.248772657E+01
     4
 # iter = 44500  time[fs]=44.50000
   C -0.374393628E+01 -0.125035199E-01  0.133204043E+00
   C  0.364989189E+01 -0.668094957E-01 -0.138109889E+00
   H -0.198070941E+02 -0.213742740E+01 -0.224871037E+01
   H  0.193155235E+02  0.175437708E+01  0.253891872E+01
     4
 # iter = 45000  time[fs]=45.00000
   C -0.382605215E+01 -0.119411511E-01  0.137078909E+00
   C  0.372920315E+01 -0.689116098E-01 -0.141546501E+00
   H -0.201968215E+02 -0.217957220E+01 -0.229285434E+01
   H  0.196945427E+02  0.178897643E+01  0.259017774E+01
     4
 # iter = 45500  time[fs]=45.50000
   C -0.390839065E+01 -0.113750151E-01  0.140964429E+00
   C  0.380873497E+01 -0.710172493E-01 -0.144994753E+00
   H -0.205869555E+02 -0.222176426E+01 -0.233705035E+01
   H  0.200739939E+02  0.182362070E+01  0.264150121E+01
     4
 # iter = 46000  time[fs]=46.00000
   C -0.399094249E+01 -0.108052229E-01  0.144860205E+00
   C  0.388847810E+01 -0.731263344E-01 -0.148454237E+00
   H -0.209774808E+02 -0.226400191E+01 -0.238129656E+01
   H  0.204538609E+02  0.185830819E+01  0.269288671E+01
     4
 # iter = 46500  time[fs]=46.50000
   C -0.407369889E+01 -0.102318795E-01  0.148765862E+00
   C  0.396842384E+01 -0.752387837E-01 -0.151924557E+00
   H -0.213683834E+02 -0.230628356E+01 -0.242559122E+01
   H  0.208341286E+02  0.189303729E+01  0.274433202E+01
     4
 # iter = 47000  time[fs]=47.00000
   C -0.415665160E+01 -0.965507858E-02  0.152681050E+00
   C  0.404856399E+01 -0.773545094E-01 -0.155405334E+00
   H -0.217596496E+02 -0.234860765E+01 -0.246993262E+01
   H  0.212147825E+02  0.192780656E+01  0.279583505E+01
     4
 # iter = 47500  time[fs]=47.50000
   C -0.423979283E+01 -0.907490864E-02  0.156605441E+00
   C  0.412889085E+01 -0.794734239E-01 -0.158896200E+00
   H -0.221512667E+02 -0.239097269E+01 -0.251431911E+01
   H  0.215958091E+02  0.196261461E+01  0.284739382E+01
     4
 # iter = 48000  time[fs]=48.00000
   C -0.432311523E+01 -0.849145735E-02  0.160538721E+00
   C  0.420939711E+01 -0.815954436E-01 -0.162396812E+00
   H -0.225432223E+02 -0.243337728E+01 -0.255874917E+01
   H  0.219771954E+02  0.199746012E+01  0.289900646E+01
     4
 # iter = 48500  time[fs]=48.50000
   C -0.440661186E+01 -0.790481113E-02  0.164480589E+00
   C  0.429007590E+01 -0.837204893E-01 -0.165906842E+00
   H -0.229355050E+02 -0.247582008E+01 -0.260322132E+01
   H  0.223589291E+02  0.203234184E+01  0.295067117E+01
     4
 # iter = 49000  time[fs]=49.00000
   C -0.449027613E+01 -0.731505378E-02  0.168430758E+00
   C  0.437092071E+01 -0.858484841E-01 -0.169425978E+00
   H -0.233281038E+02 -0.251829984E+01 -0.264773418E+01
   H  0.227409986E+02  0.206725857E+01  0.300238625E+01
     4
 # iter = 49500  time[fs]=49.50000
   C -0.457410184E+01 -0.672226595E-02  0.172388956E+00
   C  0.445192536E+01 -0.879793530E-01 -0.172953923E+00
   H -0.237210082E+02 -0.256081536E+01 -0.269228644E+01
   H  0.231233928E+02  0.210220917E+01  0.305415007E+01
     4
 # iter = 50000  time[fs]=50.00000
   C -0.465808311E+01 -0.612652552E-02  0.176354925E+00
   C  0.453308403E+01 -0.901130230E-01 -0.176490394E+00
   H -0.241142083E+02 -0.260336548E+01 -0.273687683E+01
   H  0.235061010E+02  0.213719257E+01  0.310596110E+01
     4
 # iter = 50500  time[fs]=50.50000
   C -0.474221433E+01 -0.552790786E-02  0.180328416E+00
   C  0.461439117E+01 -0.922494236E-01 -0.180035120E+00
   H -0.245076946E+02 -0.264594912E+01 -0.278150415E+01
   H  0.238891134E+02  0.217220772E+01  0.315781785E+01
     4
 # iter = 51000  time[fs]=51.00000
   C -0.482649023E+01 -0.492648602E-02  0.184309193E+00
   C  0.469584154E+01 -0.943884864E-01 -0.183587843E+00
   H -0.249014580E+02 -0.268856524E+01 -0.282616726E+01
   H  0.242724202E+02  0.220725364E+01  0.320971891E+01
     4
 # iter = 51500  time[fs]=51.50000
   C -0.491090575E+01 -0.432233067E-02  0.188297031E+00
   C  0.477743015E+01 -0.965301452E-01 -0.187148317E+00
   H -0.252954901E+02 -0.273121284E+01 -0.287086506E+01
   H  0.246560122E+02  0.224232940E+01  0.326166296E+01
     4
 # iter = 52000  time[fs]=52.00000
   C -0.499545613E+01 -0.371551018E-02  0.192291713E+00
   C  0.485915225E+01 -0.986743361E-01 -0.190716305E+00
   H -0.256897824E+02 -0.277389098E+01 -0.291559652E+01
   H  0.250398809E+02  0.227743409E+01  0.331364869E+01
     4
 # iter = 52500  time[fs]=52.50000
   C -0.508013682E+01 -0.310609065E-02  0.196293034E+00
   C  0.494100335E+01 -0.100820997E+00 -0.194291583E+00
   H -0.260843272E+02 -0.281659873E+01 -0.296036062E+01
   H  0.254240178E+02  0.231256685E+01  0.336567488E+01
     4
 # iter = 53000  time[fs]=53.00000
   C -0.516494347E+01 -0.249413603E-02  0.200300796E+00
   C  0.502297915E+01 -0.102970068E+00 -0.197873934E+00
   H -0.264791170E+02 -0.285933525E+01 -0.300515643E+01
   H  0.258084149E+02  0.234772687E+01  0.341774036E+01
     4
 # iter = 53500  time[fs]=53.50000
   C -0.524987198E+01 -0.187970821E-02  0.204314811E+00
   C  0.510507557E+01 -0.105121490E+00 -0.201463153E+00
   H -0.268741445E+02 -0.290209969E+01 -0.304998301E+01
   H  0.261930646E+02  0.238291336E+01  0.346984400E+01
     4
 # iter = 54000  time[fs]=54.00000
   C -0.533491841E+01 -0.126286706E-02  0.208334897E+00
   C  0.518728870E+01 -0.107275208E+00 -0.205059040E+00
   H -0.272694029E+02 -0.294489126E+01 -0.309483951E+01
   H  0.265779596E+02  0.241812557E+01  0.352198473E+01
     4
 # iter = 54500  time[fs]=54.50000
   C -0.542007902E+01 -0.643670483E-03  0.212360881E+00
   C  0.526961485E+01 -0.109431167E+00 -0.208661408E+00
   H -0.276648857E+02 -0.298770921E+01 -0.313972508E+01
   H  0.269630929E+02  0.245336277E+01  0.357416151E+01
     4
 # iter = 55000  time[fs]=55.00000
   C -0.550535022E+01 -0.221745460E-04  0.216392596E+00
   C  0.535205045E+01 -0.111589313E+00 -0.212270074E+00
   H -0.280605864E+02 -0.303055279E+01 -0.318463892E+01
   H  0.273484578E+02  0.248862428E+01  0.362637335E+01
     4
 # iter = 55500  time[fs]=55.50000
   C -0.559072860E+01  0.601566509E-03  0.220429884E+00
   C  0.543459214E+01 -0.113749597E+00 -0.215884862E+00
   H -0.284564991E+02 -0.307342130E+01 -0.322958025E+01
   H  0.277340479E+02  0.252390942E+01  0.367861930E+01
     4
 # iter = 56000  time[fs]=56.00000
   C -0.567621089E+01  0.122750018E-02  0.224472591E+00
   C  0.551723666E+01 -0.115911968E+00 -0.219505607E+00
   H -0.288526180E+02 -0.311631409E+01 -0.327454834E+01
   H  0.281198570E+02  0.255921757E+01  0.373089845E+01
     4
 # iter = 56500  time[fs]=56.50000
   C -0.576179397E+01  0.185557562E-02  0.228520570E+00
   C  0.559998093E+01 -0.118076379E+00 -0.223132147E+00
   H -0.292489374E+02 -0.315923049E+01 -0.331954247E+01
   H  0.285058792E+02  0.259454810E+01  0.378320991E+01
     4
 # iter = 57000  time[fs]=57.00000
   C -0.584747485E+01  0.248574363E-02  0.232573680E+00
   C  0.568282199E+01 -0.120242783E+00 -0.226764327E+00
   H -0.296454521E+02 -0.320216988E+01 -0.336456197E+01
   H  0.288921087E+02  0.262990044E+01  0.383555286E+01
     4
 # iter = 57500  time[fs]=57.50000
   C -0.593325067E+01  0.311795655E-02  0.236631785E+00
   C  0.576575701E+01 -0.122411134E+00 -0.230401998E+00
   H -0.300421568E+02 -0.324513168E+01 -0.340960617E+01
   H  0.292785402E+02  0.266527402E+01  0.388792647E+01
     4
 # iter = 58000  time[fs]=58.00000
   C -0.601911870E+01  0.375216821E-02  0.240694754E+00
   C  0.584878327E+01 -0.124581390E+00 -0.234045019E+00
   H -0.304390467E+02 -0.328811531E+01 -0.345467444E+01
   H  0.296651684E+02  0.270066828E+01  0.394032997E+01
     4
 # iter = 58500  time[fs]=58.50000
   C -0.610507630E+01  0.438833389E-02  0.244762462E+00
   C  0.593189817E+01 -0.126753508E+00 -0.237693250E+00
   H -0.308361170E+02 -0.333112020E+01 -0.349976618E+01
   H  0.300519881E+02  0.273608272E+01  0.399276260E+01
     4
 # iter = 59000  time[fs]=59.00000
   C -0.619112097E+01  0.502641026E-02  0.248834787E+00
   C  0.601509921E+01 -0.128927447E+00 -0.241346561E+00
   H -0.312333630E+02 -0.337414585E+01 -0.354488080E+01
   H  0.304389947E+02  0.277151683E+01  0.404522364E+01
     4
 # iter = 59500  time[fs]=59.50000
   C -0.627725027E+01  0.566635532E-02  0.252911614E+00
   C  0.609838401E+01 -0.131103167E+00 -0.245004822E+00
   H -0.316307805E+02 -0.341719172E+01 -0.359001774E+01
   H  0.308261833E+02  0.280697012E+01  0.409771240E+01
     4
 # iter = 60000  time[fs]=60.00000
   C -0.636346190E+01  0.630812837E-02  0.256992830E+00
   C  0.618175026E+01 -0.133280630E+00 -0.248667912E+00
   H -0.320283651E+02 -0.346025732E+01 -0.363517644E+01
   H  0.312135494E+02  0.284244212E+01  0.415022820E+01
     4
 # iter = 60500  time[fs]=60.50000
   C -0.644975362E+01  0.695168994E-02  0.261078327E+00
   C  0.626519576E+01 -0.135459799E+00 -0.252335712E+00
   H -0.324261128E+02 -0.350334219E+01 -0.368035640E+01
   H  0.316010888E+02  0.287793238E+01  0.420277040E+01
     4
 # iter = 61000  time[fs]=61.00000
   C -0.653612330E+01  0.759700176E-02  0.265168000E+00
   C  0.634871840E+01 -0.137640636E+00 -0.256008107E+00
   H -0.328240196E+02 -0.354644585E+01 -0.372555710E+01
   H  0.319887973E+02  0.291344047E+01  0.425533837E+01
     4
 # iter = 61500  time[fs]=61.50000
   C -0.662256888E+01  0.824402670E-02  0.269261749E+00
   C  0.643231612E+01 -0.139823108E+00 -0.259684988E+00
   H -0.332220818E+02 -0.358956788E+01 -0.377077805E+01
   H  0.323766706E+02  0.294896596E+01  0.430793151E+01
     4
 # iter = 62000  time[fs]=62.00000
   C -0.670908837E+01  0.889272877E-02  0.273359477E+00
   C  0.651598698E+01 -0.142007179E+00 -0.263366247E+00
   H -0.336202956E+02 -0.363270783E+01 -0.381601879E+01
   H  0.327647051E+02  0.298450846E+01  0.436054923E+01
     4
 # iter = 62500  time[fs]=62.50000
   C -0.679567988E+01  0.954307300E-02  0.277461090E+00
   C  0.659972908E+01 -0.144192817E+00 -0.267051783E+00
   H -0.340186575E+02 -0.367586531E+01 -0.386127886E+01
   H  0.331528969E+02  0.302006757E+01  0.441319098E+01
     4
 # iter = 63000  time[fs]=63.00000
   C -0.688234157E+01  0.101950255E-01  0.281566498E+00
   C  0.668354062E+01 -0.146379990E+00 -0.270741496E+00
   H -0.344171641E+02 -0.371903990E+01 -0.390655782E+01
   H  0.335412424E+02  0.305564292E+01  0.446585621E+01
     4
 # iter = 63500  time[fs]=63.50000
   C -0.696907167E+01  0.108485533E-01  0.285675614E+00
   C  0.676741983E+01 -0.148568665E+00 -0.274435290E+00
   H -0.348158121E+02 -0.376223122E+01 -0.395185525E+01
   H  0.339297381E+02  0.309123413E+01  0.451854439E+01
     4
 # iter = 64000  time[fs]=64.00000
   C -0.705586848E+01  0.115036245E-01  0.289788352E+00
   C  0.685136504E+01 -0.150758814E+00 -0.278133073E+00
   H -0.352145983E+02 -0.380543890E+01 -0.399717073E+01
   H  0.343183806E+02  0.312684086E+01  0.457125501E+01
     4
 # iter = 64500  time[fs]=64.50000
   C -0.714273037E+01  0.121602080E-01  0.293904631E+00
   C  0.693537463E+01 -0.152950406E+00 -0.281834755E+00
   H -0.356135196E+02 -0.384866259E+01 -0.404250387E+01
   H  0.347071665E+02  0.316246275E+01  0.462398759E+01
     4
 # iter = 65000  time[fs]=65.00000
   C -0.722965575E+01  0.128182736E-01  0.298024372E+00
   C  0.701944702E+01 -0.155143413E+00 -0.285540249E+00
   H -0.360125730E+02 -0.389190192E+01 -0.408785428E+01
   H  0.350960928E+02  0.319809950E+01  0.467674165E+01
     4
 # iter = 65500  time[fs]=65.50000
   C -0.731664309E+01  0.134777921E-01  0.302147499E+00
   C  0.710358071E+01 -0.157337806E+00 -0.289249472E+00
   H -0.364117557E+02 -0.393515657E+01 -0.413322160E+01
   H  0.354851563E+02  0.323375076E+01  0.472951673E+01
     4
 # iter = 66000  time[fs]=66.00000
   C -0.740369092E+01  0.141387350E-01  0.306273937E+00
   C  0.718777423E+01 -0.159533560E+00 -0.292962343E+00
   H -0.368110648E+02 -0.397842620E+01 -0.417860546E+01
   H  0.358743541E+02  0.326941623E+01  0.478231238E+01
     4
 # iter = 66500  time[fs]=66.50000
   C -0.749079782E+01  0.148010745E-01  0.310403615E+00
   C  0.727202619E+01 -0.161730647E+00 -0.296678782E+00
   H -0.372104976E+02 -0.402171051E+01 -0.422400551E+01
   H  0.362636834E+02  0.330509562E+01  0.483512817E+01
     4
 # iter = 67000  time[fs]=67.00000
   C -0.757796242E+01  0.154647839E-01  0.314536464E+00
   C  0.735633521E+01 -0.163929042E+00 -0.300398714E+00
   H -0.376100515E+02 -0.406500918E+01 -0.426942142E+01
   H  0.366531412E+02  0.334078863E+01  0.488796368E+01
     4
 # iter = 67500  time[fs]=67.50000
   C -0.766518338E+01  0.161298368E-01  0.318672417E+00
   C  0.744070000E+01 -0.166128720E+00 -0.304122065E+00
   H -0.380097240E+02 -0.410832191E+01 -0.431485286E+01
   H  0.370427250E+02  0.337649498E+01  0.494081851E+01
     4
 # iter = 68000  time[fs]=68.00000
   C -0.775245944E+01  0.167962079E-01  0.322811408E+00
   C  0.752511927E+01 -0.168329657E+00 -0.307848764E+00
   H -0.384095127E+02 -0.415164842E+01 -0.436029951E+01
   H  0.374324320E+02  0.341221440E+01  0.499369226E+01
     4
 # iter = 68500  time[fs]=68.50000
   C -0.783978934E+01  0.174638724E-01  0.326953374E+00
   C  0.760959179E+01 -0.170531830E+00 -0.311578741E+00
   H -0.388094150E+02 -0.419498843E+01 -0.440576106E+01
   H  0.378222599E+02  0.344794662E+01  0.504658455E+01
     4
 # iter = 69000  time[fs]=69.00000
   C -0.792717188E+01  0.181328062E-01  0.331098254E+00
   C  0.769411639E+01 -0.172735215E+00 -0.315311930E+00
   H -0.392094288E+02 -0.423834167E+01 -0.445123722E+01
   H  0.382122060E+02  0.348369138E+01  0.509949502E+01
     4
 # iter = 69500  time[fs]=69.50000
   C -0.801460592E+01  0.188029859E-01  0.335245989E+00
   C  0.777869192E+01 -0.174939790E+00 -0.319048264E+00
   H -0.396095517E+02 -0.428170787E+01 -0.449672769E+01
   H  0.386022681E+02  0.351944844E+01  0.515242329E+01
     4
 # iter = 70000  time[fs]=70.00000
   C -0.810209031E+01  0.194743886E-01  0.339396521E+00
   C  0.786331725E+01 -0.177145533E+00 -0.322787682E+00
   H -0.400097816E+02 -0.432508679E+01 -0.454223219E+01
   H  0.389924438E+02  0.355521756E+01  0.520536903E+01
     4
 # iter = 70500  time[fs]=70.50000
   C -0.818962398E+01  0.201469921E-01  0.343549794E+00
   C  0.794799132E+01 -0.179352423E+00 -0.326530121E+00
   H -0.404101164E+02 -0.436847816E+01 -0.458775046E+01
   H  0.393827309E+02  0.359099849E+01  0.525833189E+01
     4
 # iter = 71000  time[fs]=71.00000
   C -0.827720587E+01  0.208207748E-01  0.347705755E+00
   C  0.803271308E+01 -0.181560441E+00 -0.330275522E+00
   H -0.408105540E+02 -0.441188175E+01 -0.463328222E+01
   H  0.397731271E+02  0.362679101E+01  0.531131155E+01
     4
 # iter = 71500  time[fs]=71.50000
   C -0.836483496E+01  0.214957155E-01  0.351864350E+00
   C  0.811748152E+01 -0.183769564E+00 -0.334023827E+00
   H -0.412110924E+02 -0.445529734E+01 -0.467882721E+01
   H  0.401636304E+02  0.366259490E+01  0.536430768E+01
     4
 # iter = 72000  time[fs]=72.00000
   C -0.845251027E+01  0.221717938E-01  0.356025527E+00
   C  0.820229566E+01 -0.185979775E+00 -0.337774981E+00
   H -0.416117298E+02 -0.449872468E+01 -0.472438520E+01
   H  0.405542388E+02  0.369840995E+01  0.541731997E+01
     4
 # iter = 72500  time[fs]=72.50000
   C -0.854023082E+01  0.228489897E-01  0.360189239E+00
   C  0.828715455E+01 -0.188191054E+00 -0.341528927E+00
   H -0.420124641E+02 -0.454216356E+01 -0.476995593E+01
   H  0.409449501E+02  0.373423594E+01  0.547034813E+01
     4
 # iter = 73000  time[fs]=73.00000
   C -0.862799570E+01  0.235272836E-01  0.364355436E+00
   C  0.837205728E+01 -0.190403382E+00 -0.345285614E+00
   H -0.424132937E+02 -0.458561376E+01 -0.481553916E+01
   H  0.413357625E+02  0.377007266E+01  0.552339186E+01
     4
 # iter = 73500  time[fs]=73.50000
   C -0.871580400E+01  0.242066565E-01  0.368524070E+00
   C  0.845700294E+01 -0.192616741E+00 -0.349044990E+00
   H -0.428142166E+02 -0.462907508E+01 -0.486113467E+01
   H  0.417266741E+02  0.380591993E+01  0.557645087E+01
     4
 # iter = 74000  time[fs]=74.00000
   C -0.880365484E+01  0.248870900E-01  0.372695098E+00
   C  0.854199068E+01 -0.194831114E+00 -0.352807005E+00
   H -0.432152312E+02 -0.467254731E+01 -0.490674224E+01
   H  0.421176830E+02  0.384177755E+01  0.562952488E+01
     4
 # iter = 74500  time[fs]=74.50000
   C -0.889154738E+01  0.255685658E-01  0.376868473E+00
   C  0.862701965E+01 -0.197046484E+00 -0.356571609E+00
   H -0.436163359E+02 -0.471603026E+01 -0.495236164E+01
   H  0.425087874E+02  0.387764533E+01  0.568261363E+01
     4
 # iter = 75000  time[fs]=75.00000
   C -0.897948079E+01  0.262510665E-01  0.381044154E+00
   C  0.871208904E+01 -0.199262833E+00 -0.360338755E+00
   H -0.440175288E+02 -0.475952372E+01 -0.499799266E+01
   H  0.428999857E+02  0.391352310E+01  0.573571685E+01
     4
 # iter = 75500  time[fs]=75.50000
   C -0.906745426E+01  0.269345748E-01  0.385222098E+00
   C  0.879719805E+01 -0.201480145E+00 -0.364108398E+00
   H -0.444188086E+02 -0.480302753E+01 -0.504363509E+01
   H  0.432912761E+02  0.394941066E+01  0.578883428E+01
     4
 # iter = 76000  time[fs]=76.00000
   C -0.915546703E+01  0.276190739E-01  0.389402263E+00
   C  0.888234592E+01 -0.203698404E+00 -0.367880492E+00
   H -0.448201736E+02 -0.484654148E+01 -0.508928875E+01
   H  0.436826570E+02  0.398530785E+01  0.584196568E+01
     4
 # iter = 76500  time[fs]=76.50000
   C -0.924351834E+01  0.283045475E-01  0.393584611E+00
   C  0.896753189E+01 -0.205917595E+00 -0.371654994E+00
   H -0.452216223E+02 -0.489006541E+01 -0.513495342E+01
   H  0.440741267E+02  0.402121450E+01  0.589511080E+01
     4
 # iter = 77000  time[fs]=77.00000
   C -0.933160745E+01  0.289909797E-01  0.397769103E+00
   C  0.905275524E+01 -0.208137703E+00 -0.375431860E+00
   H -0.456231532E+02 -0.493359915E+01 -0.518062892E+01
   H  0.444656838E+02  0.405713045E+01  0.594826941E+01
     4
 # iter = 77500  time[fs]=77.50000
   C -0.941973364E+01  0.296783547E-01  0.401955700E+00
   C  0.913801526E+01 -0.210358712E+00 -0.379211050E+00
   H -0.460247650E+02 -0.497714251E+01 -0.522631506E+01
   H  0.448573267E+02  0.409305554E+01  0.600144127E+01
     4
 # iter = 78000  time[fs]=78.00000
   C -0.950789622E+01  0.303666574E-01  0.406144366E+00
   C  0.922331126E+01 -0.212580608E+00 -0.382992523E+00
   H -0.464264561E+02 -0.502069535E+01 -0.527201166E+01
   H  0.452490538E+02  0.412898961E+01  0.605462616E+01
     4
 # iter = 78500  time[fs]=78.50000
   C -0.959609453E+01  0.310558729E-01  0.410335065E+00
   C  0.930864258E+01 -0.214803376E+00 -0.386776239E+00
   H -0.468282253E+02 -0.506425749E+01 -0.531771855E+01
   H  0.456408639E+02  0.416493250E+01  0.610782387E+01
     4
 # iter = 79000  time[fs]=79.00000
   C -0.968432789E+01  0.317459867E-01  0.414527763E+00
   C  0.939400857E+01 -0.217027004E+00 -0.390562161E+00
   H -0.472300713E+02 -0.510782879E+01 -0.536343556E+01
   H  0.460327554E+02  0.420088408E+01  0.616103416E+01
     4
 # iter = 79500  time[fs]=79.50000
   C -0.977259567E+01  0.324369846E-01  0.418722425E+00
   C  0.947940859E+01 -0.219251477E+00 -0.394350250E+00
   H -0.476319927E+02 -0.515140909E+01 -0.540916251E+01
   H  0.464247269E+02  0.423684419E+01  0.621425685E+01
     4
 # iter = 80000  time[fs]=80.00000
   C -0.986089725E+01  0.331288528E-01  0.422919017E+00
   C  0.956484203E+01 -0.221476783E+00 -0.398140471E+00
   H -0.480339883E+02 -0.519499824E+01 -0.545489924E+01
   H  0.468167772E+02  0.427281271E+01  0.626749172E+01
