     4
 # iter = 25000  time[fs]=25.00000
   C -0.106730643E+01  0.412751643E-01  0.351923204E-01
   C  0.994058101E+00  0.253498727E-02 -0.265892846E-01
   H -0.531876282E+01 -0.564010141E+00 -0.562237281E+00
   H  0.538146862E+01  0.486994470E+00 -0.129557507E+00
     4
 # iter = 25500  time[fs]=25.50000
   C -0.112204657E+01  0.418872032E-01  0.370043625E-01
   C  0.103699805E+01 -0.762055290E-03 -0.281968293E-01
   H -0.566324068E+01 -0.611119339E+00 -0.606098153E+00
   H  0.569530573E+01  0.509464262E+00 -0.144133323E+00
     4
 # iter = 26000  time[fs]=26.00000
   C -0.118058241E+01  0.416500290E-01  0.380102814E-01
   C  0.108173623E+01 -0.518488440E-02 -0.309213436E-01
   H -0.601844190E+01 -0.664286552E+00 -0.655986018E+00
   H  0.600920394E+01  0.527060229E+00 -0.164236866E+00
     4
 # iter = 26500  time[fs]=26.50000
   C -0.123986885E+01  0.433547224E-01  0.409953110E-01
   C  0.113113733E+01 -0.761178153E-02 -0.316405557E-01
   H -0.636767775E+01 -0.707372386E+00 -0.695764133E+00
   H  0.633868807E+01  0.555820176E+00 -0.173764161E+00
     4
 # iter = 27000  time[fs]=27.00000
   C -0.129953772E+01  0.471335507E-01  0.460866907E-01
   C  0.118512544E+01 -0.788365331E-02 -0.301950856E-01
   H -0.670964493E+01 -0.739519804E+00 -0.724577817E+00
   H  0.668404874E+01  0.596492154E+00 -0.171907905E+00
     4
 # iter = 27500  time[fs]=27.50000
   C -0.136145901E+01  0.508994145E-01  0.511930051E-01
   C  0.124117315E+01 -0.831451184E-02 -0.288988920E-01
   H -0.705587899E+01 -0.772629245E+00 -0.754329582E+00
   H  0.703286088E+01  0.637060158E+00 -0.170630879E+00
     4
 # iter = 28000  time[fs]=28.00000
   C -0.142691407E+01  0.531743671E-01  0.548326425E-01
   C  0.129745067E+01 -0.105405655E-01 -0.293881841E-01
   H -0.741447617E+01 -0.815112600E+00 -0.793433198E+00
   H  0.737626410E+01  0.669015838E+00 -0.178395562E+00
     4
 # iter = 28500  time[fs]=28.50000
   C -0.149513625E+01  0.545486122E-01  0.575927140E-01
   C  0.135444955E+01 -0.138948733E-01 -0.309959971E-01
   H -0.778169492E+01 -0.863511973E+00 -0.838432506E+00
   H  0.771735543E+01  0.695752427E+00 -0.191770160E+00
     4
 # iter = 29000  time[fs]=29.00000
   C -0.156451179E+01  0.564775346E-01  0.609259837E-01
   C  0.141364156E+01 -0.167474178E-01 -0.320923154E-01
   H -0.814886362E+01 -0.909407757E+00 -0.880909484E+00
   H  0.806425375E+01  0.725642650E+00 -0.202348893E+00
     4
 # iter = 29500  time[fs]=29.50000
   C -0.163439766E+01  0.594612488E-01  0.653303237E-01
   C  0.147544955E+01 -0.185330838E-01 -0.321121156E-01
   H -0.851283847E+01 -0.949874017E+00 -0.917939616E+00
   H  0.841961058E+01  0.761563266E+00 -0.207225574E+00
     4
 # iter = 30000  time[fs]=30.00000
   C -0.170537540E+01  0.627892026E-01  0.700932538E-01
   C  0.153896151E+01 -0.200361291E-01 -0.318398367E-01
   H -0.887746603E+01 -0.988944608E+00 -0.953558018E+00
   H  0.877913424E+01  0.799425201E+00 -0.210462703E+00
     4
 # iter = 30500  time[fs]=30.50000
   C -0.177812073E+01  0.656695314E-01  0.744212527E-01
   C  0.160318718E+01 -0.221319795E-01 -0.321511304E-01
   H -0.924708752E+01 -0.103112519E+01 -0.992271479E+00
   H  0.913808815E+01  0.834672225E+00 -0.216592788E+00
     4
 # iter = 31000  time[fs]=31.00000
   C -0.185254336E+01  0.680881488E-01  0.782988125E-01
   C  0.166801368E+01 -0.248301095E-01 -0.330557061E-01
   H -0.962159743E+01 -0.107645775E+01 -0.103412302E+01
   H  0.949623378E+01  0.867224504E+00 -0.225674752E+00
     4
 # iter = 31500  time[fs]=31.50000
   C -0.192803800E+01  0.705565461E-01  0.822362011E-01
   C  0.173392333E+01 -0.275549731E-01 -0.339782579E-01
   H -0.999788960E+01 -0.112196892E+01 -0.107614023E+01
   H  0.985637585E+01  0.900027007E+00 -0.234745124E+00
     4
 # iter = 32000  time[fs]=32.00000
   C -0.200420371E+01  0.733909993E-01  0.865486349E-01
   C  0.180118968E+01 -0.299489800E-01 -0.345614490E-01
   H -0.103739968E+02 -0.116581019E+01 -0.111647543E+01
   H  0.102202103E+02  0.934901297E+00 -0.241965726E+00
     4
 # iter = 32500  time[fs]=32.50000
   C -0.208110146E+01  0.764540576E-01  0.910977405E-01
   C  0.186958855E+01 -0.321604551E-01 -0.349538736E-01
   H -0.107505744E+02 -0.120874251E+01 -0.115589036E+01
   H  0.105868339E+02  0.971057775E+00 -0.248111081E+00
     4
 # iter = 33000  time[fs]=33.00000
   C -0.215894272E+01  0.794649611E-01  0.956019527E-01
   C  0.193874300E+01 -0.344977656E-01 -0.354641748E-01
   H -0.111291143E+02 -0.125235266E+01 -0.119597250E+01
   H  0.109545294E+02  0.100688217E+01 -0.254781778E+00
     4
 # iter = 33500  time[fs]=33.50000
   C -0.223774831E+01  0.823401735E-01  0.999770309E-01
   C  0.200850188E+01 -0.370499028E-01 -0.361816175E-01
   H -0.115099870E+02 -0.129709670E+01 -0.123717856E+01
   H  0.113227250E+02  0.104189531E+01 -0.262444609E+00
     4
 # iter = 34000  time[fs]=34.00000
   C -0.231734425E+01  0.851967607E-01  0.104339424E+00
   C  0.207894299E+01 -0.396826881E-01 -0.369722909E-01
   H -0.118924202E+02 -0.134228032E+01 -0.127881482E+01
   H  0.116920119E+02  0.107677252E+01 -0.270413040E+00
     4
 # iter = 34500  time[fs]=34.50000
   C -0.239756425E+01  0.881492872E-01  0.108803152E+00
   C  0.215014614E+01 -0.422650233E-01 -0.377053592E-01
   H -0.122756651E+02 -0.138722545E+01 -0.132020374E+01
   H  0.120629747E+02  0.111217466E+01 -0.278016004E+00
     4
 # iter = 35000  time[fs]=35.00000
   C -0.247836462E+01  0.911943220E-01  0.113364305E+00
   C  0.222206401E+01 -0.447975370E-01 -0.383817077E-01
   H -0.126596586E+02 -0.143193357E+01 -0.136134731E+01
   H  0.124355255E+02  0.114808339E+01 -0.285262481E+00
     4
 # iter = 35500  time[fs]=35.50000
   C -0.255977020E+01  0.942640015E-01  0.117954592E+00
   C  0.229458136E+01 -0.473528836E-01 -0.390742417E-01
   H -0.130447152E+02 -0.147677777E+01 -0.140261909E+01
   H  0.128092112E+02  0.118410951E+01 -0.292533106E+00
     4
 # iter = 36000  time[fs]=36.00000
   C -0.264177914E+01  0.973208568E-01  0.122536167E+00
   C  0.236762023E+01 -0.499700746E-01 -0.398222151E-01
   H -0.134309809E+02 -0.152195787E+01 -0.144421930E+01
   H  0.131837591E+02  0.122003867E+01 -0.300034343E+00
     4
 # iter = 36500  time[fs]=36.50000
   C -0.272434082E+01  0.100379490E+00  0.127123294E+00
   C  0.244116379E+01 -0.526303097E-01 -0.406070615E-01
   H -0.138183082E+02 -0.156737573E+01 -0.148605020E+01
   H  0.135592008E+02  0.125595618E+01 -0.307673658E+00
     4
 # iter = 37000  time[fs]=37.00000
   C -0.280739557E+01  0.103466546E+00  0.131742318E+00
   C  0.251521134E+01 -0.553015539E-01 -0.413969704E-01
   H -0.142064856E+02 -0.161286511E+01 -0.152794592E+01
   H  0.139356417E+02  0.129201656E+01 -0.315289840E+00
     4
 # iter = 37500  time[fs]=37.50000
   C -0.289090723E+01  0.106587829E+00  0.136398772E+00
   C  0.258974151E+01 -0.579751601E-01 -0.421835110E-01
   H -0.145954255E+02 -0.165838050E+01 -0.156986128E+01
   H  0.143130705E+02  0.132825433E+01 -0.322842208E+00
     4
 # iter = 38000  time[fs]=38.00000
   C -0.297485928E+01  0.109731915E+00  0.141080988E+00
   C  0.266471592E+01 -0.606618282E-01 -0.429775906E-01
   H -0.149851438E+02 -0.170397623E+01 -0.161185092E+01
   H  0.146913807E+02  0.136460477E+01 -0.330389759E+00
     4
 # iter = 38500  time[fs]=38.50000
   C -0.305923583E+01  0.112888907E+00  0.145778853E+00
   C  0.274009993E+01 -0.633706955E-01 -0.437885455E-01
   H -0.153756512E+02 -0.174969868E+01 -0.165396151E+01
   H  0.150704771E+02  0.140101191E+01 -0.337983169E+00
     4
 # iter = 39000  time[fs]=39.00000
   C -0.314401359E+01  0.116058306E+00  0.150491669E+00
   C  0.281587120E+01 -0.661005573E-01 -0.446153614E-01
   H -0.157669077E+02 -0.179554098E+01 -0.169618645E+01
   H  0.154503219E+02  0.143747380E+01 -0.345619459E+00
     4
 # iter = 39500  time[fs]=39.50000
   C -0.322916687E+01  0.119243787E+00  0.155222932E+00
   C  0.289201370E+01 -0.688456768E-01 -0.454524837E-01
   H -0.161588523E+02 -0.184147292E+01 -0.173849579E+01
   H  0.158309033E+02  0.147401245E+01 -0.353272031E+00
     4
 # iter = 40000  time[fs]=40.00000
   C -0.331467386E+01  0.122446741E+00  0.159973871E+00
   C  0.296851031E+01 -0.716029699E-01 -0.462970023E-01
   H -0.165514400E+02 -0.188747806E+01 -0.178087331E+01
   H  0.162121991E+02  0.151063668E+01 -0.360927795E+00
     4
 # iter = 40500  time[fs]=40.50000
   C -0.340051732E+01  0.125665503E+00  0.164742673E+00
   C  0.304534190E+01 -0.743728547E-01 -0.471495023E-01
   H -0.169446458E+02 -0.193355806E+01 -0.182332090E+01
   H  0.165941712E+02  0.154733768E+01 -0.368591577E+00
     4
 # iter = 41000  time[fs]=41.00000
   C -0.348668175E+01  0.128897964E+00  0.169527096E+00
   C  0.312249008E+01 -0.771563351E-01 -0.480111464E-01
   H -0.173384498E+02 -0.197971762E+01 -0.186584348E+01
   H  0.169767812E+02  0.158410402E+01 -0.376271063E+00
     4
 # iter = 41500  time[fs]=41.50000
   C -0.357315170E+01  0.132143207E+00  0.174326099E+00
   C  0.319993889E+01 -0.799531737E-01 -0.488818498E-01
   H -0.177328269E+02 -0.202595511E+01 -0.190843959E+01
   H  0.173599989E+02  0.162093109E+01 -0.383967375E+00
     4
 # iter = 42000  time[fs]=42.00000
   C -0.365991203E+01  0.135401130E+00  0.179139467E+00
   C  0.327767433E+01 -0.827623003E-01 -0.497606874E-01
   H -0.181277497E+02 -0.207226462E+01 -0.195110351E+01
   H  0.177438006E+02  0.165781894E+01 -0.391677193E+00
     4
 # iter = 42500  time[fs]=42.50000
   C -0.374694868E+01  0.138671550E+00  0.183966916E+00
   C  0.335568324E+01 -0.855828046E-01 -0.506468881E-01
   H -0.185231927E+02 -0.211864110E+01 -0.199383037E+01
   H  0.181281637E+02  0.169476713E+01 -0.399397891E+00
     4
 # iter = 43000  time[fs]=43.00000
   C -0.383424889E+01  0.141953936E+00  0.188807819E+00
   C  0.343395292E+01 -0.884142340E-01 -0.515401321E-01
   H -0.189191342E+02 -0.216508188E+01 -0.203661765E+01
   H  0.185130646E+02  0.173177313E+01 -0.407129086E+00
     4
 # iter = 43500  time[fs]=43.50000
   C -0.392180085E+01  0.145247650E+00  0.193661451E+00
   C  0.351247136E+01 -0.912563150E-01 -0.524402729E-01
   H -0.193155546E+02 -0.221158524E+01 -0.207946379E+01
   H  0.188984806E+02  0.176883379E+01 -0.414871212E+00
     4
 # iter = 44000  time[fs]=44.00000
   C -0.400959344E+01  0.148552170E+00  0.198527211E+00
   C  0.359122740E+01 -0.941086983E-01 -0.533470826E-01
   H -0.197124349E+02 -0.225814910E+01 -0.212236684E+01
   H  0.192843906E+02  0.180594663E+01 -0.422624202E+00
     4
 # iter = 44500  time[fs]=44.50000
   C -0.409761613E+01  0.151867101E+00  0.203404629E+00
   C  0.367021066E+01 -0.969709504E-01 -0.542602440E-01
   H -0.201097568E+02 -0.230477094E+01 -0.216532444E+01
   H  0.196707755E+02  0.184310982E+01 -0.430387463E+00
     4
 # iter = 45000  time[fs]=45.00000
   C -0.418585902E+01  0.155192079E+00  0.208293271E+00
   C  0.374941145E+01 -0.998426500E-01 -0.551794467E-01
   H -0.205075029E+02 -0.235144836E+01 -0.220833429E+01
   H  0.200576171E+02  0.188032169E+01 -0.438160368E+00
     4
 # iter = 45500  time[fs]=45.50000
   C -0.427431285E+01  0.158526728E+00  0.213192702E+00
   C  0.382882059E+01 -0.102723432E+00 -0.561044324E-01
   H -0.209056570E+02 -0.239817922E+01 -0.225139439E+01
   H  0.204448982E+02  0.191758052E+01 -0.445942505E+00
     4
 # iter = 46000  time[fs]=46.00000
   C -0.436296893E+01  0.161870677E+00  0.218102488E+00
   C  0.390842947E+01 -0.105612972E+00 -0.570349779E-01
   H -0.213042038E+02 -0.244496164E+01 -0.229450297E+01
   H  0.208326024E+02  0.195488453E+01 -0.453733585E+00
     4
 # iter = 46500  time[fs]=46.50000
   C -0.445181905E+01  0.165223578E+00  0.223022228E+00
   C  0.398822995E+01 -0.108510958E+00 -0.579708693E-01
   H -0.217031291E+02 -0.249179380E+01 -0.233765830E+01
   H  0.212207142E+02  0.199223210E+01 -0.461533318E+00
     4
 # iter = 47000  time[fs]=47.00000
   C -0.454085548E+01  0.168585106E+00  0.227951548E+00
   C  0.406821438E+01 -0.111417087E+00 -0.589118961E-01
   H -0.221024190E+02 -0.253867393E+01 -0.238085875E+01
   H  0.216092188E+02  0.202962170E+01 -0.469341386E+00
     4
 # iter = 47500  time[fs]=47.50000
   C -0.463007094E+01  0.171954959E+00  0.232890095E+00
   C  0.414837555E+01 -0.114331067E+00 -0.598578570E-01
   H -0.225020606E+02 -0.258560034E+01 -0.242410270E+01
   H  0.219981026E+02  0.206705191E+01 -0.477157472E+00
     4
 # iter = 48000  time[fs]=48.00000
   C -0.471945853E+01  0.175332846E+00  0.237837536E+00
   C  0.422870664E+01 -0.117252625E+00 -0.608085636E-01
   H -0.229020417E+02 -0.263257146E+01 -0.246738868E+01
   H  0.223873523E+02  0.210452137E+01 -0.484981286E+00
     4
 # iter = 48500  time[fs]=48.50000
   C -0.480901173E+01  0.178718490E+00  0.242793554E+00
   C  0.430920122E+01 -0.120181501E+00 -0.617638392E-01
   H -0.233023504E+02 -0.267958577E+01 -0.251071526E+01
   H  0.227769554E+02  0.214202879E+01 -0.492812563E+00
     4
 # iter = 49000  time[fs]=49.00000
   C -0.489872439E+01  0.182111627E+00  0.247757845E+00
   C  0.438985318E+01 -0.123117450E+00 -0.627235166E-01
   H -0.237029759E+02 -0.272664185E+01 -0.255408110E+01
   H  0.231669000E+02  0.217957290E+01 -0.500651051E+00
     4
 # iter = 49500  time[fs]=49.50000
   C -0.498859068E+01  0.185512009E+00  0.252730125E+00
   C  0.447065675E+01 -0.126060236E+00 -0.636874369E-01
   H -0.241039075E+02 -0.277373833E+01 -0.259748492E+01
   H  0.235571748E+02  0.221715255E+01 -0.508496507E+00
     4
 # iter = 50000  time[fs]=50.00000
   C -0.507860505E+01  0.188919396E+00  0.257710121E+00
   C  0.455160646E+01 -0.129009637E+00 -0.646554492E-01
   H -0.245051351E+02 -0.282087391E+01 -0.264092549E+01
   H  0.239477691E+02  0.225476660E+01 -0.516348699E+00
     4
 # iter = 50500  time[fs]=50.50000
   C -0.516876226E+01  0.192333562E+00  0.262697574E+00
   C  0.463269712E+01 -0.131965438E+00 -0.656274100E-01
   H -0.249066494E+02 -0.286804737E+01 -0.268440166E+01
   H  0.243386727E+02  0.229241398E+01 -0.524207408E+00
     4
 # iter = 51000  time[fs]=51.00000
   C -0.525905733E+01  0.195754291E+00  0.267692240E+00
   C  0.471392381E+01 -0.134927436E+00 -0.666031835E-01
   H -0.253084410E+02 -0.291525752E+01 -0.272791232E+01
   H  0.247298757E+02  0.233009367E+01 -0.532072424E+00
     4
 # iter = 51500  time[fs]=51.50000
   C -0.534948553E+01  0.199181376E+00  0.272693883E+00
   C  0.479528184E+01 -0.137895439E+00 -0.675826402E-01
   H -0.257105015E+02 -0.296250324E+01 -0.277145639E+01
   H  0.251213689E+02  0.236780470E+01 -0.539943548E+00
     4
 # iter = 52000  time[fs]=52.00000
   C -0.544004235E+01  0.202614621E+00  0.277702281E+00
   C  0.487676677E+01 -0.140869260E+00 -0.685656572E-01
   H -0.261128224E+02 -0.300978345E+01 -0.281503289E+01
   H  0.255131433E+02  0.240554613E+01 -0.547820590E+00
     4
 # iter = 52500  time[fs]=52.50000
   C -0.553072352E+01  0.206053837E+00  0.282717221E+00
   C  0.495837436E+01 -0.143848723E+00 -0.695521172E-01
   H -0.265153960E+02 -0.305709712E+01 -0.285864083E+01
   H  0.259051905E+02  0.244331706E+01 -0.555703368E+00
     4
 # iter = 53000  time[fs]=53.00000
   C -0.562152494E+01  0.209498846E+00  0.287738499E+00
   C  0.504010058E+01 -0.146833659E+00 -0.705419087E-01
   H -0.269182145E+02 -0.310444328E+01 -0.290227930E+01
   H  0.262975023E+02  0.248111665E+01 -0.563591709E+00
     4
 # iter = 53500  time[fs]=53.50000
   C -0.571244275E+01  0.212949474E+00  0.292765922E+00
   C  0.512194158E+01 -0.149823905E+00 -0.715349250E-01
   H -0.273212709E+02 -0.315182098E+01 -0.294594741E+01
   H  0.266900710E+02  0.251894407E+01 -0.571485446E+00
     4
 # iter = 54000  time[fs]=54.00000
   C -0.580347322E+01  0.216405557E+00  0.297799305E+00
   C  0.520389370E+01 -0.152819308E+00 -0.725310647E-01
   H -0.277245581E+02 -0.319922932E+01 -0.298964431E+01
   H  0.270828891E+02  0.255679854E+01 -0.579384421E+00
     4
 # iter = 54500  time[fs]=54.50000
   C -0.589461282E+01  0.219866938E+00  0.302838470E+00
   C  0.528595345E+01 -0.155819718E+00 -0.735302307E-01
   H -0.281280697E+02 -0.324666744E+01 -0.303336920E+01
   H  0.274759495E+02  0.259467932E+01 -0.587288483E+00
     4
 # iter = 55000  time[fs]=55.00000
   C -0.598585817E+01  0.223333466E+00  0.307883247E+00
   C  0.536811749E+01 -0.158824993E+00 -0.745323304E-01
   H -0.285317991E+02 -0.329413452E+01 -0.307712129E+01
   H  0.278692455E+02  0.263258567E+01 -0.595197485E+00
     4
 # iter = 55500  time[fs]=55.50000
   C -0.607720605E+01  0.226804996E+00  0.312933474E+00
   C  0.545038263E+01 -0.161834998E+00 -0.755372752E-01
   H -0.289357403E+02 -0.334162975E+01 -0.312089984E+01
   H  0.282627704E+02  0.267051691E+01 -0.603111289E+00
     4
 # iter = 56000  time[fs]=56.00000
   C -0.616865337E+01  0.230281389E+00  0.317988996E+00
   C  0.553274582E+01 -0.164849601E+00 -0.765449803E-01
   H -0.293398876E+02 -0.338915239E+01 -0.316470414E+01
   H  0.286565179E+02  0.270847237E+01 -0.611029760E+00
     4
 # iter = 56500  time[fs]=56.50000
   C -0.626019717E+01  0.233762512E+00  0.323049664E+00
   C  0.561520414E+01 -0.167868677E+00 -0.775553648E-01
   H -0.297442353E+02 -0.343670169E+01 -0.320853349E+01
   H  0.290504821E+02  0.274645141E+01 -0.618952772E+00
     4
 # iter = 57000  time[fs]=57.00000
   C -0.635183464E+01  0.237248237E+00  0.328115334E+00
   C  0.569775481E+01 -0.170892106E+00 -0.785683509E-01
   H -0.301487780E+02 -0.348427696E+01 -0.325238724E+01
   H  0.294446572E+02  0.278445343E+01 -0.626880200E+00
     4
 # iter = 57500  time[fs]=57.50000
   C -0.644356307E+01  0.240738441E+00  0.333185870E+00
   C  0.578039514E+01 -0.173919771E+00 -0.795838641E-01
   H -0.305535106E+02 -0.353187752E+01 -0.329626475E+01
   H  0.298390376E+02  0.282247782E+01 -0.634811926E+00
     4
 # iter = 58000  time[fs]=58.00000
   C -0.653537985E+01  0.244233007E+00  0.338261140E+00
   C  0.586312258E+01 -0.176951562E+00 -0.806018332E-01
   H -0.309584281E+02 -0.357950272E+01 -0.334016541E+01
   H  0.302336179E+02  0.286052403E+01 -0.642747838E+00
     4
 # iter = 58500  time[fs]=58.50000
   C -0.662728251E+01  0.247731819E+00  0.343341017E+00
   C  0.594593468E+01 -0.179987370E+00 -0.816221897E-01
   H -0.313635257E+02 -0.362715193E+01 -0.338408863E+01
   H  0.306283931E+02  0.289859150E+01 -0.650687825E+00
     4
 # iter = 59000  time[fs]=59.00000
   C -0.671926866E+01  0.251234770E+00  0.348425380E+00
   C  0.602882906E+01 -0.183027094E+00 -0.826448679E-01
   H -0.317687988E+02 -0.367482457E+01 -0.342803385E+01
   H  0.310233581E+02  0.293667971E+01 -0.658631784E+00
     4
 # iter = 59500  time[fs]=59.50000
   C -0.681133601E+01  0.254741754E+00  0.353514112E+00
   C  0.611180348E+01 -0.186070634E+00 -0.836698048E-01
   H -0.321742431E+02 -0.372252004E+01 -0.347200053E+01
   H  0.314185083E+02  0.297478815E+01 -0.666579612E+00
     4
 # iter = 60000  time[fs]=60.00000
   C -0.690348236E+01  0.258252670E+00  0.358607100E+00
   C  0.619485577E+01 -0.189117894E+00 -0.846969397E-01
   H -0.325798542E+02 -0.377023778E+01 -0.351598813E+01
   H  0.318138389E+02  0.301291634E+01 -0.674531213E+00
     4
 # iter = 60500  time[fs]=60.50000
   C -0.699570559E+01  0.261767420E+00  0.363704236E+00
   C  0.627798382E+01 -0.192168782E+00 -0.857262144E-01
   H -0.329856281E+02 -0.381797727E+01 -0.355999616E+01
   H  0.322093457E+02  0.305106379E+01 -0.682486494E+00
     4
 # iter = 61000  time[fs]=61.00000
   C -0.708800368E+01  0.265285910E+00  0.368805417E+00
   C  0.636118565E+01 -0.195223211E+00 -0.867575730E-01
   H -0.333915608E+02 -0.386573797E+01 -0.360402412E+01
   H  0.326050242E+02  0.308923006E+01 -0.690445363E+00
     4
 # iter = 61500  time[fs]=61.50000
   C -0.718037467E+01  0.268808049E+00  0.373910541E+00
   C  0.644445932E+01 -0.198281093E+00 -0.877909614E-01
   H -0.337976485E+02 -0.391351940E+01 -0.364807154E+01
   H  0.330008705E+02  0.312741471E+01 -0.698407733E+00
     4
 # iter = 62000  time[fs]=62.00000
   C -0.727281668E+01  0.272333751E+00  0.379019512E+00
   C  0.652780297E+01 -0.201342347E+00 -0.888263279E-01
   H -0.342038875E+02 -0.396132106E+01 -0.369213798E+01
   H  0.333968806E+02  0.316561730E+01 -0.706373522E+00
     4
 # iter = 62500  time[fs]=62.50000
   C -0.736532791E+01  0.275862930E+00  0.384132237E+00
   C  0.661121482E+01 -0.204406893E+00 -0.898636225E-01
   H -0.346102742E+02 -0.400914249E+01 -0.373622298E+01
   H  0.337930506E+02  0.320383744E+01 -0.714342648E+00
     4
 # iter = 63000  time[fs]=63.00000
   C -0.745790660E+01  0.279395505E+00  0.389248626E+00
   C  0.669469314E+01 -0.207474654E+00 -0.909027971E-01
   H -0.350168053E+02 -0.405698324E+01 -0.378032613E+01
   H  0.341893768E+02  0.324207472E+01 -0.722315032E+00
     4
 # iter = 63500  time[fs]=63.50000
   C -0.755055109E+01  0.282931397E+00  0.394368592E+00
   C  0.677823629E+01 -0.210545555E+00 -0.919438053E-01
   H -0.354234775E+02 -0.410484288E+01 -0.382444702E+01
   H  0.345858557E+02  0.328032877E+01 -0.730290600E+00
     4
 # iter = 64000  time[fs]=64.00000
   C -0.764325974E+01  0.286470531E+00  0.399492051E+00
   C  0.686184266E+01 -0.213619526E+00 -0.929866024E-01
   H -0.358302874E+02 -0.415272097E+01 -0.386858525E+01
   H  0.349824838E+02  0.331859921E+01 -0.738269278E+00
     4
 # iter = 64500  time[fs]=64.50000
   C -0.773603101E+01  0.290012833E+00  0.404618922E+00
   C  0.694551072E+01 -0.216696496E+00 -0.940311453E-01
   H -0.362372321E+02 -0.420061712E+01 -0.391274044E+01
   H  0.353792578E+02  0.335688568E+01 -0.746250996E+00
     4
 # iter = 65000  time[fs]=65.00000
   C -0.782886338E+01  0.293558232E+00  0.409749128E+00
   C  0.702923897E+01 -0.219776399E+00 -0.950773924E-01
   H -0.366443085E+02 -0.424853093E+01 -0.395691221E+01
   H  0.357761744E+02  0.339518784E+01 -0.754235685E+00
     4
 # iter = 65500  time[fs]=65.50000
   C -0.792175541E+01  0.297106659E+00  0.414882592E+00
   C  0.711302599E+01 -0.222859169E+00 -0.961253034E-01
   H -0.370515138E+02 -0.429646202E+01 -0.400110022E+01
   H  0.361732306E+02  0.343350535E+01 -0.762223281E+00
     4
 # iter = 66000  time[fs]=66.00000
   C -0.801470569E+01  0.300658048E+00  0.420019242E+00
   C  0.719687038E+01 -0.225944745E+00 -0.971748396E-01
   H -0.374588451E+02 -0.434441002E+01 -0.404530411E+01
   H  0.365704232E+02  0.347183789E+01 -0.770213719E+00
     4
 # iter = 66500  time[fs]=66.50000
   C -0.810771286E+01  0.304212334E+00  0.425159006E+00
   C  0.728077082E+01 -0.229033064E+00 -0.982259635E-01
   H -0.378662998E+02 -0.439237456E+01 -0.408952354E+01
   H  0.369677494E+02  0.351018514E+01 -0.778206938E+00
     4
 # iter = 67000  time[fs]=67.00000
   C -0.820077562E+01  0.307769455E+00  0.430301818E+00
   C  0.736472601E+01 -0.232124068E+00 -0.992786388E-01
   H -0.382738752E+02 -0.444035532E+01 -0.413375820E+01
   H  0.373652064E+02  0.354854680E+01 -0.786202878E+00
     4
 # iter = 67500  time[fs]=67.50000
   C -0.829389270E+01  0.311329351E+00  0.435447609E+00
   C  0.744873471E+01 -0.235217701E+00 -0.100332831E+00
   H -0.386815688E+02 -0.448835194E+01 -0.417800776E+01
   H  0.377627913E+02  0.358692257E+01 -0.794201481E+00
     4
 # iter = 68000  time[fs]=68.00000
   C -0.838706288E+01  0.314891964E+00  0.440596317E+00
   C  0.753279570E+01 -0.238313907E+00 -0.101388505E+00
   H -0.390893781E+02 -0.453636411E+01 -0.422227192E+01
   H  0.381605016E+02  0.362531216E+01 -0.802202690E+00
     4
 # iter = 68500  time[fs]=68.50000
   C -0.848028498E+01  0.318457236E+00  0.445747880E+00
   C  0.761690782E+01 -0.241412632E+00 -0.102445629E+00
   H -0.394973007E+02 -0.458439150E+01 -0.426655038E+01
   H  0.385583346E+02  0.366371530E+01 -0.810206453E+00
     4
 # iter = 69000  time[fs]=69.00000
   C -0.857355785E+01  0.322025113E+00  0.450902237E+00
   C  0.770106994E+01 -0.244513825E+00 -0.103504172E+00
   H -0.399053343E+02 -0.463243382E+01 -0.431084285E+01
   H  0.389562879E+02  0.370213171E+01 -0.818212716E+00
     4
 # iter = 69500  time[fs]=69.50000
   C -0.866688037E+01  0.325595541E+00  0.456059330E+00
   C  0.778528097E+01 -0.247617435E+00 -0.104564101E+00
   H -0.403134767E+02 -0.468049076E+01 -0.435514907E+01
   H  0.393543591E+02  0.374056113E+01 -0.826221428E+00
     4
 # iter = 70000  time[fs]=70.00000
   C -0.876025149E+01  0.329168470E+00  0.461219103E+00
   C  0.786953985E+01 -0.250723414E+00 -0.105625389E+00
   H -0.407217257E+02 -0.472856204E+01 -0.439946874E+01
   H  0.397525457E+02  0.377900332E+01 -0.834232540E+00
     4
 # iter = 70500  time[fs]=70.50000
   C -0.885367016E+01  0.332743848E+00  0.466381500E+00
   C  0.795384555E+01 -0.253831714E+00 -0.106688005E+00
   H -0.411300791E+02 -0.477664738E+01 -0.444380162E+01
   H  0.401508455E+02  0.381745802E+01 -0.842246004E+00
     4
 # iter = 71000  time[fs]=71.00000
   C -0.894713538E+01  0.336321627E+00  0.471546470E+00
   C  0.803819708E+01 -0.256942289E+00 -0.107751922E+00
   H -0.415385350E+02 -0.482474650E+01 -0.448814745E+01
   H  0.405492563E+02  0.385592499E+01 -0.850261772E+00
     4
 # iter = 71500  time[fs]=71.50000
   C -0.904064617E+01  0.339901761E+00  0.476713960E+00
   C  0.812259349E+01 -0.260055094E+00 -0.108817113E+00
   H -0.419470913E+02 -0.487285914E+01 -0.453250597E+01
   H  0.409477759E+02  0.389440399E+01 -0.858279801E+00
     4
 # iter = 72000  time[fs]=72.00000
   C -0.913420157E+01  0.343484202E+00  0.481883920E+00
   C  0.820703383E+01 -0.263170087E+00 -0.109883552E+00
   H -0.423557461E+02 -0.492098504E+01 -0.457687695E+01
   H  0.413464022E+02  0.393289481E+01 -0.866300045E+00
     4
 # iter = 72500  time[fs]=72.50000
   C -0.922780069E+01  0.347068908E+00  0.487056302E+00
   C  0.829151720E+01 -0.266287224E+00 -0.110951213E+00
   H -0.427644975E+02 -0.496912396E+01 -0.462126015E+01
   H  0.417451333E+02  0.397139723E+01 -0.874322463E+00
     4
 # iter = 73000  time[fs]=73.00000
   C -0.932144262E+01  0.350655833E+00  0.492231059E+00
   C  0.837604273E+01 -0.269406466E+00 -0.112020071E+00
   H -0.431733437E+02 -0.501727565E+01 -0.466565535E+01
   H  0.421439670E+02  0.400991101E+01 -0.882347012E+00
     4
 # iter = 73500  time[fs]=73.50000
   C -0.941512651E+01  0.354244937E+00  0.497408145E+00
   C  0.846060957E+01 -0.272527772E+00 -0.113090103E+00
   H -0.435822829E+02 -0.506543988E+01 -0.471006232E+01
   H  0.425429016E+02  0.404843597E+01 -0.890373653E+00
     4
 # iter = 74000  time[fs]=74.00000
   C -0.950885152E+01  0.357836178E+00  0.502587516E+00
   C  0.854521689E+01 -0.275651103E+00 -0.114161286E+00
   H -0.439913134E+02 -0.511361642E+01 -0.475448084E+01
   H  0.429419351E+02  0.408697190E+01 -0.898402347E+00
     4
 # iter = 74500  time[fs]=74.50000
   C -0.960261683E+01  0.361429516E+00  0.507769127E+00
   C  0.862986388E+01 -0.278776423E+00 -0.115233596E+00
   H -0.444004335E+02 -0.516180503E+01 -0.479891072E+01
   H  0.433410657E+02  0.412551859E+01 -0.906433054E+00
     4
 # iter = 75000  time[fs]=75.00000
   C -0.969642165E+01  0.365024914E+00  0.512952938E+00
   C  0.871454977E+01 -0.281903694E+00 -0.116307012E+00
   H -0.448096415E+02 -0.521000552E+01 -0.484335174E+01
   H  0.437402917E+02  0.416407586E+01 -0.914465739E+00
     4
 # iter = 75500  time[fs]=75.50000
   C -0.979026522E+01  0.368622333E+00  0.518138907E+00
   C  0.879927380E+01 -0.285032881E+00 -0.117381512E+00
   H -0.452189359E+02 -0.525821766E+01 -0.488780370E+01
   H  0.441396113E+02  0.420264352E+01 -0.922500365E+00
     4
 # iter = 76000  time[fs]=76.00000
   C -0.988414679E+01  0.372221737E+00  0.523326995E+00
   C  0.888403525E+01 -0.288163949E+00 -0.118457076E+00
   H -0.456283152E+02 -0.530644124E+01 -0.493226642E+01
   H  0.445390228E+02  0.424122139E+01 -0.930536897E+00
     4
 # iter = 76500  time[fs]=76.50000
   C -0.997806564E+01  0.375823089E+00  0.528517163E+00
   C  0.896883338E+01 -0.291296865E+00 -0.119533684E+00
   H -0.460377778E+02 -0.535467608E+01 -0.497673970E+01
   H  0.449385247E+02  0.427980928E+01 -0.938575301E+00
     4
 # iter = 77000  time[fs]=77.00000
   C -0.100720211E+02  0.379426356E+00  0.533709373E+00
   C  0.905366752E+01 -0.294431596E+00 -0.120611316E+00
   H -0.464473222E+02 -0.540292197E+01 -0.502122336E+01
   H  0.453381153E+02  0.431840704E+01 -0.946615544E+00
     4
 # iter = 77500  time[fs]=77.50000
   C -0.101660124E+02  0.383031504E+00  0.538903589E+00
   C  0.913853698E+01 -0.297568109E+00 -0.121689953E+00
   H -0.468569471E+02 -0.545117872E+01 -0.506571722E+01
   H  0.457377931E+02  0.435701448E+01 -0.954657593E+00
     4
 # iter = 78000  time[fs]=78.00000
   C -0.102600389E+02  0.386638499E+00  0.544099774E+00
   C  0.922344111E+01 -0.300706374E+00 -0.122769577E+00
   H -0.472666510E+02 -0.549944615E+01 -0.511022110E+01
   H  0.461375566E+02  0.439563145E+01 -0.962701416E+00
     4
 # iter = 78500  time[fs]=78.50000
   C -0.103541000E+02  0.390247310E+00  0.549297895E+00
   C  0.930837927E+01 -0.303846360E+00 -0.123850169E+00
   H -0.476764326E+02 -0.554772408E+01 -0.515473485E+01
   H  0.465374043E+02  0.443425778E+01 -0.970746984E+00
     4
 # iter = 79000  time[fs]=79.00000
   C -0.104481951E+02  0.393857906E+00  0.554497918E+00
   C  0.939335084E+01 -0.306988038E+00 -0.124931712E+00
   H -0.480862905E+02 -0.559601233E+01 -0.519925828E+01
   H  0.469373348E+02  0.447289332E+01 -0.978794266E+00
     4
 # iter = 79500  time[fs]=79.50000
   C -0.105423235E+02  0.397470255E+00  0.559699808E+00
   C  0.947835522E+01 -0.310131378E+00 -0.126014188E+00
   H -0.484962235E+02 -0.564431072E+01 -0.524379125E+01
   H  0.473373467E+02  0.451153792E+01 -0.986843233E+00
     4
 # iter = 80000  time[fs]=80.00000
   C -0.106364846E+02  0.401084329E+00  0.564903536E+00
   C  0.956339181E+01 -0.313276354E+00 -0.127097582E+00
   H -0.489062303E+02 -0.569261910E+01 -0.528833359E+01
   H  0.477374387E+02  0.455019142E+01 -0.994893856E+00
