     4
 # iter = 25000  time[fs]=25.00000
   C -0.966036193E+00 -0.469960769E-01  0.310056916E-01
   C  0.992200391E+00  0.130217608E-01 -0.575721269E-02
   H -0.518127406E+01 -0.285192489E+00 -0.327020709E+00
   H  0.530043367E+01  0.401332702E+00 -0.263141576E+00
     4
 # iter = 25500  time[fs]=25.50000
   C -0.101137534E+01 -0.495701764E-01  0.326213290E-01
   C  0.103334855E+01  0.108605292E-01 -0.500492576E-02
   H -0.552204819E+01 -0.311584133E+00 -0.354543977E+00
   H  0.560912787E+01  0.417924275E+00 -0.284362433E+00
     4
 # iter = 26000  time[fs]=26.00000
   C -0.106032566E+01 -0.532908249E-01  0.332274424E-01
   C  0.107616446E+01  0.789195209E-02 -0.516467888E-02
   H -0.587098066E+01 -0.343530269E+00 -0.387655136E+00
   H  0.591511309E+01  0.429328623E+00 -0.311125078E+00
     4
 # iter = 26500  time[fs]=26.50000
   C -0.110948394E+01 -0.549549013E-01  0.360120929E-01
   C  0.112304429E+01  0.671663447E-02 -0.362426697E-02
   H -0.621167107E+01 -0.364938118E+00 -0.410256593E+00
   H  0.623420657E+01  0.451618677E+00 -0.327319881E+00
     4
 # iter = 27000  time[fs]=27.00000
   C -0.115849885E+01 -0.543967637E-01  0.411277289E-01
   C  0.117392231E+01  0.745642074E-02 -0.251661917E-03
   H -0.654306049E+01 -0.374997792E+00 -0.421534812E+00
   H  0.656695847E+01  0.485570815E+00 -0.332137992E+00
     4
 # iter = 27500  time[fs]=27.50000
   C -0.120956962E+01 -0.539864002E-01  0.461928236E-01
   C  0.122668038E+01  0.816410206E-02  0.301482474E-02
   H -0.687689358E+01 -0.385657338E+00 -0.433435048E+00
   H  0.690117450E+01  0.519192028E+00 -0.337543516E+00
     4
 # iter = 28000  time[fs]=28.00000
   C -0.126421557E+01 -0.553995866E-01  0.495214798E-01
   C  0.127978306E+01  0.746087425E-02  0.480425177E-02
   H -0.722144726E+01 -0.405368629E+00 -0.454406847E+00
   H  0.722819347E+01  0.543994115E+00 -0.351999877E+00
     4
 # iter = 28500  time[fs]=28.50000
   C -0.132160922E+01 -0.579517489E-01  0.517893731E-01
   C  0.133363660E+01  0.589674978E-02  0.567362808E-02
   H -0.757313618E+01 -0.430702380E+00 -0.481018868E+00
   H  0.755128148E+01  0.563388762E+00 -0.372074623E+00
     4
 # iter = 29000  time[fs]=29.00000
   C -0.137994913E+01 -0.599714969E-01  0.546600761E-01
   C  0.138946687E+01  0.482876458E-02  0.698617785E-02
   H -0.792342457E+01 -0.453260889E+00 -0.504871613E+00
   H  0.787870299E+01  0.585765302E+00 -0.389360667E+00
     4
 # iter = 29500  time[fs]=29.50000
   C -0.143853785E+01 -0.608793198E-01  0.587062412E-01
   C  0.144762172E+01  0.472340467E-02  0.921380703E-02
   H -0.826928878E+01 -0.470139843E+00 -0.523059259E+00
   H  0.821323839E+01  0.614014960E+00 -0.400951030E+00
     4
 # iter = 30000  time[fs]=30.00000
   C -0.149807249E+01 -0.614791137E-01  0.631179496E-01
   C  0.150733185E+01  0.491840499E-02  0.116989858E-01
   H -0.861468258E+01 -0.485395748E+00 -0.539637057E+00
   H  0.855071140E+01  0.644061180E+00 -0.410908073E+00
     4
 # iter = 30500  time[fs]=30.50000
   C -0.155935386E+01 -0.626683896E-01  0.669923848E-01
   C  0.156776247E+01  0.467579192E-02  0.137079018E-01
   H -0.896404194E+01 -0.503554814E+00 -0.559130137E+00
   H  0.888648791E+01  0.671358784E+00 -0.423764323E+00
     4
 # iter = 31000  time[fs]=31.00000
   C -0.162230429E+01 -0.644571217E-01  0.703148828E-01
   C  0.162881309E+01  0.398292469E-02  0.152315947E-01
   H -0.931734410E+01 -0.524675149E+00 -0.581595645E+00
   H  0.922041963E+01  0.695837889E+00 -0.439578518E+00
     4
 # iter = 31500  time[fs]=31.50000
   C -0.168625471E+01 -0.662556921E-01  0.736709071E-01
   C  0.169088148E+01  0.331730343E-02  0.167508261E-01
   H -0.967155563E+01 -0.545796136E+00 -0.604072099E+00
   H  0.955539106E+01  0.720452458E+00 -0.455386836E+00
     4
 # iter = 32000  time[fs]=32.00000
   C -0.175076693E+01 -0.676979755E-01  0.774228961E-01
   C  0.175419085E+01  0.297443780E-02  0.185639913E-01
   H -0.100247747E+02 -0.565081090E+00 -0.624722053E+00
   H  0.989316952E+01  0.747032152E+00 -0.469350769E+00
     4
 # iter = 32500  time[fs]=32.50000
   C -0.181592808E+01 -0.689364969E-01  0.814150461E-01
   C  0.181854814E+01  0.282677763E-02  0.205460936E-01
   H -0.103777162E+02 -0.583302891E+00 -0.644317714E+00
   H  0.102329161E+02  0.774794647E+00 -0.482244608E+00
     4
 # iter = 33000  time[fs]=33.00000
   C -0.188199536E+01 -0.702878651E-01  0.853278247E-01
   C  0.188363268E+01  0.261315188E-02  0.224382286E-01
   H -0.107319258E+02 -0.602059558E+00 -0.664456504E+00
   H  0.105729719E+02  0.802132235E+00 -0.495668775E+00
     4
 # iter = 33500  time[fs]=33.50000
   C -0.194900642E+01 -0.718438241E-01  0.890668728E-01
   C  0.194931304E+01  0.225629147E-02  0.241651477E-01
   H -0.110878220E+02 -0.621816788E+00 -0.685603583E+00
   H  0.109128171E+02  0.828571694E+00 -0.510089893E+00
     4
 # iter = 34000  time[fs]=34.00000
   C -0.201677497E+01 -0.734673563E-01  0.927668628E-01
   C  0.201564966E+01  0.186597381E-02  0.258384343E-01
   H -0.114446757E+02 -0.641888431E+00 -0.707072313E+00
   H  0.112530905E+02  0.854793757E+00 -0.524821248E+00
     4
 # iter = 34500  time[fs]=34.50000
   C -0.208512216E+01 -0.750246024E-01  0.965595457E-01
   C  0.208270490E+01  0.154963266E-02  0.275671395E-01
   H -0.118017769E+02 -0.661603808E+00 -0.728191570E+00
   H  0.115944195E+02  0.881464221E+00 -0.539191595E+00
     4
 # iter = 35000  time[fs]=35.00000
   C -0.215400805E+01 -0.765167293E-01  0.100441855E+00
   C  0.215043500E+01  0.130466060E-02  0.293501061E-01
   H -0.121590986E+02 -0.680971454E+00 -0.748969492E+00
   H  0.119367551E+02  0.908569283E+00 -0.553209742E+00
     4
 # iter = 35500  time[fs]=35.50000
   C -0.222346999E+01 -0.780187274E-01  0.104337084E+00
   C  0.221873959E+01  0.106835178E-02  0.311259316E-01
   H -0.125169878E+02 -0.700371134E+00 -0.769785476E+00
   H  0.122796801E+02  0.935723877E+00 -0.567256173E+00
     4
 # iter = 36000  time[fs]=36.00000
   C -0.229351397E+01 -0.795710861E-01  0.108203190E+00
   C  0.228754974E+01  0.806322032E-03  0.328614068E-01
   H -0.128756205E+02 -0.720008691E+00 -0.790845032E+00
   H  0.126229543E+02  0.962717468E+00 -0.581537206E+00
     4
 # iter = 36500  time[fs]=36.50000
   C -0.236408950E+01 -0.811550176E-01  0.112057550E+00
   C  0.235684790E+01  0.532719585E-03  0.345717414E-01
   H -0.132348764E+02 -0.739791379E+00 -0.812055107E+00
   H  0.129666392E+02  0.989638845E+00 -0.595960174E+00
     4
 # iter = 37000  time[fs]=37.00000
   C -0.243513506E+01 -0.827381507E-01  0.115931253E+00
   C  0.242663024E+01  0.272902050E-03  0.362832543E-01
   H -0.135945689E+02 -0.759557877E+00 -0.833254099E+00
   H  0.133108675E+02  0.101664577E+01 -0.610363734E+00
     4
 # iter = 37500  time[fs]=37.50000
   C -0.250661538E+01 -0.843120725E-01  0.119831541E+00
   C  0.249687581E+01  0.327712657E-04  0.380027191E-01
   H -0.139546335E+02 -0.779267265E+00 -0.854400827E+00
   H  0.136556535E+02  0.104377574E+01 -0.624707080E+00
     4
 # iter = 38000  time[fs]=38.00000
   C -0.257851710E+01 -0.858881851E-01  0.123745943E+00
   C  0.256754963E+01 -0.197856305E-03  0.397207452E-01
   H -0.143151073E+02 -0.798978187E+00 -0.875553696E+00
   H  0.140009135E+02  0.107096679E+01 -0.639049089E+00
     4
 # iter = 38500  time[fs]=38.50000
   C -0.265082709E+01 -0.874762713E-01  0.127663699E+00
   C  0.263862003E+01 -0.427760536E-03  0.414292747E-01
   H -0.146760206E+02 -0.818741000E+00 -0.896762841E+00
   H  0.143465743E+02  0.109816553E+01 -0.653440323E+00
     4
 # iter = 39000  time[fs]=39.00000
   C -0.272352334E+01 -0.890754949E-01  0.131584747E+00
   C  0.271006577E+01 -0.656978623E-03  0.431289298E-01
   H -0.150373516E+02 -0.838552488E+00 -0.918024840E+00
   H  0.146926176E+02  0.112537237E+01 -0.667877696E+00
     4
 # iter = 39500  time[fs]=39.50000
   C -0.279658071E+01 -0.906803565E-01  0.135513762E+00
   C  0.278187106E+01 -0.881676167E-03  0.448241476E-01
   H -0.153990560E+02 -0.858385860E+00 -0.939312710E+00
   H  0.150390504E+02  0.115261154E+01 -0.682334507E+00
     4
 # iter = 40000  time[fs]=40.00000
   C -0.286997818E+01 -0.922880596E-01  0.139452780E+00
   C  0.285401935E+01 -0.110016738E-02  0.465171665E-01
   H -0.157611044E+02 -0.878227829E+00 -0.960612985E+00
   H  0.153858673E+02  0.117989394E+01 -0.696797566E+00
     4
 # iter = 40500  time[fs]=40.50000
   C -0.294369958E+01 -0.938993815E-01  0.143400322E+00
   C  0.292649253E+01 -0.131363317E-02  0.482073125E-01
   H -0.161234865E+02 -0.898083014E+00 -0.981930119E+00
   H  0.157330465E+02  0.120721265E+01 -0.711271606E+00
     4
 # iter = 41000  time[fs]=41.00000
   C -0.301773052E+01 -0.955156844E-01  0.147354381E+00
   C  0.299927322E+01 -0.152368557E-02  0.498934400E-01
   H -0.164861956E+02 -0.917958901E+00 -0.100327144E+01
   H  0.160805641E+02  0.123455808E+01 -0.725764222E+00
     4
 # iter = 41500  time[fs]=41.50000
   C -0.309205639E+01 -0.971370432E-01  0.151314280E+00
   C  0.307234622E+01 -0.173084432E-02  0.515754586E-01
   H -0.168492194E+02 -0.937856433E+00 -0.102463775E+01
   H  0.164284040E+02  0.126192729E+01 -0.740276452E+00
     4
 # iter = 42000  time[fs]=42.00000
   C -0.316666268E+01 -0.987626645E-01  0.155280258E+00
   C  0.314569806E+01 -0.193488299E-02  0.532539910E-01
   H -0.172125421E+02 -0.957772120E+00 -0.104602541E+01
   H  0.167765554E+02  0.128932190E+01 -0.754804891E+00
     4
 # iter = 42500  time[fs]=42.50000
   C -0.324153594E+01 -0.100391905E+00  0.159252441E+00
   C  0.321931606E+01 -0.213566429E-02  0.549295406E-01
   H -0.175761493E+02 -0.977703182E+00 -0.106743153E+01
   H  0.171250077E+02  0.131674295E+01 -0.769346835E+00
     4
 # iter = 43000  time[fs]=43.00000
   C -0.331666402E+01 -0.102024578E+00  0.163230538E+00
   C  0.329318807E+01 -0.233339294E-02  0.566022416E-01
   H -0.179400297E+02 -0.997649083E+00 -0.108885544E+01
   H  0.174737488E+02  0.134418933E+01 -0.783901826E+00
     4
 # iter = 43500  time[fs]=43.50000
   C -0.339203567E+01 -0.103660667E+00  0.167214116E+00
   C  0.336730254E+01 -0.252838602E-02  0.582720908E-01
   H -0.183041731E+02 -0.101761011E+01 -0.111029732E+01
   H  0.178227666E+02  0.137165918E+01 -0.798470223E+00
     4
 # iter = 44000  time[fs]=44.00000
   C -0.346764027E+01 -0.105300067E+00  0.171202864E+00
   C  0.344164874E+01 -0.272086247E-02  0.599391610E-01
   H -0.186685698E+02 -0.103758606E+01 -0.113175685E+01
   H  0.181720499E+02  0.139915125E+01 -0.813051893E+00
     4
 # iter = 44500  time[fs]=44.50000
   C -0.354346775E+01 -0.106942574E+00  0.175196597E+00
   C  0.351621670E+01 -0.291093923E-02  0.616036061E-01
   H -0.190332100E+02 -0.105757621E+01 -0.115323322E+01
   H  0.185215891E+02  0.142666488E+01 -0.827646172E+00
     4
 # iter = 45000  time[fs]=45.00000
   C -0.361950863E+01 -0.108587987E+00  0.179195151E+00
   C  0.359099704E+01 -0.309871381E-02  0.632655807E-01
   H -0.193980842E+02 -0.107757980E+01 -0.117472557E+01
   H  0.188713748E+02  0.145419951E+01 -0.842252372E+00
     4
 # iter = 45500  time[fs]=45.50000
   C -0.369575403E+01 -0.110236152E+00  0.183198340E+00
   C  0.366598093E+01 -0.328430433E-02  0.649252018E-01
   H -0.197631837E+02 -0.109759632E+01 -0.119623329E+01
   H  0.192213980E+02  0.148175443E+01 -0.856870018E+00
     4
 # iter = 46000  time[fs]=46.00000
   C -0.377219560E+01 -0.111886947E+00  0.187205966E+00
   C  0.374116003E+01 -0.346783709E-02  0.665825624E-01
   H -0.201285007E+02 -0.111762534E+01 -0.121775589E+01
   H  0.195716504E+02  0.150932888E+01 -0.871498761E+00
     4
 # iter = 46500  time[fs]=46.50000
   C -0.384882549E+01 -0.113540252E+00  0.191217848E+00
   C  0.381652649E+01 -0.364942678E-02  0.682377527E-01
   H -0.204940272E+02 -0.113766649E+01 -0.123929288E+01
   H  0.199221237E+02  0.153692213E+01 -0.886138256E+00
     4
 # iter = 47000  time[fs]=47.00000
   C -0.392563627E+01 -0.115195951E+00  0.195233822E+00
   C  0.389207291E+01 -0.382917302E-02  0.698908646E-01
   H -0.208597560E+02 -0.115771933E+01 -0.126084378E+01
   H  0.202728104E+02  0.156453356E+01 -0.900788128E+00
     4
 # iter = 47500  time[fs]=47.50000
   C -0.400262092E+01 -0.116853928E+00  0.199253737E+00
   C  0.396779230E+01 -0.400716643E-02  0.715419872E-01
   H -0.212256802E+02 -0.117778346E+01 -0.128240809E+01
   H  0.206237032E+02  0.159216257E+01 -0.915448009E+00
     4
 # iter = 48000  time[fs]=48.00000
   C -0.407977281E+01 -0.118514079E+00  0.203277447E+00
   C  0.404367805E+01 -0.418349312E-02  0.731912024E-01
   H -0.215917931E+02 -0.119785848E+01 -0.130398536E+01
   H  0.209747953E+02  0.161980860E+01 -0.930117559E+00
     4
 # iter = 48500  time[fs]=48.50000
   C -0.415708567E+01 -0.120176307E+00  0.207304814E+00
   C  0.411972392E+01 -0.435823492E-02  0.748385865E-01
   H -0.219580885E+02 -0.121794404E+01 -0.132557516E+01
   H  0.213260801E+02  0.164747110E+01 -0.944796461E+00
     4
 # iter = 49000  time[fs]=49.00000
   C -0.423455357E+01 -0.121840522E+00  0.211335707E+00
   C  0.419592400E+01 -0.453146846E-02  0.764842112E-01
   H -0.223245604E+02 -0.123803981E+01 -0.134717711E+01
   H  0.216775514E+02  0.167514954E+01 -0.959484417E+00
     4
 # iter = 49500  time[fs]=49.50000
   C -0.431217088E+01 -0.123506638E+00  0.215369999E+00
   C  0.427227268E+01 -0.470326509E-02  0.781281446E-01
   H -0.226912031E+02 -0.125814546E+01 -0.136879080E+01
   H  0.220292032E+02  0.170284342E+01 -0.974181140E+00
     4
 # iter = 50000  time[fs]=50.00000
   C -0.438993226E+01 -0.125174575E+00  0.219407575E+00
   C  0.434876465E+01 -0.487369148E-02  0.797704515E-01
   H -0.230580112E+02 -0.127826067E+01 -0.139041588E+01
   H  0.223810298E+02  0.173055228E+01 -0.988886353E+00
     4
 # iter = 50500  time[fs]=50.50000
   C -0.446783266E+01 -0.126844256E+00  0.223448321E+00
   C  0.442539486E+01 -0.504281021E-02  0.814111931E-01
   H -0.234249796E+02 -0.129838515E+01 -0.141205199E+01
   H  0.227330260E+02  0.175827565E+01 -0.100359980E+01
     4
 # iter = 51000  time[fs]=51.00000
   C -0.454586725E+01 -0.128515611E+00  0.227492131E+00
   C  0.450215851E+01 -0.521068016E-02  0.830504273E-01
   H -0.237921032E+02 -0.131851863E+01 -0.143369880E+01
   H  0.230851865E+02  0.178601311E+01 -0.101832122E+01
     4
 # iter = 51500  time[fs]=51.50000
   C -0.462403148E+01 -0.130188572E+00  0.231538903E+00
   C  0.457905106E+01 -0.537735669E-02  0.846882089E-01
   H -0.241593775E+02 -0.133866082E+01 -0.145535600E+01
   H  0.234375064E+02  0.181376424E+01 -0.103305038E+01
     4
 # iter = 52000  time[fs]=52.00000
   C -0.470232097E+01 -0.131863076E+00  0.235588542E+00
   C  0.465606817E+01 -0.554289190E-02  0.863245901E-01
   H -0.245267979E+02 -0.135881148E+01 -0.147702326E+01
   H  0.237899811E+02  0.184152865E+01 -0.104778705E+01
     4
 # iter = 52500  time[fs]=52.50000
   C -0.478073161E+01 -0.133539062E+00  0.239640954E+00
   C  0.473320572E+01 -0.570733482E-02  0.879596203E-01
   H -0.248943602E+02 -0.137897035E+01 -0.149870031E+01
   H  0.241426059E+02  0.186930595E+01 -0.106253101E+01
     4
 # iter = 53000  time[fs]=53.00000
   C -0.485925942E+01 -0.135216473E+00  0.243696053E+00
   C  0.481045977E+01 -0.587073169E-02  0.895933464E-01
   H -0.252620602E+02 -0.139913721E+01 -0.152038686E+01
   H  0.244953766E+02  0.189709579E+01 -0.107728206E+01
     4
 # iter = 53500  time[fs]=53.50000
   C -0.493790067E+01 -0.136895257E+00  0.247753754E+00
   C  0.488782658E+01 -0.603312614E-02  0.912258133E-01
   H -0.256298940E+02 -0.141931181E+01 -0.154208264E+01
   H  0.248482891E+02  0.192489781E+01 -0.109203999E+01
     4
 # iter = 54000  time[fs]=54.00000
   C -0.501665174E+01 -0.138575361E+00  0.251813977E+00
   C  0.496530258E+01 -0.619455937E-02  0.928570635E-01
   H -0.259978578E+02 -0.143949396E+01 -0.156378741E+01
   H  0.252013394E+02  0.195271169E+01 -0.110680462E+01
     4
 # iter = 54500  time[fs]=54.50000
   C -0.509550923E+01 -0.140256737E+00  0.255876647E+00
   C  0.504288435E+01 -0.635507030E-02  0.944871374E-01
   H -0.263659480E+02 -0.145968343E+01 -0.158550090E+01
   H  0.255545238E+02  0.198053710E+01 -0.112157575E+01
     4
 # iter = 55000  time[fs]=55.00000
   C -0.517446984E+01 -0.141939340E+00  0.259941691E+00
   C  0.512056863E+01 -0.651469578E-02  0.961160737E-01
   H -0.267341611E+02 -0.147988004E+01 -0.160722290E+01
   H  0.259078385E+02  0.200837373E+01 -0.113635322E+01
     4
 # iter = 55500  time[fs]=55.50000
   C -0.525353047E+01 -0.143623127E+00  0.264009037E+00
   C  0.519835231E+01 -0.667347066E-02  0.977439092E-01
   H -0.271024939E+02 -0.150008358E+01 -0.162895316E+01
   H  0.262612801E+02  0.203622130E+01 -0.115113684E+01
     4
 # iter = 56000  time[fs]=56.00000
   C -0.533268810E+01 -0.145308055E+00  0.268078621E+00
   C  0.527623241E+01 -0.683142796E-02  0.993706790E-01
   H -0.274709430E+02 -0.152029388E+01 -0.165069147E+01
   H  0.266148452E+02  0.206407951E+01 -0.116592647E+01
     4
 # iter = 56500  time[fs]=56.50000
   C -0.541193988E+01 -0.146994085E+00  0.272150377E+00
   C  0.535420609E+01 -0.698859900E-02  0.100996417E+00
   H -0.278395056E+02 -0.154051077E+01 -0.167243763E+01
   H  0.269685306E+02  0.209194809E+01 -0.118072194E+01
     4
 # iter = 57000  time[fs]=57.00000
   C -0.549128307E+01 -0.148681180E+00  0.276224244E+00
   C  0.543227060E+01 -0.714501346E-02  0.102621154E+00
   H -0.282081785E+02 -0.156073406E+01 -0.169419143E+01
   H  0.273223333E+02  0.211982678E+01 -0.119552310E+01
     4
 # iter = 57500  time[fs]=57.50000
   C -0.557071504E+01 -0.150369304E+00  0.280300164E+00
   C  0.551042333E+01 -0.730069956E-02  0.104244923E+00
   H -0.285769591E+02 -0.158096360E+01 -0.171595268E+01
   H  0.276762501E+02  0.214771533E+01 -0.121032981E+01
     4
 # iter = 58000  time[fs]=58.00000
   C -0.565023327E+01 -0.152058424E+00  0.284378079E+00
   C  0.558866179E+01 -0.745568407E-02  0.105867751E+00
   H -0.289458444E+02 -0.160119923E+01 -0.173772119E+01
   H  0.280302783E+02  0.217561349E+01 -0.122514193E+01
     4
 # iter = 58500  time[fs]=58.50000
   C -0.572983534E+01 -0.153748506E+00  0.288457937E+00
   C  0.566698356E+01 -0.760999245E-02  0.107489667E+00
   H -0.293148320E+02 -0.162144080E+01 -0.175949678E+01
   H  0.283844151E+02  0.220352104E+01 -0.123995932E+01
     4
 # iter = 59000  time[fs]=59.00000
   C -0.580951893E+01 -0.155439520E+00  0.292539684E+00
   C  0.574538633E+01 -0.776364894E-02  0.109110697E+00
   H -0.296839193E+02 -0.164168816E+01 -0.178127928E+01
   H  0.287386577E+02  0.223143773E+01 -0.125478186E+01
     4
 # iter = 59500  time[fs]=59.50000
   C -0.588928183E+01 -0.157131437E+00  0.296623271E+00
   C  0.582386790E+01 -0.791667658E-02  0.110730869E+00
   H -0.300531038E+02 -0.166194118E+01 -0.180306853E+01
   H  0.290930038E+02  0.225936336E+01 -0.126960942E+01
     4
 # iter = 60000  time[fs]=60.00000
   C -0.596912189E+01 -0.158824227E+00  0.300708650E+00
   C  0.590242613E+01 -0.806909733E-02  0.112350205E+00
   H -0.304223833E+02 -0.168219971E+01 -0.182486435E+01
   H  0.294474507E+02  0.228729772E+01 -0.128444188E+01
     4
 # iter = 60500  time[fs]=60.50000
   C -0.604903705E+01 -0.160517865E+00  0.304795775E+00
   C  0.598105898E+01 -0.822093213E-02  0.113968730E+00
   H -0.307917554E+02 -0.170246363E+01 -0.184666661E+01
   H  0.298019961E+02  0.231524059E+01 -0.129927913E+01
     4
 # iter = 61000  time[fs]=61.00000
   C -0.612902535E+01 -0.162212324E+00  0.308884600E+00
   C  0.605976449E+01 -0.837220093E-02  0.115586467E+00
   H -0.311612179E+02 -0.172273281E+01 -0.186847514E+01
   H  0.301566376E+02  0.234319180E+01 -0.131412105E+01
     4
 # iter = 61500  time[fs]=61.50000
   C -0.620908487E+01 -0.163907580E+00  0.312975084E+00
   C  0.613854076E+01 -0.852292277E-02  0.117203437E+00
   H -0.315307688E+02 -0.174300714E+01 -0.189028980E+01
   H  0.305113731E+02  0.237115114E+01 -0.132896753E+01
     4
 # iter = 62000  time[fs]=62.00000
   C -0.628921380E+01 -0.165603609E+00  0.317067185E+00
   C  0.621738598E+01 -0.867311584E-02  0.118819662E+00
   H -0.319004060E+02 -0.176328648E+01 -0.191211046E+01
   H  0.308662005E+02  0.239911843E+01 -0.134381848E+01
     4
 # iter = 62500  time[fs]=62.50000
   C -0.636941037E+01 -0.167300388E+00  0.321160863E+00
   C  0.629629838E+01 -0.882279748E-02  0.120435161E+00
   H -0.322701275E+02 -0.178357073E+01 -0.193393698E+01
   H  0.312211175E+02  0.242709350E+01 -0.135867378E+01
     4
 # iter = 63000  time[fs]=63.00000
   C -0.644967289E+01 -0.168997896E+00  0.325256080E+00
   C  0.637527629E+01 -0.897198431E-02  0.122049954E+00
   H -0.326399315E+02 -0.180385979E+01 -0.195576923E+01
   H  0.315761223E+02  0.245507617E+01 -0.137353336E+01
     4
 # iter = 63500  time[fs]=63.50000
   C -0.652999971E+01 -0.170696112E+00  0.329352799E+00
   C  0.645431808E+01 -0.912069218E-02  0.123664059E+00
   H -0.330098161E+02 -0.182415353E+01 -0.197760708E+01
   H  0.319312128E+02  0.248306628E+01 -0.138839710E+01
     4
 # iter = 64000  time[fs]=64.00000
   C -0.661038926E+01 -0.172395015E+00  0.333450984E+00
   C  0.653342218E+01 -0.926893629E-02  0.125277494E+00
   H -0.333797795E+02 -0.184445187E+01 -0.199945041E+01
   H  0.322863872E+02  0.251106368E+01 -0.140326491E+01
     4
 # iter = 64500  time[fs]=64.50000
   C -0.669084003E+01 -0.174094587E+00  0.337550601E+00
   C  0.661258708E+01 -0.941673115E-02  0.126890277E+00
   H -0.337498200E+02 -0.186475470E+01 -0.202129911E+01
   H  0.326416438E+02  0.253906820E+01 -0.141813672E+01
     4
 # iter = 65000  time[fs]=65.00000
   C -0.677135054E+01 -0.175794810E+00  0.341651617E+00
   C  0.669181131E+01 -0.956409070E-02  0.128502424E+00
   H -0.341199360E+02 -0.188506192E+01 -0.204315305E+01
   H  0.329969806E+02  0.256707969E+01 -0.143301244E+01
     4
 # iter = 65500  time[fs]=65.50000
   C -0.685191939E+01 -0.177495665E+00  0.345753999E+00
   C  0.677109348E+01 -0.971102826E-02  0.130113952E+00
   H -0.344901258E+02 -0.190537345E+01 -0.206501214E+01
   H  0.333523961E+02  0.259509801E+01 -0.144789197E+01
     4
 # iter = 66000  time[fs]=66.00000
   C -0.693254519E+01 -0.179197135E+00  0.349857717E+00
   C  0.685043222E+01 -0.985755661E-02  0.131724875E+00
   H -0.348603878E+02 -0.192568919E+01 -0.208687625E+01
   H  0.337078885E+02  0.262312302E+01 -0.146277525E+01
     4
 # iter = 66500  time[fs]=66.50000
   C -0.701322664E+01 -0.180899205E+00  0.353962741E+00
   C  0.692982621E+01 -0.100036880E-01  0.133335208E+00
   H -0.352307207E+02 -0.194600905E+01 -0.210874529E+01
   H  0.340634563E+02  0.265115458E+01 -0.147766219E+01
     4
 # iter = 67000  time[fs]=67.00000
   C -0.709396246E+01 -0.182601857E+00  0.358069041E+00
   C  0.700927420E+01 -0.101494342E-01  0.134944966E+00
   H -0.356011228E+02 -0.196633295E+01 -0.213061916E+01
   H  0.344190979E+02  0.267919255E+01 -0.149255273E+01
     4
 # iter = 67500  time[fs]=67.50000
   C -0.717475140E+01 -0.184305079E+00  0.362176589E+00
   C  0.708877495E+01 -0.102948066E-01  0.136554163E+00
   H -0.359715928E+02 -0.198666081E+01 -0.215249775E+01
   H  0.347748119E+02  0.270723682E+01 -0.150744678E+01
     4
 # iter = 68000  time[fs]=68.00000
   C -0.725559229E+01 -0.186008853E+00  0.366285359E+00
   C  0.716832727E+01 -0.104398158E-01  0.138162812E+00
   H -0.363421293E+02 -0.200699255E+01 -0.217438098E+01
   H  0.351305967E+02  0.273528725E+01 -0.152234427E+01
     4
 # iter = 68500  time[fs]=68.50000
   C -0.733648397E+01 -0.187713168E+00  0.370395324E+00
   C  0.724793003E+01 -0.105844725E-01  0.139770926E+00
   H -0.367127310E+02 -0.202732810E+01 -0.219626876E+01
   H  0.354864509E+02  0.276334373E+01 -0.153724515E+01
     4
 # iter = 69000  time[fs]=69.00000
   C -0.741742531E+01 -0.189418008E+00  0.374506458E+00
   C  0.732758210E+01 -0.107287865E-01  0.141378517E+00
   H -0.370833965E+02 -0.204766736E+01 -0.221816098E+01
   H  0.358423733E+02  0.279140614E+01 -0.155214933E+01
     4
 # iter = 69500  time[fs]=69.50000
   C -0.749841524E+01 -0.191123361E+00  0.378618738E+00
   C  0.740728242E+01 -0.108727675E-01  0.142985598E+00
   H -0.374541247E+02 -0.206801028E+01 -0.224005758E+01
   H  0.361983623E+02  0.281947435E+01 -0.156705676E+01
     4
 # iter = 70000  time[fs]=70.00000
   C -0.757945272E+01 -0.192829214E+00  0.382732138E+00
   C  0.748702994E+01 -0.110164247E-01  0.144592180E+00
   H -0.378249142E+02 -0.208835679E+01 -0.226195845E+01
   H  0.365544169E+02  0.284754827E+01 -0.158196738E+01
     4
 # iter = 70500  time[fs]=70.50000
   C -0.766053672E+01 -0.194535556E+00  0.386846636E+00
   C  0.756682366E+01 -0.111597672E-01  0.146198274E+00
   H -0.381957639E+02 -0.210870681E+01 -0.228386353E+01
   H  0.369105356E+02  0.287562778E+01 -0.159688112E+01
     4
 # iter = 71000  time[fs]=71.00000
   C -0.774166627E+01 -0.196242374E+00  0.390962210E+00
   C  0.764666260E+01 -0.113028033E-01  0.147803892E+00
   H -0.385666727E+02 -0.212906027E+01 -0.230577273E+01
   H  0.372667173E+02  0.290371278E+01 -0.161179792E+01
     4
 # iter = 71500  time[fs]=71.50000
   C -0.782284041E+01 -0.197949657E+00  0.395078838E+00
   C  0.772654580E+01 -0.114455415E-01  0.149409044E+00
   H -0.389376395E+02 -0.214941712E+01 -0.232768598E+01
   H  0.376229607E+02  0.293180317E+01 -0.162671773E+01
     4
 # iter = 72000  time[fs]=72.00000
   C -0.790405822E+01 -0.199657394E+00  0.399196498E+00
   C  0.780647237E+01 -0.115879896E-01  0.151013740E+00
   H -0.393086631E+02 -0.216977729E+01 -0.234960319E+01
   H  0.379792649E+02  0.295989884E+01 -0.164164049E+01
     4
 # iter = 72500  time[fs]=72.50000
   C -0.798531881E+01 -0.201365574E+00  0.403315170E+00
   C  0.788644140E+01 -0.117301554E-01  0.152617989E+00
   H -0.396797424E+02 -0.219014072E+01 -0.237152430E+01
   H  0.383356285E+02  0.298799971E+01 -0.165656614E+01
     4
 # iter = 73000  time[fs]=73.00000
   C -0.806662130E+01 -0.203074188E+00  0.407434834E+00
   C  0.796645203E+01 -0.118720461E-01  0.154221803E+00
   H -0.400508766E+02 -0.221050735E+01 -0.239344924E+01
   H  0.386920505E+02  0.301610567E+01 -0.167149464E+01
     4
 # iter = 73500  time[fs]=73.50000
   C -0.814796486E+01 -0.204783225E+00  0.411555471E+00
   C  0.804650342E+01 -0.120136690E-01  0.155825189E+00
   H -0.404220645E+02 -0.223087711E+01 -0.241537793E+01
   H  0.390485299E+02  0.304421664E+01 -0.168642593E+01
     4
 # iter = 74000  time[fs]=74.00000
   C -0.822934866E+01 -0.206492675E+00  0.415677062E+00
   C  0.812659477E+01 -0.121550310E-01  0.157428157E+00
   H -0.407933051E+02 -0.225124997E+01 -0.243731031E+01
   H  0.394050657E+02  0.307233253E+01 -0.170135996E+01
     4
 # iter = 74500  time[fs]=74.50000
   C -0.831077192E+01 -0.208202530E+00  0.419799589E+00
   C  0.820672528E+01 -0.122961386E-01  0.159030716E+00
   H -0.411645977E+02 -0.227162585E+01 -0.245924632E+01
   H  0.397616567E+02  0.310045325E+01 -0.171629668E+01
     4
 # iter = 75000  time[fs]=75.00000
   C -0.839223386E+01 -0.209912781E+00  0.423923033E+00
   C  0.828689418E+01 -0.124369983E-01  0.160632874E+00
   H -0.415359411E+02 -0.229200471E+01 -0.248118589E+01
   H  0.401183021E+02  0.312857872E+01 -0.173123605E+01
     4
 # iter = 75500  time[fs]=75.50000
   C -0.847373373E+01 -0.211623419E+00  0.428047379E+00
   C  0.836710073E+01 -0.125776162E-01  0.162234640E+00
   H -0.419073345E+02 -0.231238649E+01 -0.250312896E+01
   H  0.404750009E+02  0.315670885E+01 -0.174617801E+01
     4
 # iter = 76000  time[fs]=76.00000
   C -0.855527080E+01 -0.213334434E+00  0.432172608E+00
   C  0.844734421E+01 -0.127179984E-01  0.163836021E+00
   H -0.422787772E+02 -0.233277115E+01 -0.252507546E+01
   H  0.408317521E+02  0.318484357E+01 -0.176112253E+01
     4
 # iter = 76500  time[fs]=76.50000
   C -0.863684436E+01 -0.215045820E+00  0.436298706E+00
   C  0.852762392E+01 -0.128581506E-01  0.165437024E+00
   H -0.426502681E+02 -0.235315863E+01 -0.254702535E+01
   H  0.411885549E+02  0.321298279E+01 -0.177606956E+01
     4
 # iter = 77000  time[fs]=77.00000
   C -0.871845374E+01 -0.216757569E+00  0.440425655E+00
   C  0.860793916E+01 -0.129980784E-01  0.167037659E+00
   H -0.430218064E+02 -0.237354888E+01 -0.256897855E+01
   H  0.415454084E+02  0.324112645E+01 -0.179101906E+01
     4
 # iter = 77500  time[fs]=77.50000
   C -0.880009825E+01 -0.218469672E+00  0.444553440E+00
   C  0.868828928E+01 -0.131377872E-01  0.168637931E+00
   H -0.433933914E+02 -0.239394187E+01 -0.259093503E+01
   H  0.419023117E+02  0.326927446E+01 -0.180597099E+01
     4
 # iter = 78000  time[fs]=78.00000
   C -0.888177725E+01 -0.220182122E+00  0.448682048E+00
   C  0.876867362E+01 -0.132772822E-01  0.170237848E+00
   H -0.437650223E+02 -0.241433754E+01 -0.261289471E+01
   H  0.422592640E+02  0.329742676E+01 -0.182092529E+01
     4
 # iter = 78500  time[fs]=78.50000
   C -0.896349010E+01 -0.221894913E+00  0.452811461E+00
   C  0.884909156E+01 -0.134165685E-01  0.171837417E+00
   H -0.441366983E+02 -0.243473585E+01 -0.263485756E+01
   H  0.426162645E+02  0.332558327E+01 -0.183588195E+01
     4
 # iter = 79000  time[fs]=79.00000
   C -0.904523619E+01 -0.223608036E+00  0.456941668E+00
   C  0.892954250E+01 -0.135556509E-01  0.173436645E+00
   H -0.445084187E+02 -0.245513675E+01 -0.265682351E+01
   H  0.429733123E+02  0.335374393E+01 -0.185084091E+01
     4
 # iter = 79500  time[fs]=79.50000
   C -0.912701492E+01 -0.225321486E+00  0.461072653E+00
   C  0.901002582E+01 -0.136945342E-01  0.175035537E+00
   H -0.448801826E+02 -0.247554021E+01 -0.267879251E+01
   H  0.433304067E+02  0.338190867E+01 -0.186580214E+01
     4
 # iter = 80000  time[fs]=80.00000
   C -0.920882571E+01 -0.227035255E+00  0.465204403E+00
   C  0.909054095E+01 -0.138332230E-01  0.176634101E+00
   H -0.452519895E+02 -0.249594618E+01 -0.270076452E+01
   H  0.436875470E+02  0.341007742E+01 -0.188076560E+01
