     4
 # iter = 25000  time[fs]=25.00000
   C -0.980666649E+00  0.705528456E-01 -0.223632827E-01
   C  0.966414544E+00 -0.818474462E-02  0.218130363E-01
   H -0.524407949E+01  0.125742579E+00  0.425148562E+00
   H  0.527697437E+01 -0.321420374E+00  0.675848000E-01
     4
 # iter = 25500  time[fs]=25.50000
   C -0.102673472E+01  0.719837813E-01 -0.265931274E-01
   C  0.100561319E+01 -0.855106789E-02  0.208457029E-01
   H -0.558558848E+01  0.124504541E+00  0.441995519E+00
   H  0.558536426E+01 -0.349181525E+00  0.616616070E-01
     4
 # iter = 26000  time[fs]=26.00000
   C -0.107690146E+01  0.724864249E-01 -0.319945783E-01
   C  0.104700210E+01 -0.990418131E-02  0.190655602E-01
   H -0.593820251E+01  0.117952592E+00  0.453947992E+00
   H  0.589369012E+01 -0.382717722E+00  0.503759412E-01
     4
 # iter = 26500  time[fs]=26.50000
   C -0.112775900E+01  0.752089903E-01 -0.353971249E-01
   C  0.109293786E+01 -0.962050585E-02  0.190817707E-01
   H -0.628517332E+01  0.122152982E+00  0.477020935E+00
   H  0.621748773E+01 -0.405899209E+00  0.498142915E-01
     4
 # iter = 27000  time[fs]=27.00000
   C -0.117891882E+01  0.802960363E-01 -0.366361777E-01
   C  0.114331283E+01 -0.756109728E-02  0.210198969E-01
   H -0.662515523E+01  0.137892420E+00  0.511959660E+00
   H  0.655705944E+01 -0.417896087E+00  0.607681690E-01
     4
 # iter = 27500  time[fs]=27.50000
   C -0.123251716E+01  0.853850094E-01 -0.380563431E-01
   C  0.119596627E+01 -0.566112017E-02  0.229324846E-01
   H -0.696965614E+01  0.153201574E+00  0.546761120E+00
   H  0.689999228E+01 -0.430651266E+00  0.712604834E-01
     4
 # iter = 28000  time[fs]=28.00000
   C -0.129001975E+01  0.888023236E-01 -0.413150338E-01
   C  0.124932330E+01 -0.528817016E-02  0.234406147E-01
   H -0.732674805E+01  0.159610681E+00  0.572926744E+00
   H  0.723743600E+01 -0.452610063E+00  0.728165343E-01
     4
 # iter = 28500  time[fs]=28.50000
   C -0.135057293E+01  0.912119401E-01 -0.457336717E-01
   C  0.130375589E+01 -0.587967275E-02  0.230964275E-01
   H -0.769266184E+01  0.160535756E+00  0.593847097E+00
   H  0.757249511E+01 -0.480325976E+00  0.688580793E-01
     4
 # iter = 29000  time[fs]=29.00000
   C -0.141236227E+01  0.942559441E-01 -0.496570113E-01
   C  0.136045964E+01 -0.606619994E-02  0.232598208E-01
   H -0.805869873E+01  0.164364099E+00  0.617887127E+00
   H  0.791329434E+01 -0.505380476E+00  0.677824371E-01
     4
 # iter = 29500  time[fs]=29.50000
   C -0.147466863E+01  0.984973430E-01 -0.525102604E-01
   C  0.141975402E+01 -0.537138095E-02  0.243985515E-01
   H -0.842169509E+01  0.173989651E+00  0.647921520E+00
   H  0.826249059E+01 -0.524856133E+00  0.724882412E-01
     4
 # iter = 30000  time[fs]=30.00000
   C -0.153815554E+01  0.103131408E+00 -0.550876084E-01
   C  0.148084283E+01 -0.445030746E-02  0.258497736E-01
   H -0.878548548E+01  0.185344938E+00  0.679866260E+00
   H  0.861579741E+01 -0.542805453E+00  0.789061100E-01
     4
 # iter = 30500  time[fs]=30.50000
   C -0.160359179E+01  0.107261843E+00 -0.582758991E-01
   C  0.154286700E+01 -0.403485183E-02  0.268746193E-01
   H -0.915440144E+01  0.193893883E+00  0.709170787E+00
   H  0.896848295E+01 -0.563752056E+00  0.824974136E-01
     4
 # iter = 31000  time[fs]=31.00000
   C -0.167087939E+01  0.110871547E+00 -0.620837241E-01
   C  0.160570517E+01 -0.413136559E-02  0.274604080E-01
   H -0.952832582E+01  0.199570924E+00  0.735756614E+00
   H  0.932031270E+01 -0.587746961E+00  0.831979156E-01
     4
 # iter = 31500  time[fs]=31.50000
   C -0.173933742E+01  0.114537571E+00 -0.659263699E-01
   C  0.166973707E+01 -0.425609225E-02  0.280851705E-01
   H -0.990413982E+01  0.205330984E+00  0.762567080E+00
   H  0.967409479E+01 -0.611819648E+00  0.839664566E-01
     4
 # iter = 32000  time[fs]=32.00000
   C -0.180851543E+01  0.118616528E+00 -0.694403190E-01
   C  0.173516971E+01 -0.410814699E-02  0.290446210E-01
   H -0.102798659E+02  0.213005320E+00  0.791423107E+00
   H  0.100315282E+02 -0.634125625E+00  0.866370663E-01
     4
 # iter = 32500  time[fs]=32.50000
   C -0.187848458E+01  0.122952432E+00 -0.727753350E-01
   C  0.180179502E+01 -0.381084519E-02  0.302107770E-01
   H -0.106561521E+02  0.221815330E+00  0.821536889E+00
   H  0.103917124E+02 -0.655433732E+00  0.904314443E-01
     4
 # iter = 33000  time[fs]=33.00000
   C -0.194948591E+01  0.127227474E+00 -0.762436068E-01
   C  0.186927882E+01 -0.362179534E-02  0.313218100E-01
   H -0.110344850E+02  0.230157543E+00  0.851296706E+00
   H  0.107529330E+02 -0.677339425E+00  0.937455749E-01
     4
 # iter = 33500  time[fs]=33.50000
   C -0.202154467E+01  0.131346831E+00 -0.799348664E-01
   C  0.193747780E+01 -0.361487663E-02  0.323000166E-01
   H -0.114152292E+02  0.237561711E+00  0.880224854E+00
   H  0.111146203E+02 -0.700304837E+00  0.961095968E-01
     4
 # iter = 34000  time[fs]=34.00000
   C -0.209446579E+01  0.135442468E+00 -0.837125309E-01
   C  0.200644203E+01 -0.367703503E-02  0.332549788E-01
   H -0.117976061E+02  0.244710265E+00  0.908996993E+00
   H  0.114773675E+02 -0.723639201E+00  0.982072892E-01
     4
 # iter = 34500  time[fs]=34.50000
   C -0.216806268E+01  0.139643593E+00 -0.874431947E-01
   C  0.207622461E+01 -0.369788639E-02  0.342939254E-01
   H -0.121808615E+02  0.252270509E+00  0.938274269E+00
   H  0.118417614E+02 -0.746667594E+00  0.100707221E+00
     4
 # iter = 35000  time[fs]=35.00000
   C -0.224228719E+01  0.143946125E+00 -0.911271185E-01
   C  0.214677336E+01 -0.367752264E-02  0.354138938E-01
   H -0.125649278E+02  0.260230583E+00  0.968039223E+00
   H  0.122077154E+02 -0.769395479E+00  0.103598131E+00
     4
 # iter = 35500  time[fs]=35.50000
   C -0.231716856E+01  0.148273216E+00 -0.948376647E-01
   C  0.221798028E+01 -0.367646761E-02  0.365517441E-01
   H -0.129501157E+02  0.268207549E+00  0.997903806E+00
   H  0.125747784E+02 -0.792200275E+00  0.106497291E+00
     4
 # iter = 36000  time[fs]=36.00000
   C -0.239270575E+01  0.152582410E+00 -0.986141053E-01
   C  0.228976962E+01 -0.372710720E-02  0.376727016E-01
   H -0.133365679E+02  0.275992715E+00  0.102765465E+01
   H  0.129426789E+02 -0.815285487E+00  0.109196328E+00
     4
 # iter = 36500  time[fs]=36.50000
   C -0.246884253E+01  0.156890132E+00 -0.102437102E+00
   C  0.236211774E+01 -0.381342495E-02  0.387905980E-01
   H -0.137241332E+02  0.283676320E+00  0.105737768E+01
   H  0.133114499E+02 -0.838555864E+00  0.111786027E+00
     4
 # iter = 37000  time[fs]=37.00000
   C -0.254551239E+01  0.161226442E+00 -0.106273917E+00
   C  0.243501537E+01 -0.390835304E-02  0.399304992E-01
   H -0.141125970E+02  0.291417406E+00  0.108722800E+01
   H  0.136811980E+02 -0.861847685E+00  0.114425998E+00
     4
 # iter = 37500  time[fs]=37.50000
   C -0.262267532E+01  0.165597872E+00 -0.110115564E+00
   C  0.250843659E+01 -0.400445946E-02  0.410980003E-01
   H -0.145018691E+02  0.299254747E+00  0.111724072E+01
   H  0.140519132E+02 -0.885117956E+00  0.117155443E+00
     4
 # iter = 38000  time[fs]=38.00000
   C -0.270031347E+01  0.169991501E+00 -0.113972701E+00
   C  0.258234192E+01 -0.411055626E-02  0.422826011E-01
   H -0.148919626E+02  0.307127673E+00  0.114735180E+01
   H  0.144234898E+02 -0.908423532E+00  0.119914001E+00
     4
 # iter = 38500  time[fs]=38.50000
   C -0.277840966E+01  0.174396153E+00 -0.117854419E+00
   C  0.265669563E+01 -0.423417212E-02  0.434752186E-01
   H -0.152828859E+02  0.314983958E+00  0.117750590E+01
   H  0.147958339E+02 -0.931813104E+00  0.122649732E+00
     4
 # iter = 39000  time[fs]=39.00000
   C -0.285693830E+01  0.178811284E+00 -0.121759339E+00
   C  0.273147277E+01 -0.437419031E-02  0.446755363E-01
   H -0.156745970E+02  0.322825100E+00  0.120770162E+01
   H  0.151689082E+02 -0.955281849E+00  0.125364449E+00
     4
 # iter = 39500  time[fs]=39.50000
   C -0.293587104E+01  0.183241074E+00 -0.125681496E+00
   C  0.280665421E+01 -0.452571490E-02  0.458871264E-01
   H -0.160670328E+02  0.330676307E+00  0.123796146E+01
   H  0.155427021E+02 -0.978801452E+00  0.128083667E+00
     4
 # iter = 40000  time[fs]=40.00000
   C -0.301518393E+01  0.187687134E+00 -0.129617630E+00
   C  0.288222035E+01 -0.468608898E-02  0.471114214E-01
   H -0.164601465E+02  0.338549382E+00  0.126829473E+01
   H  0.159171940E+02 -0.100235722E+01  0.130819470E+00
     4
 # iter = 40500  time[fs]=40.50000
   C -0.309485810E+01  0.192147627E+00 -0.133568048E+00
   C  0.295815028E+01 -0.485560490E-02  0.483469947E-01
   H -0.168539113E+02  0.346438319E+00  0.129869309E+01
   H  0.162923467E+02 -0.102595250E+01  0.133566093E+00
     4
 # iter = 41000  time[fs]=41.00000
   C -0.317487665E+01  0.196620219E+00 -0.137533658E+00
   C  0.303442409E+01 -0.503505762E-02  0.495919992E-01
   H -0.172483057E+02  0.354334334E+00  0.132914556E+01
   H  0.166681222E+02 -0.104959357E+01  0.136314979E+00
     4
 # iter = 41500  time[fs]=41.50000
   C -0.325522270E+01  0.201103927E+00 -0.141514121E+00
   C  0.311102423E+01 -0.522421232E-02  0.508456922E-01
   H -0.176433032E+02  0.362235274E+00  0.135964796E+01
   H  0.170444913E+02 -0.107328026E+01  0.139064187E+00
     4
 # iter = 42000  time[fs]=42.00000
   C -0.333587969E+01  0.205598692E+00 -0.145508261E+00
   C  0.318793509E+01 -0.542214481E-02  0.521080885E-01
   H -0.180388750E+02  0.370143494E+00  0.139020071E+01
   H  0.174214307E+02 -0.109700801E+01  0.141816278E+00
     4
 # iter = 42500  time[fs]=42.50000
   C -0.341683227E+01  0.210104369E+00 -0.149515072E+00
   C  0.326514205E+01 -0.562807257E-02  0.533791234E-01
   H -0.184349943E+02  0.378060713E+00  0.142080376E+01
   H  0.177989183E+02 -0.112077306E+01  0.144573163E+00
     4
 # iter = 43000  time[fs]=43.00000
   C -0.349806653E+01  0.214620415E+00 -0.153534019E+00
   C  0.334263111E+01 -0.584160306E-02  0.546583993E-01
   H -0.188316382E+02  0.385986467E+00  0.145145494E+01
   H  0.181769313E+02 -0.114457395E+01  0.147334554E+00
     4
 # iter = 43500  time[fs]=43.50000
   C -0.357956962E+01  0.219146172E+00 -0.157564754E+00
   C  0.342038910E+01 -0.606249947E-02  0.559454148E-01
   H -0.192287860E+02  0.393919529E+00  0.148215146E+01
   H  0.185554472E+02 -0.116841009E+01  0.150099393E+00
     4
 # iter = 44000  time[fs]=44.00000
   C -0.366132943E+01  0.223681114E+00 -0.161606860E+00
   C  0.349840374E+01 -0.629046606E-02  0.572397756E-01
   H -0.196264176E+02  0.401859219E+00  0.151289112E+01
   H  0.189344456E+02 -0.119228046E+01  0.152867153E+00
     4
 # iter = 44500  time[fs]=44.50000
   C -0.374333452E+01  0.228224854E+00 -0.165659838E+00
   C  0.357666362E+01 -0.652514084E-02  0.585411975E-01
   H -0.200245137E+02  0.409805428E+00  0.154367243E+01
   H  0.193139077E+02 -0.121618357E+01  0.155637874E+00
     4
 # iter = 45000  time[fs]=45.00000
   C -0.382557414E+01  0.232777045E+00 -0.169723205E+00
   C  0.365515809E+01 -0.676617511E-02  0.598494235E-01
   H -0.204230560E+02  0.417758119E+00  0.157449401E+01
   H  0.196938158E+02 -0.124011794E+01  0.158411659E+00
     4
 # iter = 45500  time[fs]=45.50000
   C -0.390803824E+01  0.237337325E+00 -0.173796543E+00
   C  0.373387707E+01 -0.701327085E-02  0.611641831E-01
   H -0.208220275E+02  0.425717081E+00  0.160535441E+01
   H  0.200741530E+02 -0.126408235E+01  0.161188426E+00
     4
 # iter = 46000  time[fs]=46.00000
   C -0.399071738E+01  0.241905335E+00 -0.177879475E+00
   C  0.381281110E+01 -0.726616567E-02  0.624852048E-01
   H -0.212214120E+02  0.433682013E+00  0.163625212E+01
   H  0.204549034E+02 -0.128807576E+01  0.163968000E+00
     4
 # iter = 46500  time[fs]=46.50000
   C -0.407360269E+01  0.246480741E+00 -0.181971642E+00
   C  0.389195129E+01 -0.752461083E-02  0.638122351E-01
   H -0.216211945E+02  0.441652647E+00  0.166718577E+01
   H  0.208360518E+02 -0.131209716E+01  0.166750229E+00
     4
 # iter = 47000  time[fs]=47.00000
   C -0.415668581E+01  0.251063239E+00 -0.186072696E+00
   C  0.397128926E+01 -0.778836563E-02  0.651450419E-01
   H -0.220213604E+02  0.449628776E+00  0.169815408E+01
   H  0.212175838E+02 -0.133614554E+01  0.169535017E+00
     4
 # iter = 47500  time[fs]=47.50000
   C -0.423995885E+01  0.255652543E+00 -0.190182306E+00
   C  0.405081711E+01 -0.805720173E-02  0.664834081E-01
   H -0.224218961E+02  0.457610217E+00  0.172915586E+01
   H  0.215994860E+02 -0.136021994E+01  0.172322285E+00
     4
 # iter = 48000  time[fs]=48.00000
   C -0.432341435E+01  0.260248384E+00 -0.194300159E+00
   C  0.413052740E+01 -0.833090591E-02  0.678271265E-01
   H -0.228227887E+02  0.465596787E+00  0.176018998E+01
   H  0.219817455E+02 -0.138431946E+01  0.175111950E+00
     4
 # iter = 48500  time[fs]=48.50000
   C -0.440704530E+01  0.264850505E+00 -0.198425961E+00
   C  0.421041310E+01 -0.860927885E-02  0.691759996E-01
   H -0.232240258E+02  0.473588302E+00  0.179125532E+01
   H  0.223643500E+02 -0.140844324E+01  0.177903924E+00
     4
 # iter = 49000  time[fs]=49.00000
   C -0.449084505E+01  0.269458665E+00 -0.202559432E+00
   C  0.429046754E+01 -0.889213276E-02  0.705298402E-01
   H -0.236255959E+02  0.481584591E+00  0.182235087E+01
   H  0.227472881E+02 -0.143259049E+01  0.180698122E+00
     4
 # iter = 49500  time[fs]=49.50000
   C -0.457480730E+01  0.274072633E+00 -0.206700307E+00
   C  0.437068444E+01 -0.917929009E-02  0.718884709E-01
   H -0.240274877E+02  0.489585489E+00  0.185347562E+01
   H  0.231305485E+02 -0.145676043E+01  0.183494467E+00
     4
 # iter = 50000  time[fs]=50.00000
   C -0.465892610E+01  0.278692196E+00 -0.210848334E+00
   C  0.445105783E+01 -0.947058296E-02  0.732517237E-01
   H -0.244296908E+02  0.497590844E+00  0.188462866E+01
   H  0.235141209E+02 -0.148095232E+01  0.186292886E+00
     4
 # iter = 50500  time[fs]=50.50000
   C -0.474319581E+01  0.283317148E+00 -0.215003272E+00
   C  0.453158206E+01 -0.976585277E-02  0.746194390E-01
   H -0.248321951E+02  0.505600510E+00  0.191580907E+01
   H  0.238979953E+02 -0.150516547E+01  0.189093312E+00
     4
 # iter = 51000  time[fs]=51.00000
   C -0.482761107E+01  0.287947294E+00 -0.219164893E+00
   C  0.461225178E+01 -0.100649495E-01  0.759914647E-01
   H -0.252349910E+02  0.513614347E+00  0.194701600E+01
   H  0.242821620E+02 -0.152939921E+01  0.191895678E+00
     4
 # iter = 51500  time[fs]=51.50000
   C -0.491216678E+01  0.292582452E+00 -0.223332978E+00
   C  0.469306190E+01 -0.103677313E-01  0.773676565E-01
   H -0.256380694E+02  0.521632222E+00  0.197824866E+01
   H  0.246666119E+02 -0.155365290E+01  0.194699920E+00
     4
 # iter = 52000  time[fs]=52.00000
   C -0.499685813E+01  0.297222447E+00 -0.227507322E+00
   C  0.477400757E+01 -0.106740635E-01  0.787478765E-01
   H -0.260414216E+02  0.529654009E+00  0.200950624E+01
   H  0.250513365E+02 -0.157792593E+01  0.197505979E+00
     4
 # iter = 52500  time[fs]=52.50000
   C -0.508168052E+01  0.301867112E+00 -0.231687725E+00
   C  0.485508421E+01 -0.109838186E-01  0.801319938E-01
   H -0.264450392E+02  0.537679586E+00  0.204078803E+01
   H  0.254363274E+02 -0.160221773E+01  0.200313797E+00
     4
 # iter = 53000  time[fs]=53.00000
   C -0.516662956E+01  0.306516290E+00 -0.235874000E+00
   C  0.493628744E+01 -0.112968753E-01  0.815198833E-01
   H -0.268489143E+02  0.545708838E+00  0.207209329E+01
   H  0.258215767E+02 -0.162652774E+01  0.203123320E+00
     4
 # iter = 53500  time[fs]=53.50000
   C -0.525170110E+01  0.311169831E+00 -0.240065965E+00
   C  0.501761309E+01 -0.116131187E-01  0.829114257E-01
   H -0.272530393E+02  0.553741654E+00  0.210342136E+01
   H  0.262070768E+02 -0.165085543E+01  0.205934495E+00
     4
 # iter = 54000  time[fs]=54.00000
   C -0.533689118E+01  0.315827592E+00 -0.244263449E+00
   C  0.509905719E+01 -0.119324394E-01  0.843065071E-01
   H -0.276574068E+02  0.561777929E+00  0.213477158E+01
   H  0.265928204E+02 -0.167520029E+01  0.208747274E+00
     4
 # iter = 54500  time[fs]=54.50000
   C -0.542219600E+01  0.320489437E+00 -0.248466288E+00
   C  0.518061596E+01 -0.122547333E-01  0.857050189E-01
   H -0.280620101E+02  0.569817562E+00  0.216614333E+01
   H  0.269788005E+02 -0.169956184E+01  0.211561607E+00
     4
 # iter = 55000  time[fs]=55.00000
   C -0.550761195E+01  0.325155236E+00 -0.252674322E+00
   C  0.526228579E+01 -0.125799013E-01  0.871068570E-01
   H -0.284668423E+02  0.577860455E+00  0.219753601E+01
   H  0.273650106E+02 -0.172393960E+01  0.214377449E+00
     4
 # iter = 55500  time[fs]=55.50000
   C -0.559313559E+01  0.329824864E+00 -0.256887402E+00
   C  0.534406322E+01 -0.129078491E-01  0.885119219E-01
   H -0.288718971E+02  0.585906517E+00  0.222894905E+01
   H  0.277514442E+02 -0.174833313E+01  0.217194758E+00
     4
 # iter = 56000  time[fs]=56.00000
   C -0.567876362E+01  0.334498204E+00 -0.261105384E+00
   C  0.542594497E+01 -0.132384868E-01  0.899201185E-01
   H -0.292771683E+02  0.593955658E+00  0.226038190E+01
   H  0.281380952E+02 -0.177274199E+01  0.220013489E+00
     4
 # iter = 56500  time[fs]=56.50000
   C -0.576449289E+01  0.339175142E+00 -0.265328127E+00
   C  0.550792788E+01 -0.135717285E-01  0.913313557E-01
   H -0.296826500E+02  0.602007793E+00  0.229183403E+01
   H  0.285249576E+02 -0.179716579E+01  0.222833605E+00
     4
 # iter = 57000  time[fs]=57.00000
   C -0.585032039E+01  0.343855571E+00 -0.269555501E+00
   C  0.559000893E+01 -0.139074922E-01  0.927455461E-01
   H -0.300883367E+02  0.610062840E+00  0.232330493E+01
   H  0.289120260E+02 -0.182160412E+01  0.225655065E+00
     4
 # iter = 57500  time[fs]=57.50000
   C -0.593624324E+01  0.348539387E+00 -0.273787376E+00
   C  0.567218525E+01 -0.142456999E-01  0.941626060E-01
   H -0.304942228E+02  0.618120722E+00  0.235479412E+01
   H  0.292992948E+02 -0.184605660E+01  0.228477834E+00
     4
 # iter = 58000  time[fs]=58.00000
   C -0.602225866E+01  0.353226490E+00 -0.278023632E+00
   C  0.575445407E+01 -0.145862765E-01  0.955824552E-01
   H -0.309003031E+02  0.626181362E+00  0.238630112E+01
   H  0.296867588E+02 -0.187052286E+01  0.231301875E+00
     4
 # iter = 58500  time[fs]=58.50000
   C -0.610836402E+01  0.357916787E+00 -0.282264149E+00
   C  0.583681274E+01 -0.149291507E-01  0.970050166E-01
   H -0.313065727E+02  0.634244687E+00  0.241782548E+01
   H  0.300744129E+02 -0.189500256E+01  0.234127155E+00
     4
 # iter = 59000  time[fs]=59.00000
   C -0.619455678E+01  0.362610186E+00 -0.286508817E+00
   C  0.591925873E+01 -0.152742541E-01  0.984302163E-01
   H -0.317130267E+02  0.642310629E+00  0.244936677E+01
   H  0.304622525E+02 -0.191949535E+01  0.236953640E+00
     4
 # iter = 59500  time[fs]=59.50000
   C -0.628083449E+01  0.367306600E+00 -0.290757525E+00
   C  0.600178960E+01 -0.156215210E-01  0.998579831E-01
   H -0.321196604E+02  0.650379121E+00  0.248092458E+01
   H  0.308502727E+02 -0.194400091E+01  0.239781300E+00
     4
 # iter = 60000  time[fs]=60.00000
   C -0.636719483E+01  0.372005946E+00 -0.295010169E+00
   C  0.608440301E+01 -0.159708887E-01  0.101288249E+00
   H -0.325264694E+02  0.658450096E+00  0.251249848E+01
   H  0.312384692E+02 -0.196851892E+01  0.242610104E+00
     4
 # iter = 60500  time[fs]=60.50000
   C -0.645363555E+01  0.376708142E+00 -0.299266650E+00
   C  0.616709672E+01 -0.163222971E-01  0.102720948E+00
   H -0.329334494E+02  0.666523495E+00  0.254408811E+01
   H  0.316268376E+02 -0.199304908E+01  0.245440022E+00
     4
 # iter = 61000  time[fs]=61.00000
   C -0.654015449E+01  0.381413114E+00 -0.303526869E+00
   C  0.624986858E+01 -0.166756884E-01  0.104156017E+00
   H -0.333405961E+02  0.674599256E+00  0.257569308E+01
   H  0.320153737E+02 -0.201759109E+01  0.248271027E+00
     4
 # iter = 61500  time[fs]=61.50000
   C -0.662674959E+01  0.386120785E+00 -0.307790735E+00
   C  0.633271651E+01 -0.170310073E-01  0.105593395E+00
   H -0.337479057E+02  0.682677321E+00  0.260731303E+01
   H  0.324040736E+02 -0.204214469E+01  0.251103092E+00
     4
 # iter = 62000  time[fs]=62.00000
   C -0.671341884E+01  0.390831085E+00 -0.312058156E+00
   C  0.641563852E+01 -0.173882007E-01  0.107033024E+00
   H -0.341553741E+02  0.690757636E+00  0.263894761E+01
   H  0.327929334E+02 -0.206670959E+01  0.253936190E+00
     4
 # iter = 62500  time[fs]=62.50000
   C -0.680016033E+01  0.395543946E+00 -0.316329048E+00
   C  0.649863269E+01 -0.177472175E-01  0.108474847E+00
   H -0.345629978E+02  0.698840147E+00  0.267059648E+01
   H  0.331819492E+02 -0.209128553E+01  0.256770297E+00
     4
 # iter = 63000  time[fs]=63.00000
   C -0.688697221E+01  0.400259301E+00 -0.320603325E+00
   C  0.658169717E+01 -0.181080086E-01  0.109918811E+00
   H -0.349707731E+02  0.706924801E+00  0.270225933E+01
   H  0.335711176E+02 -0.211587225E+01  0.259605388E+00
     4
 # iter = 63500  time[fs]=63.50000
   C -0.697385271E+01  0.404977088E+00 -0.324880908E+00
   C  0.666483020E+01 -0.184705270E-01  0.111364862E+00
   H -0.353786964E+02  0.715011549E+00  0.273393582E+01
   H  0.339604350E+02 -0.214046952E+01  0.262441439E+00
     4
 # iter = 64000  time[fs]=64.00000
   C -0.706080012E+01  0.409697245E+00 -0.329161718E+00
   C  0.674803005E+01 -0.188347272E-01  0.112812950E+00
   H -0.357867645E+02  0.723100343E+00  0.276562567E+01
   H  0.343498981E+02 -0.216507710E+01  0.265278429E+00
     4
 # iter = 64500  time[fs]=64.50000
   C -0.714781277E+01  0.414419713E+00 -0.333445681E+00
   C  0.683129508E+01 -0.192005656E-01  0.114263026E+00
   H -0.361949741E+02  0.731191135E+00  0.279732857E+01
   H  0.347395036E+02 -0.218969475E+01  0.268116334E+00
     4
 # iter = 65000  time[fs]=65.00000
   C -0.723488909E+01  0.419144436E+00 -0.337732724E+00
   C  0.691462369E+01 -0.195680002E-01  0.115715044E+00
   H -0.366033221E+02  0.739283881E+00  0.282904424E+01
   H  0.351292483E+02 -0.221432226E+01  0.270955136E+00
     4
 # iter = 65500  time[fs]=65.50000
   C -0.732202753E+01  0.423871359E+00 -0.342022777E+00
   C  0.699801436E+01 -0.199369905E-01  0.117168957E+00
   H -0.370118054E+02  0.747378536E+00  0.286077240E+01
   H  0.355191292E+02 -0.223895941E+01  0.273794811E+00
     4
 # iter = 66000  time[fs]=66.00000
   C -0.740922661E+01  0.428600430E+00 -0.346315772E+00
   C  0.708146560E+01 -0.203074976E-01  0.118624723E+00
   H -0.374204210E+02  0.755475060E+00  0.289251279E+01
   H  0.359091434E+02 -0.226360599E+01  0.276635342E+00
     4
 # iter = 66500  time[fs]=66.50000
   C -0.749648491E+01  0.433331596E+00 -0.350611644E+00
   C  0.716497597E+01 -0.206794839E-01  0.120082298E+00
   H -0.378291662E+02  0.763573411E+00  0.292426515E+01
   H  0.362992879E+02 -0.228826180E+01  0.279476710E+00
     4
 # iter = 67000  time[fs]=67.00000
   C -0.758380103E+01  0.438064809E+00 -0.354910329E+00
   C  0.724854411E+01 -0.210529131E-01  0.121541642E+00
   H -0.382380381E+02  0.771673549E+00  0.295602923E+01
   H  0.366895601E+02 -0.231292665E+01  0.282318894E+00
     4
 # iter = 67500  time[fs]=67.50000
   C -0.767117366E+01  0.442800023E+00 -0.359211766E+00
   C  0.733216867E+01 -0.214277502E-01  0.123002714E+00
   H -0.386470342E+02  0.779775436E+00  0.298780478E+01
   H  0.370799572E+02 -0.233760035E+01  0.285161879E+00
     4
 # iter = 68000  time[fs]=68.00000
   C -0.775860149E+01  0.447537190E+00 -0.363515896E+00
   C  0.741584837E+01 -0.218039616E-01  0.124465478E+00
   H -0.390561517E+02  0.787879036E+00  0.301959157E+01
   H  0.374704767E+02 -0.236228272E+01  0.288005646E+00
     4
 # iter = 68500  time[fs]=68.50000
   C -0.784608328E+01  0.452276266E+00 -0.367822660E+00
   C  0.749958196E+01 -0.221815147E-01  0.125929894E+00
   H -0.394653882E+02  0.795984311E+00  0.305138938E+01
   H  0.378611160E+02 -0.238697357E+01  0.290850179E+00
     4
 # iter = 69000  time[fs]=69.00000
   C -0.793361782E+01  0.457017209E+00 -0.372132004E+00
   C  0.758336823E+01 -0.225603779E-01  0.127395929E+00
   H -0.398747413E+02  0.804091229E+00  0.308319798E+01
   H  0.382518728E+02 -0.241167275E+01  0.293695461E+00
     4
 # iter = 69500  time[fs]=69.50000
   C -0.802120395E+01  0.461759977E+00 -0.376443873E+00
   C  0.766720602E+01 -0.229405210E-01  0.128863546E+00
   H -0.402842087E+02  0.812199754E+00  0.311501715E+01
   H  0.386427445E+02 -0.243638007E+01  0.296541478E+00
     4
 # iter = 70000  time[fs]=70.00000
   C -0.810884054E+01  0.466504529E+00 -0.380758215E+00
   C  0.775109420E+01 -0.233219145E-01  0.130332712E+00
   H -0.406937879E+02  0.820309854E+00  0.314684670E+01
   H  0.390337290E+02 -0.246109538E+01  0.299388213E+00
     4
 # iter = 70500  time[fs]=70.50000
   C -0.819652649E+01  0.471250828E+00 -0.385074979E+00
   C  0.783503168E+01 -0.237045300E-01  0.131803394E+00
   H -0.411034768E+02  0.828421498E+00  0.317868641E+01
   H  0.394248239E+02 -0.248581853E+01  0.302235652E+00
     4
 # iter = 71000  time[fs]=71.00000
   C -0.828426075E+01  0.475998835E+00 -0.389394116E+00
   C  0.791901740E+01 -0.240883401E-01  0.133275561E+00
   H -0.415132733E+02  0.836534653E+00  0.321053608E+01
   H  0.398160272E+02 -0.251054935E+01  0.305083780E+00
     4
 # iter = 71500  time[fs]=71.50000
   C -0.837204229E+01  0.480748515E+00 -0.393715579E+00
   C  0.800305033E+01 -0.244733182E-01  0.134749182E+00
   H -0.419231752E+02  0.844649292E+00  0.324239554E+01
   H  0.402073368E+02 -0.253528770E+01  0.307932584E+00
     4
 # iter = 72000  time[fs]=72.00000
   C -0.845987011E+01  0.485499831E+00 -0.398039320E+00
   C  0.808712948E+01 -0.248594386E-01  0.136224228E+00
   H -0.423331805E+02  0.852765384E+00  0.327426459E+01
   H  0.405987505E+02 -0.256003344E+01  0.310782051E+00
     4
 # iter = 72500  time[fs]=72.50000
   C -0.854774326E+01  0.490252749E+00 -0.402365296E+00
   C  0.817125390E+01 -0.252466763E-01  0.137700669E+00
   H -0.427432873E+02  0.860882902E+00  0.330614305E+01
   H  0.409902664E+02 -0.258478643E+01  0.313632167E+00
     4
 # iter = 73000  time[fs]=73.00000
   C -0.863566079E+01  0.495007237E+00 -0.406693461E+00
   C  0.825542263E+01 -0.256350073E-01  0.139178478E+00
   H -0.431534936E+02  0.869001817E+00  0.333803075E+01
   H  0.413818826E+02 -0.260954653E+01  0.316482918E+00
     4
 # iter = 73500  time[fs]=73.50000
   C -0.872362180E+01  0.499763263E+00 -0.411023775E+00
   C  0.833963479E+01 -0.260244083E-01  0.140657626E+00
   H -0.435637975E+02  0.877122104E+00  0.336992752E+01
   H  0.417735972E+02 -0.263431361E+01  0.319334295E+00
     4
 # iter = 74000  time[fs]=74.00000
   C -0.881162542E+01  0.504520794E+00 -0.415356195E+00
   C  0.842388948E+01 -0.264148564E-01  0.142138089E+00
   H -0.439741973E+02  0.885243737E+00  0.340183319E+01
   H  0.421654083E+02 -0.265908754E+01  0.322186283E+00
     4
 # iter = 74500  time[fs]=74.50000
   C -0.889967078E+01  0.509279801E+00 -0.419690682E+00
   C  0.850818587E+01 -0.268063299E-01  0.143619840E+00
   H -0.443846911E+02  0.893366690E+00  0.343374760E+01
   H  0.425573143E+02 -0.268386820E+01  0.325038871E+00
     4
 # iter = 75000  time[fs]=75.00000
   C -0.898775707E+01  0.514040254E+00 -0.424027196E+00
   C  0.859252311E+01 -0.271988075E-01  0.145102854E+00
   H -0.447952773E+02  0.901490939E+00  0.346567059E+01
   H  0.429493133E+02 -0.270865545E+01  0.327892049E+00
     4
 # iter = 75500  time[fs]=75.50000
   C -0.907588347E+01  0.518802125E+00 -0.428365700E+00
   C  0.867690042E+01 -0.275922685E-01  0.146587107E+00
   H -0.452059542E+02  0.909616460E+00  0.349760201E+01
   H  0.433414038E+02 -0.273344920E+01  0.330745804E+00
     4
 # iter = 76000  time[fs]=76.00000
   C -0.916404921E+01  0.523565386E+00 -0.432706157E+00
   C  0.876131700E+01 -0.279866928E-01  0.148072576E+00
   H -0.456167202E+02  0.917743230E+00  0.352954171E+01
   H  0.437335840E+02 -0.275824931E+01  0.333600127E+00
     4
 # iter = 76500  time[fs]=76.50000
   C -0.925225352E+01  0.528330011E+00 -0.437048532E+00
   C  0.884577209E+01 -0.283820611E-01  0.149559237E+00
   H -0.460275736E+02  0.925871227E+00  0.356148955E+01
   H  0.441258524E+02 -0.278305568E+01  0.336455007E+00
     4
 # iter = 77000  time[fs]=77.00000
   C -0.934049567E+01  0.533095973E+00 -0.441392788E+00
   C  0.893026497E+01 -0.287783545E-01  0.151047069E+00
   H -0.464385130E+02  0.934000428E+00  0.359344539E+01
   H  0.445182074E+02 -0.280786820E+01  0.339310434E+00
     4
 # iter = 77500  time[fs]=77.50000
   C -0.942877495E+01  0.537863246E+00 -0.445738893E+00
   C  0.901479491E+01 -0.291755547E-01  0.152536050E+00
   H -0.468495367E+02  0.942130812E+00  0.362540908E+01
   H  0.449106475E+02 -0.283268677E+01  0.342166398E+00
     4
 # iter = 78000  time[fs]=78.00000
   C -0.951709064E+01  0.542631806E+00 -0.450086814E+00
   C  0.909936122E+01 -0.295736439E-01  0.154026159E+00
   H -0.472606435E+02  0.950262359E+00  0.365738050E+01
   H  0.453031712E+02 -0.285751127E+01  0.345022888E+00
     4
 # iter = 78500  time[fs]=78.50000
   C -0.960544209E+01  0.547401629E+00 -0.454436518E+00
   C  0.918396322E+01 -0.299726048E-01  0.155517375E+00
   H -0.476718318E+02  0.958395048E+00  0.368935951E+01
   H  0.456957772E+02 -0.288234161E+01  0.347879897E+00
     4
 # iter = 79000  time[fs]=79.00000
   C -0.969382862E+01  0.552172692E+00 -0.458787974E+00
   C  0.926860026E+01 -0.303724207E-01  0.157009678E+00
   H -0.480831003E+02  0.966528859E+00  0.372134599E+01
   H  0.460884640E+02 -0.290717768E+01  0.350737415E+00
     4
 # iter = 79500  time[fs]=79.50000
   C -0.978224959E+01  0.556944972E+00 -0.463141151E+00
   C  0.935327168E+01 -0.307730751E-01  0.158503049E+00
   H -0.484944475E+02  0.974663774E+00  0.375333981E+01
   H  0.464812302E+02 -0.293201940E+01  0.353595432E+00
     4
 # iter = 80000  time[fs]=80.00000
   C -0.987070439E+01  0.561718446E+00 -0.467496020E+00
   C  0.943797687E+01 -0.311745523E-01  0.159997470E+00
   H -0.489058723E+02  0.982799773E+00  0.378534085E+01
   H  0.468740746E+02 -0.295686667E+01  0.356453941E+00
