     4
 # iter = 25000  time[fs]=25.00000
   C -0.981999579E+00  0.336328290E-01 -0.189650239E-02
   C  0.985927567E+00  0.451326330E-01  0.120618680E-01
   H -0.521349644E+01  0.570359378E+00 -0.307992410E+00
   H  0.522365962E+01 -0.702595113E+00 -0.354037453E+00
     4
 # iter = 25500  time[fs]=25.50000
   C -0.102882485E+01  0.312827203E-01 -0.146088648E-02
   C  0.102688178E+01  0.476380439E-01  0.124659183E-01
   H -0.555455558E+01  0.596657879E+00 -0.334672607E+00
   H  0.552994271E+01 -0.756604052E+00 -0.383789013E+00
     4
 # iter = 26000  time[fs]=26.00000
   C -0.107945759E+01  0.280814368E-01 -0.183127131E-02
   C  0.106964346E+01  0.490718427E-01  0.117865787E-01
   H -0.590625617E+01  0.618126296E+00 -0.367075912E+00
   H  0.583662015E+01 -0.816956608E+00 -0.419391920E+00
     4
 # iter = 26500  time[fs]=26.50000
   C -0.113123784E+01  0.264404515E-01 -0.595308373E-03
   C  0.111737136E+01  0.528384286E-01  0.134228039E-01
   H -0.625190986E+01  0.650771713E+00 -0.389089172E+00
   H  0.615916424E+01 -0.867465123E+00 -0.444709759E+00
     4
 # iter = 27000  time[fs]=27.00000
   C -0.118381242E+01  0.264781280E-01  0.236580419E-02
   C  0.117000344E+01  0.591046619E-01  0.175375786E-01
   H -0.659021878E+01  0.695334054E+00 -0.399886114E+00
   H  0.649782817E+01 -0.907247463E+00 -0.458905495E+00
     4
 # iter = 27500  time[fs]=27.50000
   C -0.123875793E+01  0.263987860E-01  0.525639748E-02
   C  0.122479291E+01  0.653349186E-01  0.215926858E-01
   H -0.693272894E+01  0.739807110E+00 -0.411402103E+00
   H  0.684016113E+01 -0.948199225E+00 -0.473914594E+00
     4
 # iter = 28000  time[fs]=28.00000
   C -0.129714504E+01  0.249323470E-01  0.680588087E-02
   C  0.127975212E+01  0.697342288E-01  0.237914514E-01
   H -0.728754486E+01  0.775689199E+00 -0.432077860E+00
   H  0.717728052E+01 -0.998725193E+00 -0.498176197E+00
     4
 # iter = 28500  time[fs]=28.50000
   C -0.135828123E+01  0.225925826E-01  0.752702867E-02
   C  0.133542846E+01  0.730244020E-01  0.248545985E-01
   H -0.765092683E+01  0.806366595E+00 -0.458472925E+00
   H  0.751226084E+01 -0.105534542E+01 -0.528239552E+00
     4
 # iter = 29000  time[fs]=29.00000
   C -0.142074598E+01  0.206394760E-01  0.867851131E-02
   C  0.139343882E+01  0.769797982E-01  0.265559120E-01
   H -0.801420218E+01  0.840199676E+00 -0.482179094E+00
   H  0.785319985E+01 -0.110961306E+01 -0.555682968E+00
     4
 # iter = 29500  time[fs]=29.50000
   C -0.148395787E+01  0.195091216E-01  0.106949554E-01
   C  0.145425202E+01  0.822113954E-01  0.295062494E-01
   H -0.837422917E+01  0.880059720E+00 -0.500283748E+00
   H  0.820273193E+01 -0.115858525E+01 -0.577585869E+00
     4
 # iter = 30000  time[fs]=30.00000
   C -0.154839331E+01  0.185934052E-01  0.129666995E-01
   C  0.151687666E+01  0.878559864E-01  0.328426438E-01
   H -0.873486030E+01  0.921860633E+00 -0.516837354E+00
   H  0.855655226E+01 -0.120629120E+01 -0.597997419E+00
     4
 # iter = 30500  time[fs]=30.50000
   C -0.161461201E+01  0.172138919E-01  0.148137019E-01
   C  0.158023479E+01  0.929510600E-01  0.356030650E-01
   H -0.910044269E+01  0.961050124E+00 -0.536360943E+00
   H  0.890991324E+01 -0.125723374E+01 -0.621438192E+00
     4
 # iter = 31000  time[fs]=31.00000
   C -0.168251540E+01  0.153626543E-01  0.162263847E-01
   C  0.164420667E+01  0.974806716E-01  0.377721962E-01
   H -0.947087347E+01  0.997547553E+00 -0.558907198E+00
   H  0.926256602E+01 -0.131144583E+01 -0.647956824E+00
     4
 # iter = 31500  time[fs]=31.50000
   C -0.175156279E+01  0.134847839E-01  0.176481820E-01
   C  0.170932256E+01  0.102068468E+00  0.399744098E-01
   H -0.984304691E+01  0.103429388E+01 -0.581510064E+00
   H  0.961730566E+01 -0.136594113E+01 -0.674580912E+00
     4
 # iter = 32000  time[fs]=32.00000
   C -0.182139146E+01  0.118568284E-01  0.193540127E-01
   C  0.177588411E+01  0.107100255E+00  0.425963145E-01
   H -0.102149970E+02  0.107310801E+01 -0.602328220E+00
   H  0.997581966E+01 -0.141886094E+01 -0.699464220E+00
     4
 # iter = 32500  time[fs]=32.50000
   C -0.189203845E+01  0.103638648E-01  0.212273755E-01
   C  0.184364865E+01  0.112409333E+00  0.454720629E-01
   H -0.105873816E+02  0.111320068E+01 -0.622130947E+00
   H  0.103371977E+02 -0.147096103E+01 -0.723373830E+00
     4
 # iter = 33000  time[fs]=33.00000
   C -0.196367202E+01  0.876717271E-02  0.230280295E-01
   C  0.191220628E+01  0.117654420E+00  0.482612533E-01
   H -0.109616961E+02  0.115295900E+01 -0.642513225E+00
   H  0.106997166E+02 -0.152382499E+01 -0.747903538E+00
     4
 # iter = 33500  time[fs]=33.50000
   C -0.203629734E+01  0.699788039E-02  0.246856419E-01
   C  0.198139365E+01  0.122734238E+00  0.508634893E-01
   H -0.113383128E+02  0.119190404E+01 -0.663937776E+00
   H  0.110627987E+02 -0.157790427E+01 -0.773514045E+00
     4
 # iter = 34000  time[fs]=34.00000
   C -0.210975280E+01  0.515989205E-02  0.263027188E-01
   C  0.205129739E+01  0.127791641E+00  0.534224955E-01
   H -0.117164608E+02  0.123071018E+01 -0.685715504E+00
   H  0.114270305E+02 -0.163249848E+01 -0.799513361E+00
     4
 # iter = 34500  time[fs]=34.50000
   C -0.218388451E+01  0.335476809E-02  0.279794894E-01
   C  0.212200618E+01  0.132966370E+00  0.560788656E-01
   H -0.120953922E+02  0.127003740E+01 -0.707173051E+00
   H  0.117929919E+02 -0.168692397E+01 -0.825225455E+00
     4
 # iter = 35000  time[fs]=35.00000
   C -0.225864518E+01  0.158214685E-02  0.297143285E-01
   C  0.219346968E+01  0.138254464E+00  0.588294673E-01
   H -0.124750456E+02  0.130986726E+01 -0.728316679E+00
   H  0.121605909E+02 -0.174117817E+01 -0.850654731E+00
     4
 # iter = 35500  time[fs]=35.50000
   C -0.233404752E+01 -0.214060257E-03  0.314499517E-01
   C  0.226556316E+01  0.143573475E+00  0.615926570E-01
   H -0.128557369E+02  0.134981088E+01 -0.749524164E+00
   H  0.125293709E+02 -0.179563109E+01 -0.876177606E+00
     4
 # iter = 36000  time[fs]=36.00000
   C -0.241008194E+01 -0.206389266E-02  0.331551880E-01
   C  0.233820258E+01  0.148877923E+00  0.643237281E-01
   H -0.132376137E+02  0.138965411E+01 -0.770999498E+00
   H  0.128990560E+02 -0.185047946E+01 -0.901996678E+00
     4
 # iter = 36500  time[fs]=36.50000
   C -0.248669752E+01 -0.395263917E-02  0.348436792E-01
   C  0.241137057E+01  0.154185690E+00  0.670413035E-01
   H -0.136205296E+02  0.142948210E+01 -0.792648168E+00
   H  0.132696748E+02 -0.190562182E+01 -0.928015876E+00
     4
 # iter = 37000  time[fs]=37.00000
   C -0.256383614E+01 -0.585534000E-02  0.365393752E-01
   C  0.248506739E+01  0.159529295E+00  0.697786114E-01
   H -0.140042738E+02  0.146944923E+01 -0.814307217E+00
   H  0.136413299E+02 -0.196088871E+01 -0.954070729E+00
     4
 # iter = 37500  time[fs]=37.50000
   C -0.264146053E+01 -0.776513353E-02  0.382481845E-01
   C  0.255927056E+01  0.164915865E+00  0.725434533E-01
   H -0.143887600E+02  0.150958998E+01 -0.835934244E+00
   H  0.140140078E+02 -0.201623185E+01 -0.980117540E+00
     4
 # iter = 38000  time[fs]=38.00000
   C -0.271955083E+01 -0.969013101E-02  0.399610970E-01
   C  0.263393901E+01  0.170331536E+00  0.753226087E-01
   H -0.147740050E+02  0.154983972E+01 -0.857586557E+00
   H  0.143875995E+02 -0.207170318E+01 -0.100621251E+01
     4
 # iter = 38500  time[fs]=38.50000
   C -0.279808820E+01 -0.116372363E-01  0.416703605E-01
   C  0.270903570E+01  0.175764288E+00  0.781046724E-01
   H -0.151600203E+02  0.159014257E+01 -0.879313275E+00
   H  0.147620081E+02 -0.212734683E+01 -0.103240371E+01
     4
 # iter = 39000  time[fs]=39.00000
   C -0.287704783E+01 -0.136053521E-01  0.433762725E-01
   C  0.278453697E+01  0.181213534E+00  0.808896386E-01
   H -0.155467668E+02  0.163049663E+01 -0.901110024E+00
   H  0.151371936E+02 -0.218315376E+01 -0.105868575E+01
     4
 # iter = 39500  time[fs]=39.50000
   C -0.295640317E+01 -0.155898772E-01  0.450826789E-01
   C  0.286042599E+01  0.186683757E+00  0.836825437E-01
   H -0.159341844E+02  0.167092392E+01 -0.922948935E+00
   H  0.155131428E+02 -0.223909170E+01 -0.108502980E+01
     4
 # iter = 40000  time[fs]=40.00000
   C -0.303613142E+01 -0.175882672E-01  0.467914116E-01
   C  0.293668477E+01  0.192176653E+00  0.864856083E-01
   H -0.163222287E+02  0.171143331E+01 -0.944815722E+00
   H  0.158898317E+02 -0.229514230E+01 -0.111142068E+01
     4
 # iter = 40500  time[fs]=40.50000
   C -0.311621395E+01 -0.196006932E-01  0.485016266E-01
   C  0.301329302E+01  0.197690191E+00  0.892973009E-01
   H -0.167108755E+02  0.175201604E+01 -0.966714081E+00
   H  0.162672209E+02 -0.235130547E+01 -0.113786125E+01
     4
 # iter = 41000  time[fs]=41.00000
   C -0.319663398E+01 -0.216277841E-01  0.502120593E-01
   C  0.309023124E+01  0.203221796E+00  0.921155198E-01
   H -0.171001053E+02  0.179266078E+01 -0.988650637E+00
   H  0.166452705E+02 -0.240758429E+01 -0.116435737E+01
     4
 # iter = 41500  time[fs]=41.50000
   C -0.327737498E+01 -0.236692136E-01  0.519224356E-01
   C  0.316748258E+01  0.208770337E+00  0.949395828E-01
   H -0.174898938E+02  0.183336297E+01 -0.101062553E+01
   H  0.170239493E+02 -0.246397558E+01 -0.119090847E+01
     4
 # iter = 42000  time[fs]=42.00000
   C -0.335842092E+01 -0.257240159E-01  0.536331532E-01
   C  0.324503227E+01  0.214335675E+00  0.977697767E-01
   H -0.178802142E+02  0.187412271E+01 -0.103263452E+01
   H  0.174032324E+02 -0.252047199E+01 -0.121750960E+01
     4
 # iter = 42500  time[fs]=42.50000
   C -0.343975691E+01 -0.277913541E-01  0.553445118E-01
   C  0.332286646E+01  0.219917570E+00  0.100606268E+00
   H -0.182710415E+02  0.191493963E+01 -0.105467412E+01
   H  0.177830960E+02 -0.257706709E+01 -0.124415665E+01
     4
 # iter = 43000  time[fs]=43.00000
   C -0.352136940E+01 -0.298707506E-01  0.570564803E-01
   C  0.340097176E+01  0.225515353E+00  0.103448771E+00
   H -0.186623544E+02  0.195581128E+01 -0.107674314E+01
   H  0.181635156E+02 -0.263375695E+01 -0.127084781E+01
     4
 # iter = 43500  time[fs]=43.50000
   C -0.360324580E+01 -0.319618716E-01  0.587689109E-01
   C  0.347933552E+01  0.231128226E+00  0.106296853E+00
   H -0.190541340E+02  0.199673457E+01 -0.109884124E+01
   H  0.185444677E+02 -0.269053864E+01 -0.129758219E+01
     4
 # iter = 44000  time[fs]=44.00000
   C -0.368537429E+01 -0.340643293E-01  0.604817348E-01
   C  0.355794597E+01  0.236755532E+00  0.109150205E+00
   H -0.194463616E+02  0.203770708E+01 -0.112096765E+01
   H  0.189259302E+02 -0.274740894E+01 -0.132435846E+01
     4
 # iter = 44500  time[fs]=44.50000
   C -0.376774369E+01 -0.361776758E-01  0.621949670E-01
   C  0.363679221E+01  0.242396764E+00  0.112008650E+00
   H -0.198390194E+02  0.207872704E+01 -0.114312109E+01
   H  0.193078832E+02 -0.280436429E+01 -0.135117484E+01
     4
 # iter = 45000  time[fs]=45.00000
   C -0.385034354E+01 -0.383014771E-01  0.639086308E-01
   C  0.371586405E+01  0.248051455E+00  0.114872034E+00
   H -0.202320904E+02  0.211979287E+01 -0.116530031E+01
   H  0.196903079E+02 -0.286140122E+01 -0.137802959E+01
     4
 # iter = 45500  time[fs]=45.50000
   C -0.393316400E+01 -0.404353474E-01  0.656227219E-01
   C  0.379515186E+01  0.253719123E+00  0.117740175E+00
   H -0.206255588E+02  0.216090287E+01 -0.118750428E+01
   H  0.200731863E+02 -0.291851669E+01 -0.140492124E+01
     4
 # iter = 46000  time[fs]=46.00000
   C -0.401619587E+01 -0.425789361E-01  0.673372204E-01
   C  0.387464658E+01  0.259399292E+00  0.120612881E+00
   H -0.210194097E+02  0.220205537E+01 -0.120973215E+01
   H  0.204565014E+02 -0.297570788E+01 -0.143184851E+01
     4
 # iter = 46500  time[fs]=46.50000
   C -0.409943048E+01 -0.447319072E-01  0.690521099E-01
   C  0.395433969E+01  0.265091511E+00  0.123489971E+00
   H -0.214136290E+02  0.224324878E+01 -0.123198309E+01
   H  0.208402370E+02 -0.303297212E+01 -0.145881014E+01
     4
 # iter = 47000  time[fs]=47.00000
   C -0.418285964E+01 -0.468939345E-01  0.707673816E-01
   C  0.403422315E+01  0.270795361E+00  0.126371286E+00
   H -0.218082035E+02  0.228448164E+01 -0.125425626E+01
   H  0.212243780E+02 -0.309030684E+01 -0.148580492E+01
     4
 # iter = 47500  time[fs]=47.50000
   C -0.426647564E+01 -0.490647057E-01  0.724830286E-01
   C  0.411428941E+01  0.276510449E+00  0.129256677E+00
   H -0.222031205E+02  0.232575259E+01 -0.127655089E+01
   H  0.216089098E+02 -0.314770957E+01 -0.151283169E+01
     4
 # iter = 48000  time[fs]=48.00000
   C -0.435027120E+01 -0.512439248E-01  0.741990432E-01
   C  0.419453135E+01  0.282236396E+00  0.132146002E+00
   H -0.225983679E+02  0.236706033E+01 -0.129886620E+01
   H  0.219938190E+02 -0.320517799E+01 -0.153988935E+01
     4
 # iter = 48500  time[fs]=48.50000
   C -0.443423945E+01 -0.534313114E-01  0.759154164E-01
   C  0.427494220E+01  0.287972842E+00  0.135039123E+00
   H -0.229939345E+02  0.240840360E+01 -0.132120150E+01
   H  0.223790925E+02 -0.326270991E+01 -0.156697685E+01
     4
 # iter = 49000  time[fs]=49.00000
   C -0.451837389E+01 -0.556265981E-01  0.776321392E-01
   C  0.435551559E+01  0.293719441E+00  0.137935909E+00
   H -0.233898093E+02  0.244978123E+01 -0.134355612E+01
   H  0.227647180E+02 -0.332030322E+01 -0.159409322E+01
     4
 # iter = 49500  time[fs]=49.50000
   C -0.460266835E+01 -0.578295296E-01  0.793492036E-01
   C  0.443624550E+01  0.299475866E+00  0.140836237E+00
   H -0.237859822E+02  0.249119208E+01 -0.136592943E+01
   H  0.231506837E+02 -0.337795593E+01 -0.162123751E+01
     4
 # iter = 50000  time[fs]=50.00000
   C -0.468711701E+01 -0.600398620E-01  0.810666019E-01
   C  0.451712619E+01  0.305241804E+00  0.143739990E+00
   H -0.241824433E+02  0.253263509E+01 -0.138832082E+01
   H  0.235369785E+02 -0.343566615E+01 -0.164840883E+01
     4
 # iter = 50500  time[fs]=50.50000
   C -0.477171434E+01 -0.622573626E-01  0.827843267E-01
   C  0.459815226E+01  0.311016957E+00  0.146647056E+00
   H -0.245791833E+02  0.257410923E+01 -0.141072971E+01
   H  0.239235918E+02 -0.349343206E+01 -0.167560632E+01
     4
 # iter = 51000  time[fs]=51.00000
   C -0.485645509E+01 -0.644818090E-01  0.845023705E-01
   C  0.467931856E+01  0.316801040E+00  0.149557329E+00
   H -0.249761934E+02  0.261561353E+01 -0.143315555E+01
   H  0.243105134E+02 -0.355125194E+01 -0.170282918E+01
     4
 # iter = 51500  time[fs]=51.50000
   C -0.494133429E+01 -0.667129887E-01  0.862207262E-01
   C  0.476062021E+01  0.322593780E+00  0.152470707E+00
   H -0.253734651E+02  0.265714707E+01 -0.145559781E+01
   H  0.246977338E+02 -0.360912413E+01 -0.173007661E+01
     4
 # iter = 52000  time[fs]=52.00000
   C -0.502634719E+01 -0.689506984E-01  0.879393869E-01
   C  0.484205257E+01  0.328394916E+00  0.155387094E+00
   H -0.257709904E+02  0.269870895E+01 -0.147805599E+01
   H  0.250852437E+02 -0.366704707E+01 -0.175734788E+01
     4
 # iter = 52500  time[fs]=52.50000
   C -0.511148929E+01 -0.711947437E-01  0.896583460E-01
   C  0.492361123E+01  0.334204199E+00  0.158306397E+00
   H -0.261687615E+02  0.274029832E+01 -0.150052962E+01
   H  0.254730343E+02 -0.372501924E+01 -0.178464229E+01
     4
 # iter = 53000  time[fs]=53.00000
   C -0.519675630E+01 -0.734449382E-01  0.913775970E-01
   C  0.500529198E+01  0.340021391E+00  0.161228528E+00
   H -0.265667710E+02  0.278191438E+01 -0.152301824E+01
   H  0.258610972E+02 -0.378303920E+01 -0.181195914E+01
     4
 # iter = 53500  time[fs]=53.50000
   C -0.528214415E+01 -0.757011036E-01  0.930971334E-01
   C  0.508709082E+01  0.345846262E+00  0.164153402E+00
   H -0.269650120E+02  0.282355636E+01 -0.154552140E+01
   H  0.262494243E+02 -0.384110558E+01 -0.183929780E+01
     4
 # iter = 54000  time[fs]=54.00000
   C -0.536764893E+01 -0.779630688E-01  0.948169494E-01
   C  0.516900395E+01  0.351678594E+00  0.167080939E+00
   H -0.273634777E+02  0.286522350E+01 -0.156803869E+01
   H  0.266380080E+02 -0.389921706E+01 -0.186665764E+01
     4
 # iter = 54500  time[fs]=54.50000
   C -0.545326694E+01 -0.802306698E-01  0.965370388E-01
   C  0.525102772E+01  0.357518175E+00  0.170011063E+00
   H -0.277621616E+02  0.290691510E+01 -0.159056971E+01
   H  0.270268409E+02 -0.395737237E+01 -0.189403807E+01
     4
 # iter = 55000  time[fs]=55.00000
   C -0.553899464E+01 -0.825037492E-01  0.982573960E-01
   C  0.533315867E+01  0.363364806E+00  0.172943698E+00
   H -0.281610575E+02  0.294863048E+01 -0.161311406E+01
   H  0.274159159E+02 -0.401557029E+01 -0.192143850E+01
     4
 # iter = 55500  time[fs]=55.50000
   C -0.562482863E+01 -0.847821560E-01  0.999780154E-01
   C  0.541539348E+01  0.369218291E+00  0.175878774E+00
   H -0.285601596E+02  0.299036897E+01 -0.163567140E+01
   H  0.278052263E+02 -0.407380967E+01 -0.194885841E+01
     4
 # iter = 56000  time[fs]=56.00000
   C -0.571076569E+01 -0.870657451E-01  0.101698892E+00
   C  0.549772899E+01  0.375078445E+00  0.178816223E+00
   H -0.289594621E+02  0.303212997E+01 -0.165824135E+01
   H  0.281947656E+02 -0.413208939E+01 -0.197629725E+01
     4
 # iter = 56500  time[fs]=56.50000
   C -0.579680271E+01 -0.893543771E-01  0.103420019E+00
   C  0.558016216E+01  0.380945090E+00  0.181755980E+00
   H -0.293589597E+02  0.307391286E+01 -0.168082358E+01
   H  0.285845275E+02 -0.419040837E+01 -0.200375452E+01
     4
 # iter = 57000  time[fs]=57.00000
   C -0.588293676E+01 -0.916479180E-01  0.105141393E+00
   C  0.566269010E+01  0.386818053E+00  0.184697982E+00
   H -0.297586469E+02  0.311571706E+01 -0.170341776E+01
   H  0.289745061E+02 -0.424876558E+01 -0.203122975E+01
     4
 # iter = 57500  time[fs]=57.50000
   C -0.596916498E+01 -0.939462390E-01  0.106863009E+00
   C  0.574531004E+01  0.392697170E+00  0.187642170E+00
   H -0.301585190E+02  0.315754202E+01 -0.172602358E+01
   H  0.293646957E+02 -0.430716003E+01 -0.205872245E+01
     4
 # iter = 58000  time[fs]=58.00000
   C -0.605548466E+01 -0.962492161E-01  0.108584861E+00
   C  0.582801932E+01  0.398582281E+00  0.190588485E+00
   H -0.305585709E+02  0.319938721E+01 -0.174864074E+01
   H  0.297550906E+02 -0.436559077E+01 -0.208623219E+01
     4
 # iter = 58500  time[fs]=58.50000
   C -0.614189321E+01 -0.985567299E-01  0.110306944E+00
   C  0.591081539E+01  0.404473235E+00  0.193536873E+00
   H -0.309587980E+02  0.324125210E+01 -0.177126895E+01
   H  0.301456857E+02 -0.442405687E+01 -0.211375853E+01
     4
 # iter = 59000  time[fs]=59.00000
   C -0.622838813E+01 -0.100868665E+00  0.112029255E+00
   C  0.599369581E+01  0.410369882E+00  0.196487280E+00
   H -0.313591960E+02  0.328313621E+01 -0.179390792E+01
   H  0.305364757E+02 -0.448255747E+01 -0.214130106E+01
     4
 # iter = 59500  time[fs]=59.50000
   C -0.631496703E+01 -0.103184912E+00  0.113751789E+00
   C  0.607665824E+01  0.416272082E+00  0.199439654E+00
   H -0.317597604E+02  0.332503906E+01 -0.181655740E+01
   H  0.309274559E+02 -0.454109169E+01 -0.216885937E+01
     4
 # iter = 60000  time[fs]=60.00000
   C -0.640162760E+01 -0.105505363E+00  0.115474542E+00
   C  0.615970043E+01  0.422179698E+00  0.202393946E+00
   H -0.321604871E+02  0.336696018E+01 -0.183921711E+01
   H  0.313186213E+02 -0.459965873E+01 -0.219643308E+01
     4
 # iter = 60500  time[fs]=60.50000
   C -0.648836765E+01 -0.107829916E+00  0.117197509E+00
   C  0.624282022E+01  0.428092597E+00  0.205350108E+00
   H -0.325613722E+02  0.340889914E+01 -0.186188682E+01
   H  0.317099676E+02 -0.465825779E+01 -0.222402181E+01
     4
 # iter = 61000  time[fs]=61.00000
   C -0.657518504E+01 -0.110158470E+00  0.118920686E+00
   C  0.632601554E+01  0.434010653E+00  0.208308095E+00
   H -0.329624117E+02  0.345085551E+01 -0.188456628E+01
   H  0.321014902E+02 -0.471688812E+01 -0.225162522E+01
     4
 # iter = 61500  time[fs]=61.50000
   C -0.666207775E+01 -0.112490931E+00  0.120644069E+00
   C  0.640928439E+01  0.439933743E+00  0.211267863E+00
   H -0.333636020E+02  0.349282887E+01 -0.190725525E+01
   H  0.324931849E+02 -0.477554896E+01 -0.227924294E+01
     4
 # iter = 62000  time[fs]=62.00000
   C -0.674904381E+01 -0.114827206E+00  0.122367655E+00
   C  0.649262485E+01  0.445861748E+00  0.214229368E+00
   H -0.337649395E+02  0.353481883E+01 -0.192995352E+01
   H  0.328850477E+02 -0.483423962E+01 -0.230687466E+01
     4
 # iter = 62500  time[fs]=62.50000
   C -0.683608133E+01 -0.117167206E+00  0.124091440E+00
   C  0.657603508E+01  0.451794554E+00  0.217192570E+00
   H -0.341664208E+02  0.357682500E+01 -0.195266087E+01
   H  0.332770746E+02 -0.489295941E+01 -0.233452003E+01
     4
 # iter = 63000  time[fs]=63.00000
   C -0.692318849E+01 -0.119510845E+00  0.125815419E+00
   C  0.665951329E+01  0.457732050E+00  0.220157429E+00
   H -0.345680424E+02  0.361884702E+01 -0.197537709E+01
   H  0.336692618E+02 -0.495170766E+01 -0.236217876E+01
     4
 # iter = 63500  time[fs]=63.50000
   C -0.701036356E+01 -0.121858038E+00  0.127539590E+00
   C  0.674305778E+01  0.463674130E+00  0.223123906E+00
   H -0.349698012E+02  0.366088452E+01 -0.199810198E+01
   H  0.340616056E+02 -0.501048373E+01 -0.238985055E+01
     4
 # iter = 64000  time[fs]=64.00000
   C -0.709760483E+01 -0.124208706E+00  0.129263949E+00
   C  0.682666691E+01  0.469620689E+00  0.226091965E+00
   H -0.353716941E+02  0.370293717E+01 -0.202083534E+01
   H  0.344541024E+02 -0.506928701E+01 -0.241753509E+01
     4
 # iter = 64500  time[fs]=64.50000
   C -0.718491068E+01 -0.126562771E+00  0.130988493E+00
   C  0.691033906E+01  0.475571628E+00  0.229061570E+00
   H -0.357737180E+02  0.374500461E+01 -0.204357698E+01
   H  0.348467489E+02 -0.512811689E+01 -0.244523211E+01
     4
 # iter = 65000  time[fs]=65.00000
   C -0.727227956E+01 -0.128920157E+00  0.132713218E+00
   C  0.699407273E+01  0.481526851E+00  0.232032685E+00
   H -0.361758701E+02  0.378708654E+01 -0.206632673E+01
   H  0.352395416E+02 -0.518697279E+01 -0.247294134E+01
     4
 # iter = 65500  time[fs]=65.50000
   C -0.735970993E+01 -0.131280791E+00  0.134438120E+00
   C  0.707786642E+01  0.487486264E+00  0.235005278E+00
   H -0.365781474E+02  0.382918263E+01 -0.208908440E+01
   H  0.356324773E+02 -0.524585416E+01 -0.250066251E+01
     4
 # iter = 66000  time[fs]=66.00000
   C -0.744720035E+01 -0.133644604E+00  0.136163198E+00
   C  0.716171870E+01  0.493449776E+00  0.237979317E+00
   H -0.369805474E+02  0.387129258E+01 -0.211184983E+01
   H  0.360255531E+02 -0.530476045E+01 -0.252839537E+01
     4
 # iter = 66500  time[fs]=66.50000
   C -0.753474941E+01 -0.136011525E+00  0.137888448E+00
   C  0.724562821E+01  0.499417299E+00  0.240954769E+00
   H -0.373830674E+02  0.391341610E+01 -0.213462285E+01
   H  0.364187657E+02 -0.536369113E+01 -0.255613966E+01
     4
 # iter = 67000  time[fs]=67.00000
   C -0.762235574E+01 -0.138381490E+00  0.139613866E+00
   C  0.732959361E+01  0.505388749E+00  0.243931605E+00
   H -0.377857047E+02  0.395555291E+01 -0.215740330E+01
   H  0.368121124E+02 -0.542264570E+01 -0.258389516E+01
     4
 # iter = 67500  time[fs]=67.50000
   C -0.771001803E+01 -0.140754434E+00  0.141339451E+00
   C  0.741361361E+01  0.511364043E+00  0.246909796E+00
   H -0.381884570E+02  0.399770272E+01 -0.218019102E+01
   H  0.372055902E+02 -0.548162366E+01 -0.261166162E+01
     4
 # iter = 68000  time[fs]=68.00000
   C -0.779773500E+01 -0.143130294E+00  0.143065199E+00
   C  0.749768697E+01  0.517343101E+00  0.249889312E+00
   H -0.385913218E+02  0.403986528E+01 -0.220298587E+01
   H  0.375991965E+02 -0.554062452E+01 -0.263943883E+01
     4
 # iter = 68500  time[fs]=68.50000
   C -0.788550543E+01 -0.145509011E+00  0.144791107E+00
   C  0.758181250E+01  0.523325846E+00  0.252870126E+00
   H -0.389942969E+02  0.408204031E+01 -0.222578769E+01
   H  0.379929286E+02 -0.559964784E+01 -0.266722656E+01
     4
 # iter = 69000  time[fs]=69.00000
   C -0.797332813E+01 -0.147890526E+00  0.146517172E+00
   C  0.766598901E+01  0.529312203E+00  0.255852212E+00
   H -0.393973799E+02  0.412422758E+01 -0.224859636E+01
   H  0.383867840E+02 -0.565869315E+01 -0.269502460E+01
     4
 # iter = 69500  time[fs]=69.50000
   C -0.806120195E+01 -0.150274782E+00  0.148243393E+00
   C  0.775021540E+01  0.535302100E+00  0.258835543E+00
   H -0.398005686E+02  0.416642683E+01 -0.227141172E+01
   H  0.387807600E+02 -0.571776001E+01 -0.272283275E+01
     4
 # iter = 70000  time[fs]=70.00000
   C -0.814912577E+01 -0.152661725E+00  0.149969767E+00
   C  0.783449058E+01  0.541295464E+00  0.261820094E+00
   H -0.402038611E+02  0.420863783E+01 -0.229423365E+01
   H  0.391748543E+02 -0.577684802E+01 -0.275065081E+01
     4
 # iter = 70500  time[fs]=70.50000
   C -0.823709851E+01 -0.155051300E+00  0.151696290E+00
   C  0.791881348E+01  0.547292228E+00  0.264805842E+00
   H -0.406072551E+02  0.425086035E+01 -0.231706202E+01
   H  0.395690646E+02 -0.583595674E+01 -0.277847858E+01
     4
 # iter = 71000  time[fs]=71.00000
   C -0.832511914E+01 -0.157443457E+00  0.153422961E+00
   C  0.800318309E+01  0.553292325E+00  0.267792762E+00
   H -0.410107488E+02  0.429309416E+01 -0.233989670E+01
   H  0.399633886E+02 -0.589508578E+01 -0.280631588E+01
     4
 # iter = 71500  time[fs]=71.50000
   C -0.841318663E+01 -0.159838143E+00  0.155149777E+00
   C  0.808759841E+01  0.559295691E+00  0.270780831E+00
   H -0.414143401E+02  0.433533905E+01 -0.236273757E+01
   H  0.403578240E+02 -0.595423476E+01 -0.283416252E+01
     4
 # iter = 72000  time[fs]=72.00000
   C -0.850130001E+01 -0.162235312E+00  0.156876737E+00
   C  0.817205850E+01  0.565302262E+00  0.273770027E+00
   H -0.418180271E+02  0.437759481E+01 -0.238558452E+01
   H  0.407523688E+02 -0.601340329E+01 -0.286201833E+01
     4
 # iter = 72500  time[fs]=72.50000
   C -0.858945833E+01 -0.164634914E+00  0.158603836E+00
   C  0.825656243E+01  0.571311977E+00  0.276760329E+00
   H -0.422218082E+02  0.441986124E+01 -0.240843742E+01
   H  0.411470207E+02 -0.607259101E+01 -0.288988313E+01
     4
 # iter = 73000  time[fs]=73.00000
   C -0.867766067E+01 -0.167036904E+00  0.160331074E+00
   C  0.834110928E+01  0.577324778E+00  0.279751715E+00
   H -0.426256814E+02  0.446213812E+01 -0.243129617E+01
   H  0.415417778E+02 -0.613179756E+01 -0.291775676E+01
     4
 # iter = 73500  time[fs]=73.50000
   C -0.876590612E+01 -0.169441237E+00  0.162058448E+00
   C  0.842569819E+01  0.583340605E+00  0.282744164E+00
   H -0.430296450E+02  0.450442528E+01 -0.245416066E+01
   H  0.419366382E+02 -0.619102259E+01 -0.294563905E+01
     4
 # iter = 74000  time[fs]=74.00000
   C -0.885419382E+01 -0.171847869E+00  0.163785957E+00
   C  0.851032830E+01  0.589359404E+00  0.285737658E+00
   H -0.434336975E+02  0.454672252E+01 -0.247703077E+01
   H  0.423315998E+02 -0.625026577E+01 -0.297352984E+01
     4
 # iter = 74500  time[fs]=74.50000
   C -0.894252294E+01 -0.174256758E+00  0.165513597E+00
   C  0.859499880E+01  0.595381119E+00  0.288732176E+00
   H -0.438378370E+02  0.458902966E+01 -0.249990642E+01
   H  0.427266608E+02 -0.630952676E+01 -0.300142898E+01
     4
 # iter = 75000  time[fs]=75.00000
   C -0.903089264E+01 -0.176667862E+00  0.167241367E+00
   C  0.867970889E+01  0.601405697E+00  0.291727699E+00
   H -0.442420621E+02  0.463134652E+01 -0.252278750E+01
   H  0.431218194E+02 -0.636880525E+01 -0.302933632E+01
     4
 # iter = 75500  time[fs]=75.50000
   C -0.911930214E+01 -0.179081141E+00  0.168969265E+00
   C  0.876445779E+01  0.607433087E+00  0.294724210E+00
   H -0.446463712E+02  0.467367292E+01 -0.254567390E+01
   H  0.435170739E+02 -0.642810093E+01 -0.305725172E+01
     4
 # iter = 76000  time[fs]=76.00000
   C -0.920775067E+01 -0.181496556E+00  0.170697289E+00
   C  0.884924474E+01  0.613463238E+00  0.297721691E+00
   H -0.450507628E+02  0.471600871E+01 -0.256856554E+01
   H  0.439124225E+02 -0.648741348E+01 -0.308517502E+01
     4
 # iter = 76500  time[fs]=76.50000
   C -0.929623747E+01 -0.183914068E+00  0.172425437E+00
   C  0.893406902E+01  0.619496101E+00  0.300720124E+00
   H -0.454552354E+02  0.475835370E+01 -0.259146233E+01
   H  0.443078635E+02 -0.654674263E+01 -0.311310610E+01
     4
 # iter = 77000  time[fs]=77.00000
   C -0.938476182E+01 -0.186333641E+00  0.174153708E+00
   C  0.901892992E+01  0.625531629E+00  0.303719492E+00
   H -0.458597876E+02  0.480070775E+01 -0.261436417E+01
   H  0.447033953E+02 -0.660608807E+01 -0.314104481E+01
     4
 # iter = 77500  time[fs]=77.50000
   C -0.947332301E+01 -0.188755239E+00  0.175882099E+00
   C  0.910382673E+01  0.631569774E+00  0.306719780E+00
   H -0.462644179E+02  0.484307070E+01 -0.263727098E+01
   H  0.450990163E+02 -0.666544953E+01 -0.316899103E+01
     4
 # iter = 78000  time[fs]=78.00000
   C -0.956192035E+01 -0.191178826E+00  0.177610609E+00
   C  0.918875879E+01  0.637610492E+00  0.309720970E+00
   H -0.466691252E+02  0.488544239E+01 -0.266018267E+01
   H  0.454947250E+02 -0.672482674E+01 -0.319694463E+01
     4
 # iter = 78500  time[fs]=78.50000
   C -0.965055316E+01 -0.193604367E+00  0.179339235E+00
   C  0.927372544E+01  0.643653738E+00  0.312723047E+00
   H -0.470739079E+02  0.492782268E+01 -0.268309916E+01
   H  0.458905199E+02 -0.678421942E+01 -0.322490548E+01
     4
 # iter = 79000  time[fs]=79.00000
   C -0.973922081E+01 -0.196031830E+00  0.181067977E+00
   C  0.935872605E+01  0.649699469E+00  0.315725996E+00
   H -0.474787650E+02  0.497021143E+01 -0.270602036E+01
   H  0.462863995E+02 -0.684362733E+01 -0.325287346E+01
     4
 # iter = 79500  time[fs]=79.50000
   C -0.982792264E+01 -0.198461181E+00  0.182796832E+00
   C  0.944376000E+01  0.655747644E+00  0.318729803E+00
   H -0.478836950E+02  0.501260848E+01 -0.272894621E+01
   H  0.466823623E+02 -0.690305020E+01 -0.328084845E+01
     4
 # iter = 80000  time[fs]=80.00000
   C -0.991665806E+01 -0.200892389E+00  0.184525800E+00
   C  0.952882668E+01  0.661798221E+00  0.321734452E+00
   H -0.482886967E+02  0.505501371E+01 -0.275187661E+01
   H  0.470784070E+02 -0.696248779E+01 -0.330883033E+01
