     4
 # iter = 25000  time[fs]=25.00000
   C -0.102063091E+01  0.433389267E-01 -0.175521057E-01
   C  0.103651703E+01 -0.204678932E-01  0.141277351E-02
   H -0.530023929E+01 -0.490248485E+00 -0.295072578E+00
   H  0.544696762E+01  0.344841505E+00 -0.381295888E+00
     4
 # iter = 25500  time[fs]=25.50000
   C -0.107252318E+01  0.437091489E-01 -0.175328722E-01
   C  0.108241314E+01 -0.234426054E-01  0.245782152E-02
   H -0.564527037E+01 -0.532266550E+00 -0.319516632E+00
   H  0.576273820E+01  0.359998497E+00 -0.411450473E+00
     4
 # iter = 26000  time[fs]=26.00000
   C -0.112833290E+01  0.430916025E-01 -0.186260981E-01
   C  0.113029171E+01 -0.273928787E-01  0.268718359E-02
   H -0.600142073E+01 -0.580315902E+00 -0.349689293E+00
   H  0.607820151E+01  0.370100546E+00 -0.447384895E+00
     4
 # iter = 26500  time[fs]=26.50000
   C -0.118449547E+01  0.447964229E-01 -0.175104960E-01
   C  0.118249350E+01 -0.297140342E-01  0.469130280E-02
   H -0.635194878E+01 -0.618258856E+00 -0.369487698E+00
   H  0.640892554E+01  0.391205721E+00 -0.472969255E+00
     4
 # iter = 27000  time[fs]=27.00000
   C -0.124062260E+01  0.489775585E-01 -0.140222170E-01
   C  0.123891592E+01 -0.302697595E-01  0.859358259E-02
   H -0.669550853E+01 -0.645240294E+00 -0.378084987E+00
   H  0.675523943E+01  0.424079302E+00 -0.487373913E+00
     4
 # iter = 27500  time[fs]=27.50000
   C -0.129898099E+01  0.531543700E-01 -0.106331184E-01
   C  0.129741981E+01 -0.309842213E-01  0.124581774E-01
   H -0.704360095E+01 -0.673162852E+00 -0.387406894E+00
   H  0.710475256E+01  0.456720022E+00 -0.502542277E+00
     4
 # iter = 28000  time[fs]=28.00000
   C -0.136113344E+01  0.555699783E-01 -0.909213295E-02
   C  0.135645014E+01 -0.332174671E-01  0.149145902E-01
   H -0.740429298E+01 -0.710440334E+00 -0.405887218E+00
   H  0.744863356E+01  0.480632206E+00 -0.526919990E+00
     4
 # iter = 28500  time[fs]=28.50000
   C -0.142620541E+01  0.569236000E-01 -0.869277270E-02
   C  0.141638720E+01 -0.364116225E-01  0.165113998E-01
   H -0.777381737E+01 -0.753616081E+00 -0.430087284E+00
   H  0.779000303E+01  0.499220057E+00 -0.557060572E+00
     4
 # iter = 29000  time[fs]=29.00000
   C -0.149231202E+01  0.589420597E-01 -0.770161074E-02
   C  0.147843002E+01 -0.392069732E-01  0.186000205E-01
   H -0.814348010E+01 -0.794271362E+00 -0.451604376E+00
   H  0.813699946E+01  0.520865837E+00 -0.584545374E+00
     4
 # iter = 29500  time[fs]=29.50000
   C -0.155871827E+01  0.622180469E-01 -0.552004078E-02
   C  0.154290709E+01 -0.411309391E-01  0.216455674E-01
   H -0.851011849E+01 -0.829481326E+00 -0.467527515E+00
   H  0.849229156E+01  0.548454612E+00 -0.606456879E+00
     4
 # iter = 30000  time[fs]=30.00000
   C -0.162614088E+01  0.659068070E-01 -0.298753266E-02
   C  0.160903809E+01 -0.428349651E-01  0.249898623E-01
   H -0.887756330E+01 -0.863281214E+00 -0.481903898E+00
   H  0.885160303E+01  0.577904568E+00 -0.626847563E+00
     4
 # iter = 30500  time[fs]=30.50000
   C -0.169540576E+01  0.690672147E-01 -0.104045848E-02
   C  0.167597970E+01 -0.450466468E-01  0.278992462E-01
   H -0.925014211E+01 -0.900177978E+00 -0.499250996E+00
   H  0.921021079E+01  0.604665890E+00 -0.650241001E+00
     4
 # iter = 31000  time[fs]=31.00000
   C -0.176642656E+01  0.716819200E-01  0.308138727E-03
   C  0.174362094E+01 -0.477726106E-01  0.303616420E-01
   H -0.962773716E+01 -0.940214513E+00 -0.519621170E+00
   H  0.956788800E+01  0.628664468E+00 -0.676688110E+00
     4
 # iter = 31500  time[fs]=31.50000
   C -0.183850295E+01  0.743578173E-01  0.166905994E-02
   C  0.181234802E+01 -0.505324333E-01  0.328525638E-01
   H -0.100072313E+02 -0.980418082E+00 -0.540050233E+00
   H  0.992744954E+01  0.652850392E+00 -0.703218222E+00
     4
 # iter = 32000  time[fs]=32.00000
   C -0.191117552E+01  0.774700521E-01  0.342098410E-02
   C  0.188237483E+01 -0.530273149E-01  0.356663736E-01
   H -0.103866477E+02 -0.101894081E+01 -0.558697969E+00
   H  0.102906003E+02  0.679049788E+00 -0.727986696E+00
     4
 # iter = 32500  time[fs]=32.50000
   C -0.198453174E+01  0.808550145E-01  0.540349467E-02
   C  0.195350221E+01 -0.553798695E-01  0.386764326E-01
   H -0.107666332E+02 -0.105654440E+01 -0.576332931E+00
   H  0.106564451E+02  0.706477129E+00 -0.751762236E+00
     4
 # iter = 33000  time[fs]=33.00000
   C -0.205883649E+01  0.841789737E-01  0.728575458E-02
   C  0.202540499E+01 -0.578460901E-01  0.416230932E-01
   H -0.111486726E+02 -0.109481640E+01 -0.594548809E+00
   H  0.110232740E+02  0.733521806E+00 -0.776140170E+00
     4
 # iter = 33500  time[fs]=33.50000
   C -0.213412681E+01  0.873424730E-01  0.897093977E-02
   C  0.209794711E+01 -0.604993771E-01  0.444296331E-01
   H -0.115331295E+02 -0.113421347E+01 -0.613807857E+00
   H  0.113905214E+02  0.759707970E+00 -0.801582492E+00
     4
 # iter = 34000  time[fs]=34.00000
   C -0.221020724E+01  0.904843306E-01  0.106002686E-01
   C  0.217118402E+01 -0.632273645E-01  0.472053946E-01
   H -0.119192257E+02 -0.117404179E+01 -0.633421339E+00
   H  0.117587845E+02  0.785713962E+00 -0.827398290E+00
     4
 # iter = 34500  time[fs]=34.50000
   C -0.228689040E+01  0.937404264E-01  0.123118116E-01
   C  0.224517372E+01 -0.659203137E-01  0.500573575E-01
   H -0.123062068E+02 -0.121362373E+01 -0.652716269E+00
   H  0.121286529E+02  0.812203383E+00 -0.852912498E+00
     4
 # iter = 35000  time[fs]=35.00000
   C -0.236413360E+01  0.971065369E-01  0.141033463E-01
   C  0.231986908E+01 -0.685782332E-01  0.529829894E-01
   H -0.126940051E+02 -0.125296121E+01 -0.671698804E+00
   H  0.125000434E+02  0.839160404E+00 -0.878130439E+00
     4
 # iter = 35500  time[fs]=35.50000
   C -0.244197473E+01  0.100501944E+00  0.158959859E-01
   C  0.239516711E+01 -0.712611606E-01  0.559199405E-01
   H -0.130829304E+02 -0.129242778E+01 -0.690746365E+00
   H  0.128725073E+02  0.866198088E+00 -0.903429401E+00
     4
 # iter = 36000  time[fs]=36.00000
   C -0.252041925E+01  0.103882049E+00  0.176468103E-01
   C  0.247099646E+01 -0.740011634E-01  0.588340207E-01
   H -0.134731249E+02 -0.133222365E+01 -0.710062718E+00
   H  0.132457756E+02  0.893104186E+00 -0.929012758E+00
     4
 # iter = 36500  time[fs]=36.50000
   C -0.259941405E+01  0.107264109E+00  0.193746204E-01
   C  0.254733722E+01 -0.767822086E-01  0.617393117E-01
   H -0.138644374E+02 -0.137225103E+01 -0.729553348E+00
   H  0.136198837E+02  0.919965911E+00 -0.954785133E+00
     4
 # iter = 37000  time[fs]=37.00000
   C -0.267889466E+01  0.110679700E+00  0.211124123E-01
   C  0.262418340E+01 -0.795772766E-01  0.646610363E-01
   H -0.142566529E+02 -0.141234400E+01 -0.749055345E+00
   H  0.139949397E+02  0.946939566E+00 -0.980582680E+00
     4
 # iter = 37500  time[fs]=37.50000
   C -0.275882402E+01  0.114135656E+00  0.228683301E-01
   C  0.270151221E+01 -0.823788535E-01  0.676050500E-01
   H -0.146496810E+02 -0.145245734E+01 -0.768526281E+00
   H  0.143709359E+02  0.974061292E+00 -0.100636229E+01
     4
 # iter = 38000  time[fs]=38.00000
   C -0.283918792E+01  0.117618363E+00  0.246299675E-01
   C  0.277928713E+01 -0.851955632E-01  0.705611963E-01
   H -0.150435347E+02 -0.149264567E+01 -0.788023368E+00
   H  0.147477679E+02  0.100126788E+01 -0.103218069E+01
     4
 # iter = 38500  time[fs]=38.50000
   C -0.291997248E+01  0.121116029E+00  0.263866508E-01
   C  0.285747508E+01 -0.880347534E-01  0.735207088E-01
   H -0.154382220E+02 -0.153295564E+01 -0.807595641E+00
   H  0.151253435E+02  0.102850475E+01 -0.105808647E+01
     4
 # iter = 39000  time[fs]=39.00000
   C -0.300115462E+01  0.124628030E+00  0.281387922E-01
   C  0.293605356E+01 -0.908951816E-01  0.764835146E-01
   H -0.158337005E+02 -0.157338061E+01 -0.827238684E+00
   H  0.155036268E+02  0.105577125E+01 -0.108407470E+01
     4
 # iter = 39500  time[fs]=39.50000
   C -0.308270807E+01  0.128158705E+00  0.298916913E-01
   C  0.301500560E+01 -0.937718514E-01  0.794533885E-01
   H -0.162299072E+02 -0.161389061E+01 -0.846924605E+00
   H  0.158826084E+02  0.108309059E+01 -0.111011696E+01
     4
 # iter = 40000  time[fs]=40.00000
   C -0.316461090E+01  0.131709686E+00  0.316478721E-01
   C  0.309431361E+01 -0.966619924E-01  0.824319648E-01
   H -0.166267951E+02 -0.165446941E+01 -0.866639090E+00
   H  0.162622679E+02  0.111047271E+01 -0.113619847E+01
     4
 # iter = 40500  time[fs]=40.50000
   C -0.324684623E+01  0.135278981E+00  0.334061731E-01
   C  0.317395854E+01 -0.995657671E-01  0.854180232E-01
   H -0.170243372E+02 -0.169511886E+01 -0.886385796E+00
   H  0.166425691E+02  0.113790984E+01 -0.116232245E+01
     4
 # iter = 41000  time[fs]=41.00000
   C -0.332939906E+01  0.138864075E+00  0.351648527E-01
   C  0.325392219E+01 -0.102483839E+00  0.884099128E-01
   H -0.174225117E+02 -0.173584386E+01 -0.906171313E+00
   H  0.170234752E+02  0.116539154E+01 -0.118849512E+01
     4
 # iter = 41500  time[fs]=41.50000
   C -0.341225419E+01  0.142463868E+00  0.369235328E-01
   C  0.333418859E+01 -0.105415853E+00  0.914070685E-01
   H -0.178212921E+02 -0.177664294E+01 -0.925995746E+00
   H  0.174049577E+02  0.119291410E+01 -0.121471620E+01
     4
 # iter = 42000  time[fs]=42.00000
   C -0.349539656E+01  0.146078233E+00  0.386827611E-01
   C  0.341474356E+01 -0.108360770E+00  0.944096667E-01
   H -0.182206494E+02 -0.181751036E+01 -0.945854831E+00
   H  0.177869944E+02  0.122047841E+01 -0.124098107E+01
     4
 # iter = 42500  time[fs]=42.50000
   C -0.357881220E+01  0.149706952E+00  0.404429497E-01
   C  0.349557382E+01 -0.111317695E+00  0.974177948E-01
   H -0.186205566E+02 -0.185844122E+01 -0.965745059E+00
   H  0.181695638E+02  0.124808484E+01 -0.126728586E+01
     4
 # iter = 43000  time[fs]=43.00000
   C -0.366248851E+01  0.153349390E+00  0.422040550E-01
   C  0.357666661E+01 -0.114286126E+00  0.100431200E+00
   H -0.190209909E+02 -0.189943300E+01 -0.985665212E+00
   H  0.185526439E+02  0.127573162E+01 -0.129362905E+01
     4
 # iter = 43500  time[fs]=43.50000
   C -0.374641386E+01  0.157004790E+00  0.439658722E-01
   C  0.365800987E+01 -0.117265717E+00  0.103449518E+00
   H -0.194219312E+02 -0.194048411E+01 -0.100561494E+01
   H  0.189362130E+02  0.130341631E+01 -0.132000997E+01
     4
 # iter = 44000  time[fs]=44.00000
   C -0.383057725E+01  0.160672535E+00  0.457283056E-01
   C  0.373959240E+01 -0.120256066E+00  0.106472481E+00
   H -0.198233576E+02 -0.198159260E+01 -0.102559343E+01
   H  0.193202512E+02  0.133113707E+01 -0.134642753E+01
     4
 # iter = 44500  time[fs]=44.50000
   C -0.391496827E+01  0.164352156E+00  0.474913745E-01
   C  0.382140376E+01 -0.123256711E+00  0.109499927E+00
   H -0.202252505E+02 -0.202275608E+01 -0.104559940E+01
   H  0.197047403E+02  0.135889272E+01 -0.137288016E+01
     4
 # iter = 45000  time[fs]=45.00000
   C -0.399957713E+01  0.168043224E+00  0.492551098E-01
   C  0.390343419E+01 -0.126267206E+00  0.112531710E+00
   H -0.206275917E+02 -0.206397224E+01 -0.106563157E+01
   H  0.200896633E+02  0.138668217E+01 -0.139936633E+01
     4
 # iter = 45500  time[fs]=45.50000
   C -0.408439468E+01  0.171745300E+00  0.510195041E-01
   C  0.398567447E+01 -0.129287156E+00  0.115567665E+00
   H -0.210303638E+02 -0.210523907E+01 -0.108568891E+01
   H  0.204750038E+02  0.141450426E+01 -0.142588476E+01
     4
 # iter = 46000  time[fs]=46.00000
   C -0.416941232E+01  0.175457945E+00  0.527845286E-01
   C  0.406811593E+01 -0.132316208E+00  0.118607623E+00
   H -0.214335507E+02 -0.214655478E+01 -0.110577053E+01
   H  0.208607463E+02  0.144235774E+01 -0.145243432E+01
     4
 # iter = 46500  time[fs]=46.50000
   C -0.425462194E+01  0.179180752E+00  0.545501595E-01
   C  0.415075038E+01 -0.135354023E+00  0.121651423E+00
   H -0.218371373E+02 -0.218791766E+01 -0.112587560E+01
   H  0.212468761E+02  0.147024149E+01 -0.147901396E+01
     4
 # iter = 47000  time[fs]=47.00000
   C -0.434001591E+01  0.182913342E+00  0.563163829E-01
   C  0.423357014E+01 -0.138400275E+00  0.124698923E+00
   H -0.222411090E+02 -0.222932601E+01 -0.114600328E+01
   H  0.216333794E+02  0.149815445E+01 -0.150562262E+01
     4
 # iter = 47500  time[fs]=47.50000
   C -0.442558700E+01  0.186655361E+00  0.580831883E-01
   C  0.431656795E+01 -0.141454653E+00  0.127749990E+00
   H -0.226454520E+02 -0.227077826E+01 -0.116615275E+01
   H  0.220202429E+02  0.152609565E+01 -0.153225928E+01
     4
 # iter = 48000  time[fs]=48.00000
   C -0.451132840E+01  0.190406471E+00  0.598505633E-01
   C  0.439973694E+01 -0.144516863E+00  0.130804496E+00
   H -0.230501535E+02 -0.231227289E+01 -0.118632324E+01
   H  0.224074544E+02  0.155406416E+01 -0.155892298E+01
     4
 # iter = 48500  time[fs]=48.50000
   C -0.459723368E+01  0.194166349E+00  0.616184942E-01
   C  0.448307065E+01 -0.147586627E+00  0.133862319E+00
   H -0.234552009E+02 -0.235380847E+01 -0.120651405E+01
   H  0.227950018E+02  0.158205908E+01 -0.158561282E+01
     4
 # iter = 49000  time[fs]=49.00000
   C -0.468329673E+01  0.197934689E+00  0.633869674E-01
   C  0.456656292E+01 -0.150663683E+00  0.136923343E+00
   H -0.238605826E+02 -0.239538365E+01 -0.122672450E+01
   H  0.231828740E+02  0.161007955E+01 -0.161232794E+01
     4
 # iter = 49500  time[fs]=49.50000
   C -0.476951179E+01  0.201711202E+00  0.651559702E-01
   C  0.465020796E+01 -0.153747780E+00  0.139987457E+00
   H -0.242662875E+02 -0.243699714E+01 -0.124695393E+01
   H  0.235710603E+02  0.163812476E+01 -0.163906753E+01
     4
 # iter = 50000  time[fs]=50.00000
   C -0.485587339E+01  0.205495612E+00  0.669254908E-01
   C  0.473400026E+01 -0.156838682E+00  0.143054559E+00
   H -0.246723049E+02 -0.247864772E+01 -0.126720173E+01
   H  0.239595504E+02  0.166619392E+01 -0.166583082E+01
     4
 # iter = 50500  time[fs]=50.50000
   C -0.494237633E+01  0.209287657E+00  0.686955174E-01
   C  0.481793460E+01 -0.159936161E+00  0.146124549E+00
   H -0.250786247E+02 -0.252033420E+01 -0.128746732E+01
   H  0.243483346E+02  0.169428631E+01 -0.169261704E+01
     4
 # iter = 51000  time[fs]=51.00000
   C -0.502901569E+01  0.213087086E+00  0.704660387E-01
   C  0.490200601E+01 -0.163040002E+00  0.149197332E+00
   H -0.254852373E+02 -0.256205548E+01 -0.130775012E+01
   H  0.247374037E+02  0.172240122E+01 -0.171942550E+01
     4
 # iter = 51500  time[fs]=51.50000
   C -0.511578678E+01  0.216893663E+00  0.722370435E-01
   C  0.498620978E+01 -0.166150000E+00  0.152272818E+00
   H -0.258921335E+02 -0.260381048E+01 -0.132804962E+01
   H  0.251267489E+02  0.175053797E+01 -0.174625552E+01
     4
 # iter = 52000  time[fs]=52.00000
   C -0.520268516E+01  0.220707160E+00  0.740085210E-01
   C  0.507054145E+01 -0.169265959E+00  0.155350923E+00
   H -0.262993046E+02 -0.264559818E+01 -0.134836529E+01
   H  0.255163617E+02  0.177869591E+01 -0.177310645E+01
     4
 # iter = 52500  time[fs]=52.50000
   C -0.528970658E+01  0.224527361E+00  0.757804608E-01
   C  0.515499673E+01 -0.172387693E+00  0.158431565E+00
   H -0.267067422E+02 -0.268741762E+01 -0.136869665E+01
   H  0.259062340E+02  0.180687444E+01 -0.179997768E+01
     4
 # iter = 53000  time[fs]=53.00000
   C -0.537684701E+01  0.228354060E+00  0.775528528E-01
   C  0.523957159E+01 -0.175515023E+00  0.161514664E+00
   H -0.271144383E+02 -0.272926786E+01 -0.138904324E+01
   H  0.262963582E+02  0.183507295E+01 -0.182686860E+01
     4
 # iter = 53500  time[fs]=53.50000
   C -0.546410261E+01  0.232187059E+00  0.793256871E-01
   C  0.532426213E+01 -0.178647779E+00  0.164600148E+00
   H -0.275223852E+02 -0.277114801E+01 -0.140940461E+01
   H  0.266867268E+02  0.186329088E+01 -0.185377867E+01
     4
 # iter = 54000  time[fs]=54.00000
   C -0.555146970E+01  0.236026169E+00  0.810989541E-01
   C  0.540906469E+01 -0.181785799E+00  0.167687944E+00
   H -0.279305758E+02 -0.281305722E+01 -0.142978033E+01
   H  0.270773329E+02  0.189152769E+01 -0.188070732E+01
     4
 # iter = 54500  time[fs]=54.50000
   C -0.563894478E+01  0.239871211E+00  0.828726445E-01
   C  0.549397573E+01 -0.184928926E+00  0.170777986E+00
   H -0.283390028E+02 -0.285499467E+01 -0.145016999E+01
   H  0.274681697E+02  0.191978286E+01 -0.190765405E+01
     4
 # iter = 55000  time[fs]=55.00000
   C -0.572652453E+01  0.243722011E+00  0.846467494E-01
   C  0.557899190E+01 -0.188077011E+00  0.173870206E+00
   H -0.287476598E+02 -0.289695957E+01 -0.147057321E+01
   H  0.278592306E+02  0.194805589E+01 -0.193461835E+01
     4
 # iter = 55500  time[fs]=55.50000
   C -0.581420573E+01  0.247578403E+00  0.864212600E-01
   C  0.566410998E+01 -0.191229913E+00  0.176964544E+00
   H -0.291565401E+02 -0.293895118E+01 -0.149098961E+01
   H  0.282505096E+02  0.197634630E+01 -0.196159975E+01
     4
 # iter = 56000  time[fs]=56.00000
   C -0.590198534E+01  0.251440231E+00  0.881961678E-01
   C  0.574932691E+01 -0.194387493E+00  0.180060940E+00
   H -0.295656377E+02 -0.298096878E+01 -0.151141883E+01
   H  0.286420005E+02  0.200465363E+01 -0.198859779E+01
     4
 # iter = 56500  time[fs]=56.50000
   C -0.598986044E+01  0.255307340E+00  0.899714644E-01
   C  0.583463975E+01 -0.197549622E+00  0.183159336E+00
   H -0.299749467E+02 -0.302301166E+01 -0.153186052E+01
   H  0.290336978E+02  0.203297743E+01 -0.201561202E+01
     4
 # iter = 57000  time[fs]=57.00000
   C -0.607782824E+01  0.259179587E+00  0.917471420E-01
   C  0.592004568E+01 -0.200716173E+00  0.186259676E+00
   H -0.303844613E+02 -0.306507917E+01 -0.155231435E+01
   H  0.294255958E+02  0.206131729E+01 -0.204264203E+01
     4
 # iter = 57500  time[fs]=57.50000
   C -0.616588604E+01  0.263056830E+00  0.935231927E-01
   C  0.600554202E+01 -0.203887025E+00  0.189361910E+00
   H -0.307941761E+02 -0.310717066E+01 -0.157278001E+01
   H  0.298176894E+02  0.208967278E+01 -0.206968740E+01
     4
 # iter = 58000  time[fs]=58.00000
   C -0.625403130E+01  0.266938936E+00  0.952996089E-01
   C  0.609112618E+01 -0.207062063E+00  0.192465985E+00
   H -0.312040859E+02 -0.314928553E+01 -0.159325718E+01
   H  0.302099735E+02  0.211804352E+01 -0.209674774E+01
     4
 # iter = 58500  time[fs]=58.50000
   C -0.634226154E+01  0.270825775E+00  0.970763833E-01
   C  0.617679569E+01 -0.210241175E+00  0.195571853E+00
   H -0.316141857E+02 -0.319142317E+01 -0.161374557E+01
   H  0.306024431E+02  0.214642913E+01 -0.212382267E+01
     4
 # iter = 59000  time[fs]=59.00000
   C -0.643057440E+01  0.274717223E+00  0.988535087E-01
   C  0.626254818E+01 -0.213424254E+00  0.198679468E+00
   H -0.320244705E+02 -0.323358302E+01 -0.163424490E+01
   H  0.309950935E+02  0.217482925E+01 -0.215091184E+01
     4
 # iter = 59500  time[fs]=59.50000
   C -0.651896762E+01  0.278613161E+00  0.100630978E+00
   C  0.634838137E+01 -0.216611197E+00  0.201788784E+00
   H -0.324349357E+02 -0.327576452E+01 -0.165475489E+01
   H  0.313879204E+02  0.220324351E+01 -0.217801488E+01
     4
 # iter = 60000  time[fs]=60.00000
   C -0.660743903E+01  0.282513474E+00  0.102408785E+00
   C  0.643429306E+01 -0.219801906E+00  0.204899758E+00
   H -0.328455768E+02 -0.331796715E+01 -0.167527529E+01
   H  0.317809192E+02  0.223167158E+01 -0.220513147E+01
     4
 # iter = 60500  time[fs]=60.50000
   C -0.669598653E+01  0.286418052E+00  0.104186922E+00
   C  0.652028116E+01 -0.222996284E+00  0.208012348E+00
   H -0.332563895E+02 -0.336019041E+01 -0.169580583E+01
   H  0.321740858E+02  0.226011313E+01 -0.223226128E+01
     4
 # iter = 61000  time[fs]=61.00000
   C -0.678460811E+01  0.290326788E+00  0.105965384E+00
   C  0.660634365E+01 -0.226194240E+00  0.211126515E+00
   H -0.336673696E+02 -0.340243379E+01 -0.171634628E+01
   H  0.325674161E+02  0.228856785E+01 -0.225940399E+01
     4
 # iter = 61500  time[fs]=61.50000
   C -0.687330184E+01  0.294239579E+00  0.107744164E+00
   C  0.669247859E+01 -0.229395686E+00  0.214242220E+00
   H -0.340785130E+02 -0.344469682E+01 -0.173689639E+01
   H  0.329609062E+02  0.231703543E+01 -0.228655930E+01
     4
 # iter = 62000  time[fs]=62.00000
   C -0.696206586E+01  0.298156326E+00  0.109523256E+00
   C  0.677868410E+01 -0.232600536E+00  0.217359424E+00
   H -0.344898160E+02 -0.348697904E+01 -0.175745594E+01
   H  0.333545524E+02  0.234551558E+01 -0.231372692E+01
     4
 # iter = 62500  time[fs]=62.50000
   C -0.705089838E+01  0.302076935E+00  0.111302654E+00
   C  0.686495839E+01 -0.235808707E+00  0.220478093E+00
   H -0.349012747E+02 -0.352928002E+01 -0.177802472E+01
   H  0.337483510E+02  0.237400800E+01 -0.234090657E+01
     4
 # iter = 63000  time[fs]=63.00000
   C -0.713979767E+01  0.306001313E+00  0.113082352E+00
   C  0.695129971E+01 -0.239020121E+00  0.223598192E+00
   H -0.353128855E+02 -0.357159931E+01 -0.179860250E+01
   H  0.341422985E+02  0.240251243E+01 -0.236809796E+01
     4
 # iter = 63500  time[fs]=63.50000
   C -0.722876207E+01  0.309929371E+00  0.114862345E+00
   C  0.703770641E+01 -0.242234701E+00  0.226719687E+00
   H -0.357246450E+02 -0.361393652E+01 -0.181918908E+01
   H  0.345363915E+02  0.243102860E+01 -0.239530085E+01
     4
 # iter = 64000  time[fs]=64.00000
   C -0.731778998E+01  0.313861024E+00  0.116642628E+00
   C  0.712417687E+01 -0.245452374E+00  0.229842545E+00
   H -0.361365497E+02 -0.365629124E+01 -0.183978427E+01
   H  0.349306268E+02  0.245955624E+01 -0.242251497E+01
     4
 # iter = 64500  time[fs]=64.50000
   C -0.740687986E+01  0.317796188E+00  0.118423194E+00
   C  0.721070955E+01 -0.248673066E+00  0.232966737E+00
   H -0.365485964E+02 -0.369866309E+01 -0.186038787E+01
   H  0.353250011E+02  0.248809512E+01 -0.244974008E+01
     4
 # iter = 65000  time[fs]=65.00000
   C -0.749603021E+01  0.321734784E+00  0.120204040E+00
   C  0.729730293E+01 -0.251896711E+00  0.236092230E+00
   H -0.369607819E+02 -0.374105169E+01 -0.188099970E+01
   H  0.357195113E+02  0.251664499E+01 -0.247697593E+01
     4
 # iter = 65500  time[fs]=65.50000
   C -0.758523960E+01  0.325676735E+00  0.121985159E+00
   C  0.738395559E+01 -0.255123240E+00  0.239218997E+00
   H -0.373731032E+02 -0.378345667E+01 -0.190161958E+01
   H  0.361141546E+02  0.254520561E+01 -0.250422231E+01
     4
 # iter = 66000  time[fs]=66.00000
   C -0.767450664E+01  0.329621965E+00  0.123766548E+00
   C  0.747066611E+01 -0.258352589E+00  0.242347009E+00
   H -0.377855573E+02 -0.382587770E+01 -0.192224734E+01
   H  0.365089280E+02  0.257377676E+01 -0.253147897E+01
     4
 # iter = 66500  time[fs]=66.50000
   C -0.776382998E+01  0.333570403E+00  0.125548201E+00
   C  0.755743317E+01 -0.261584697E+00  0.245476239E+00
   H -0.381981414E+02 -0.386831443E+01 -0.194288280E+01
   H  0.369038288E+02  0.260235823E+01 -0.255874571E+01
     4
 # iter = 67000  time[fs]=67.00000
   C -0.785320835E+01  0.337521978E+00  0.127330113E+00
   C  0.764425544E+01 -0.264819502E+00  0.248606660E+00
   H -0.386108527E+02 -0.391076653E+01 -0.196352581E+01
   H  0.372988542E+02  0.263094979E+01 -0.258602232E+01
     4
 # iter = 67500  time[fs]=67.50000
   C -0.794264047E+01  0.341476622E+00  0.129112280E+00
   C  0.773113169E+01 -0.268056947E+00  0.251738247E+00
   H -0.390236885E+02 -0.395323368E+01 -0.198417620E+01
   H  0.376940017E+02  0.265955124E+01 -0.261330859E+01
     4
 # iter = 68000  time[fs]=68.00000
   C -0.803212514E+01  0.345434270E+00  0.130894698E+00
   C  0.781806069E+01 -0.271296975E+00  0.254870975E+00
   H -0.394366463E+02 -0.399571558E+01 -0.200483383E+01
   H  0.380892687E+02  0.268816238E+01 -0.264060433E+01
     4
 # iter = 68500  time[fs]=68.50000
   C -0.812166120E+01  0.349394859E+00  0.132677362E+00
   C  0.790504126E+01 -0.274539530E+00  0.258004821E+00
   H -0.398497234E+02 -0.403821192E+01 -0.202549855E+01
   H  0.384846527E+02  0.271678302E+01 -0.266790934E+01
     4
 # iter = 69000  time[fs]=69.00000
   C -0.821124750E+01  0.353358326E+00  0.134460268E+00
   C  0.799207226E+01 -0.277784560E+00  0.261139759E+00
   H -0.402629175E+02 -0.408072242E+01 -0.204617021E+01
   H  0.388801515E+02  0.274541297E+01 -0.269522344E+01
     4
 # iter = 69500  time[fs]=69.50000
   C -0.830088295E+01  0.357324612E+00  0.136243413E+00
   C  0.807915260E+01 -0.281032014E+00  0.264275770E+00
   H -0.406762261E+02 -0.412324680E+01 -0.206684867E+01
   H  0.392757626E+02  0.277405205E+01 -0.272254645E+01
     4
 # iter = 70000  time[fs]=70.00000
   C -0.839056649E+01  0.361293660E+00  0.138026791E+00
   C  0.816628121E+01 -0.284281841E+00  0.267412829E+00
   H -0.410896471E+02 -0.416578477E+01 -0.208753380E+01
   H  0.396714838E+02  0.280270007E+01 -0.274987819E+01
     4
 # iter = 70500  time[fs]=70.50000
   C -0.848029709E+01  0.365265412E+00  0.139810400E+00
   C  0.825345706E+01 -0.287533993E+00  0.270550917E+00
   H -0.415031781E+02 -0.420833608E+01 -0.210822547E+01
   H  0.400673131E+02  0.283135687E+01 -0.277721849E+01
     4
 # iter = 71000  time[fs]=71.00000
   C -0.857007375E+01  0.369239815E+00  0.141594234E+00
   C  0.834067914E+01 -0.290788424E+00  0.273690013E+00
   H -0.419168170E+02 -0.425090047E+01 -0.212892354E+01
   H  0.404632481E+02  0.286002228E+01 -0.280456719E+01
     4
 # iter = 71500  time[fs]=71.50000
   C -0.865989552E+01  0.373216816E+00  0.143378292E+00
   C  0.842794648E+01 -0.294045087E+00  0.276830096E+00
   H -0.423305616E+02 -0.429347768E+01 -0.214962791E+01
   H  0.408592870E+02  0.288869614E+01 -0.283192413E+01
     4
 # iter = 72000  time[fs]=72.00000
   C -0.874976145E+01  0.377196363E+00  0.145162568E+00
   C  0.851525815E+01 -0.297303939E+00  0.279971148E+00
   H -0.427444101E+02 -0.433606748E+01 -0.217033843E+01
   H  0.412554277E+02  0.291737828E+01 -0.285928915E+01
     4
 # iter = 72500  time[fs]=72.50000
   C -0.883967063E+01  0.381178407E+00  0.146947059E+00
   C  0.860261323E+01 -0.300564936E+00  0.283113149E+00
   H -0.431583603E+02 -0.437866962E+01 -0.219105501E+01
   H  0.416516683E+02  0.294606856E+01 -0.288666211E+01
     4
 # iter = 73000  time[fs]=73.00000
   C -0.892962219E+01  0.385162899E+00  0.148731763E+00
   C  0.869001084E+01 -0.303828037E+00  0.286256082E+00
   H -0.435724103E+02 -0.442128388E+01 -0.221177753E+01
   H  0.420480068E+02  0.297476682E+01 -0.291404284E+01
     4
 # iter = 73500  time[fs]=73.50000
   C -0.901961527E+01  0.389149793E+00  0.150516675E+00
   C  0.877745013E+01 -0.307093202E+00  0.289399928E+00
   H -0.439865583E+02 -0.446391003E+01 -0.223250586E+01
   H  0.424444415E+02  0.300347293E+01 -0.294143122E+01
     4
 # iter = 74000  time[fs]=74.00000
   C -0.910964904E+01  0.393139042E+00  0.152301793E+00
   C  0.886493025E+01 -0.310360390E+00  0.292544670E+00
   H -0.444008025E+02 -0.450654786E+01 -0.225323992E+01
   H  0.428409707E+02  0.303218673E+01 -0.296882709E+01
     4
 # iter = 74500  time[fs]=74.50000
   C -0.919972271E+01  0.397130602E+00  0.154087112E+00
   C  0.895245040E+01 -0.313629565E+00  0.295690292E+00
   H -0.448151410E+02 -0.454919716E+01 -0.227397959E+01
   H  0.432375924E+02  0.306090809E+01 -0.299623033E+01
     4
 # iter = 75000  time[fs]=75.00000
   C -0.928983547E+01  0.401124430E+00  0.155872630E+00
   C  0.904000979E+01 -0.316900688E+00  0.298836777E+00
   H -0.452295721E+02 -0.459185771E+01 -0.229472477E+01
   H  0.436343052E+02  0.308963687E+01 -0.302364081E+01
     4
 # iter = 75500  time[fs]=75.50000
   C -0.937998659E+01  0.405120484E+00  0.157658344E+00
   C  0.912760767E+01 -0.320173724E+00  0.301984109E+00
   H -0.456440943E+02 -0.463452932E+01 -0.231547536E+01
   H  0.440311073E+02  0.311837295E+01 -0.305105839E+01
     4
 # iter = 76000  time[fs]=76.00000
   C -0.947017531E+01  0.409118724E+00  0.159444251E+00
   C  0.921524330E+01 -0.323448637E+00  0.305132274E+00
   H -0.460587057E+02 -0.467721179E+01 -0.233623127E+01
   H  0.444279971E+02  0.314711620E+01 -0.307848295E+01
     4
 # iter = 76500  time[fs]=76.50000
   C -0.956040093E+01  0.413119109E+00  0.161230348E+00
   C  0.930291594E+01 -0.326725393E+00  0.308281255E+00
   H -0.464734050E+02 -0.471990494E+01 -0.235699240E+01
   H  0.448249731E+02  0.317586649E+01 -0.310591436E+01
     4
 # iter = 77000  time[fs]=77.00000
   C -0.965066274E+01  0.417121601E+00  0.163016631E+00
   C  0.939062491E+01 -0.330003959E+00  0.311431039E+00
   H -0.468881904E+02 -0.476260857E+01 -0.237775867E+01
   H  0.452220338E+02  0.320462371E+01 -0.313335252E+01
     4
 # iter = 77500  time[fs]=77.50000
   C -0.974096007E+01  0.421126162E+00  0.164803099E+00
   C  0.947836951E+01 -0.333284302E+00  0.314581610E+00
   H -0.473030605E+02 -0.480532251E+01 -0.239852997E+01
   H  0.456191778E+02  0.323338772E+01 -0.316079730E+01
     4
 # iter = 78000  time[fs]=78.00000
   C -0.983129226E+01  0.425132756E+00  0.166589748E+00
   C  0.956614910E+01 -0.336566391E+00  0.317732956E+00
   H -0.477180138E+02 -0.484804658E+01 -0.241930624E+01
   H  0.460164035E+02  0.326215843E+01 -0.318824859E+01
     4
 # iter = 78500  time[fs]=78.50000
   C -0.992165867E+01  0.429141347E+00  0.168376576E+00
   C  0.965396303E+01 -0.339850195E+00  0.320885063E+00
   H -0.481330490E+02 -0.489078061E+01 -0.244008737E+01
   H  0.464137095E+02  0.329093572E+01 -0.321570628E+01
     4
 # iter = 79000  time[fs]=79.00000
   C -0.100120587E+02  0.433151900E+00  0.170163579E+00
   C  0.974181066E+01 -0.343135685E+00  0.324037917E+00
   H -0.485481645E+02 -0.493352443E+01 -0.246087329E+01
   H  0.468110946E+02  0.331971948E+01 -0.324317027E+01
     4
 # iter = 79500  time[fs]=79.50000
   C -0.101024917E+02  0.437164381E+00  0.171950756E+00
   C  0.982969140E+01 -0.346422831E+00  0.327191505E+00
   H -0.489633591E+02 -0.497627789E+01 -0.248166392E+01
   H  0.472085574E+02  0.334850960E+01 -0.327064044E+01
     4
 # iter = 80000  time[fs]=80.00000
   C -0.101929570E+02  0.441178757E+00  0.173738105E+00
   C  0.991760464E+01 -0.349711604E+00  0.330345816E+00
   H -0.493786314E+02 -0.501904081E+01 -0.250245918E+01
   H  0.476060965E+02  0.337730598E+01 -0.329811671E+01
