     4
 # iter = 25000  time[fs]=25.00000
   C -0.980761958E+00  0.127147240E-01 -0.220872934E-01
   C  0.102239845E+01 -0.527848809E-02 -0.181526435E-01
   H -0.526568997E+01  0.734431604E-01  0.619364399E+00
   H  0.540484120E+01  0.336310779E+00 -0.683782413E+00
     4
 # iter = 25500  time[fs]=25.50000
   C -0.102815783E+01  0.110606526E-01 -0.268281559E-01
   C  0.106632523E+01 -0.778184261E-02 -0.174158863E-01
   H -0.560880602E+01  0.689910053E-01  0.649091561E+00
   H  0.571441123E+01  0.349221518E+00 -0.733915141E+00
     4
 # iter = 26000  time[fs]=26.00000
   C -0.107954397E+01  0.840758070E-02 -0.326289830E-01
   C  0.111230258E+01 -0.112841577E-01 -0.175854389E-01
   H -0.596282711E+01  0.591937446E-01  0.674143846E+00
   H  0.602377614E+01  0.357066517E+00 -0.790164080E+00
     4
 # iter = 26500  time[fs]=26.50000
   C -0.113164356E+01  0.778137113E-02 -0.364641184E-01
   C  0.116289672E+01 -0.129556328E-01 -0.158333283E-01
   H -0.631102859E+01  0.601254645E-01  0.710514995E+00
   H  0.634849499E+01  0.375903568E+00 -0.836366678E+00
     4
 # iter = 27000  time[fs]=27.00000
   C -0.118407347E+01  0.933061674E-02 -0.381845907E-01
   C  0.121800938E+01 -0.126523959E-01 -0.120183937E-01
   H -0.665208607E+01  0.725760322E-01  0.758929360E+00
   H  0.668889006E+01  0.406498487E+00 -0.871663620E+00
     4
 # iter = 27500  time[fs]=27.50000
   C -0.123887015E+01  0.108021843E-01 -0.400426723E-01
   C  0.127532181E+01 -0.124726344E-01 -0.824217359E-02
   H -0.699752730E+01  0.845754275E-01  0.807363060E+00
   H  0.703256560E+01  0.436851187E+00 -0.907971241E+00
     4
 # iter = 28000  time[fs]=28.00000
   C -0.129743020E+01  0.106015946E-01 -0.436314478E-01
   C  0.133314891E+01 -0.139002679E-01 -0.599216925E-02
   H -0.735544074E+01  0.876537997E-01  0.847300054E+00
   H  0.737068527E+01  0.458466990E+00 -0.953711788E+00
     4
 # iter = 28500  time[fs]=28.50000
   C -0.135893149E+01  0.937163817E-02 -0.483062554E-01
   C  0.139191097E+01 -0.163315897E-01 -0.466825892E-02
   H -0.772206934E+01  0.852299371E-01  0.882118357E+00
   H  0.770636427E+01  0.474750525E+00 -0.100541929E+01
     4
 # iter = 29000  time[fs]=29.00000
   C -0.142163337E+01  0.869083859E-02 -0.524864116E-01
   C  0.145291844E+01 -0.182899427E-01 -0.279736584E-02
   H -0.808872366E+01  0.856949831E-01  0.920173290E+00
   H  0.804773577E+01  0.494084206E+00 -0.105465848E+01
     4
 # iter = 29500  time[fs]=29.50000
   C -0.148484466E+01  0.910380778E-02 -0.556250384E-01
   C  0.151653304E+01 -0.192639244E-01  0.128301530E-03
   H -0.845224901E+01  0.919450884E-01  0.964330052E+00
   H  0.839746386E+01  0.519353434E+00 -0.109849685E+01
     4
 # iter = 30000  time[fs]=30.00000
   C -0.154919858E+01  0.984494578E-02 -0.584854494E-01
   C  0.158190866E+01 -0.199652241E-01  0.339345183E-02
   H -0.881648904E+01  0.999130114E-01  0.101049471E+01
   H  0.875126840E+01  0.546476981E+00 -0.114097314E+01
     4
 # iter = 30500  time[fs]=30.50000
   C -0.161542962E+01  0.100604100E-01 -0.619191968E-01
   C  0.164813001E+01 -0.211881645E-01  0.620025847E-02
   H -0.918578339E+01  0.105062624E+00  0.105410771E+01
   H  0.910442288E+01  0.570905614E+00 -0.118659863E+01
     4
 # iter = 31000  time[fs]=31.00000
   C -0.168344282E+01  0.973766317E-02 -0.659365341E-01
   C  0.171507860E+01 -0.229421548E-01  0.853596988E-02
   H -0.956002114E+01  0.107329324E+00  0.109508359E+01
   H  0.945669711E+01  0.592565610E+00 -0.123541345E+01
     4
 # iter = 31500  time[fs]=31.50000
   C -0.175258540E+01  0.943261347E-02 -0.699793093E-01
   C  0.178317688E+01 -0.247063115E-01  0.109182999E-01
   H -0.993608831E+01  0.109669658E+00  0.113636018E+01
   H  0.981090272E+01  0.614407299E+00 -0.128443746E+01
     4
 # iter = 32000  time[fs]=32.00000
   C -0.182242546E+01  0.948974106E-02 -0.737008762E-01
   C  0.185265946E+01 -0.261572582E-01  0.136676143E-01
   H -0.103120118E+02  0.113916123E+00  0.117975329E+01
   H  0.101687417E+02  0.638257059E+00 -0.133181745E+01
     4
 # iter = 32500  time[fs]=32.50000
   C -0.189303064E+01  0.976240892E-02 -0.772458034E-01
   C  0.192331113E+01 -0.274301287E-01  0.166459222E-01
   H -0.106884442E+02  0.119290613E+00  0.122446995E+01
   H  0.105293162E+02  0.663329681E+00 -0.137831430E+01
     4
 # iter = 33000  time[fs]=33.00000
   C -0.196463130E+01  0.994875350E-02 -0.809139866E-01
   C  0.199477937E+01 -0.288050796E-01  0.195703678E-01
   H -0.110668763E+02  0.124189868E+00  0.126889355E+01
   H  0.108909139E+02  0.688014880E+00 -0.142551617E+01
     4
 # iter = 33500  time[fs]=33.50000
   C -0.203725131E+01  0.996015631E-02 -0.847921738E-01
   C  0.206691732E+01 -0.303633974E-01  0.223571282E-01
   H -0.114476761E+02  0.128144075E+00  0.131254222E+01
   H  0.112529672E+02  0.711837079E+00 -0.147387860E+01
     4
 # iter = 34000  time[fs]=34.00000
   C -0.211070362E+01  0.992491316E-02 -0.887502959E-01
   C  0.213978654E+01 -0.319840591E-01  0.251248490E-01
   H -0.118300682E+02  0.131836331E+00  0.135608813E+01
   H  0.116160709E+02  0.735474833E+00 -0.152270485E+01
     4
 # iter = 34500  time[fs]=34.50000
   C -0.218480939E+01  0.996848703E-02 -0.926612146E-01
   C  0.221345124E+01 -0.335487957E-01  0.279895701E-01
   H -0.122133008E+02  0.135934556E+00  0.140018926E+01
   H  0.119808130E+02  0.759591937E+00 -0.157131453E+01
     4
 # iter = 35000  time[fs]=35.00000
   C -0.225952234E+01  0.100885536E-01 -0.965256768E-01
   C  0.228786116E+01 -0.350586946E-01  0.309481136E-01
   H -0.125973088E+02  0.140427293E+00  0.144482511E+01
   H  0.123471083E+02  0.784172763E+00 -0.161970809E+01
     4
 # iter = 35500  time[fs]=35.50000
   C -0.233487028E+01  0.102129684E-01 -0.100414343E+00
   C  0.236290511E+01 -0.365800925E-01  0.339321831E-01
   H -0.129824054E+02  0.144931873E+00  0.148960477E+01
   H  0.127145066E+02  0.808830574E+00 -0.166825829E+01
     4
 # iter = 36000  time[fs]=36.00000
   C -0.241085206E+01  0.103023796E-01 -0.104365169E+00
   C  0.243850635E+01 -0.381488040E-01  0.369041285E-01
   H -0.133687353E+02  0.149239886E+00  0.153431226E+01
   H  0.130827374E+02  0.833353303E+00 -0.171716439E+01
     4
 # iter = 36500  time[fs]=36.50000
   C -0.248741373E+01  0.103736900E-01 -0.108359940E+00
   C  0.251464402E+01 -0.397482175E-01  0.398788425E-01
   H -0.137561493E+02  0.153441898E+00  0.157903124E+01
   H  0.134518346E+02  0.857828323E+00 -0.176632718E+01
     4
 # iter = 37000  time[fs]=37.00000
   C -0.256449144E+01  0.104567554E-01 -0.112367568E+00
   C  0.259131240E+01 -0.413496992E-01  0.428833490E-01
   H -0.141444344E+02  0.157697265E+00  0.162391468E+01
   H  0.138219051E+02  0.882412085E+00 -0.181557933E+01
     4
 # iter = 37500  time[fs]=37.50000
   C -0.264204679E+01  0.105588079E-01 -0.116379662E+00
   C  0.266848743E+01 -0.429457877E-01  0.459236003E-01
   H -0.145335018E+02  0.162045024E+00  0.166899573E+01
   H  0.141929398E+02  0.907140870E+00 -0.186487447E+01
     4
 # iter = 38000  time[fs]=38.00000
   C -0.272006254E+01  0.106683729E-01 -0.120406608E+00
   C  0.274613006E+01 -0.445465331E-01  0.489881311E-01
   H -0.149233664E+02  0.166424724E+00  0.171420853E+01
   H  0.145648334E+02  0.931951607E+00 -0.191426632E+01
     4
 # iter = 38500  time[fs]=38.50000
   C -0.279852214E+01  0.107755687E-01 -0.124457264E+00
   C  0.282420496E+01 -0.461605480E-01  0.520670015E-01
   H -0.153140378E+02  0.170784337E+00  0.175949601E+01
   H  0.149374925E+02  0.956789839E+00 -0.196380066E+01
     4
 # iter = 39000  time[fs]=39.00000
   C -0.287740096E+01  0.108806271E-01 -0.128530439E+00
   C  0.290268828E+01 -0.477870513E-01  0.551597466E-01
   H -0.157054750E+02  0.175125557E+00  0.180485523E+01
   H  0.153108802E+02  0.981655028E+00 -0.201346996E+01
     4
 # iter = 39500  time[fs]=39.50000
   C -0.295667176E+01  0.109882443E-01 -0.132620529E+00
   C  0.298156214E+01 -0.494211352E-01  0.582701035E-01
   H -0.160976164E+02  0.179473780E+00  0.185030724E+01
   H  0.156849862E+02  0.100657050E+01 -0.206324337E+01
     4
 # iter = 40000  time[fs]=40.00000
   C -0.303631148E+01  0.111005989E-01 -0.136724508E+00
   C  0.306080799E+01 -0.510602789E-01  0.613994933E-01
   H -0.164904160E+02  0.183840978E+00  0.189586000E+01
   H  0.160597891E+02  0.103154630E+01 -0.211310384E+01
     4
 # iter = 40500  time[fs]=40.50000
   C -0.311630194E+01  0.112165212E-01 -0.140842741E+00
   C  0.314040563E+01 -0.527051195E-01  0.645462441E-01
   H -0.168838481E+02  0.188221299E+00  0.194150390E+01
   H  0.164352522E+02  0.105657475E+01 -0.216305250E+01
     4
 # iter = 41000  time[fs]=41.00000
   C -0.319662686E+01  0.113343218E-01 -0.144976165E+00
   C  0.322033577E+01 -0.543568096E-01  0.677082291E-01
   H -0.172778920E+02  0.192606098E+00  0.198722680E+01
   H  0.168113375E+02  0.108164550E+01 -0.221309356E+01
     4
 # iter = 41500  time[fs]=41.50000
   C -0.327726997E+01  0.114535618E-01 -0.149124506E+00
   C  0.330058153E+01 -0.560153631E-01  0.708845171E-01
   H -0.176725221E+02  0.196993354E+00  0.203302340E+01
   H  0.171880161E+02  0.110675493E+01 -0.226322491E+01
     4
 # iter = 42000  time[fs]=42.00000
   C -0.335821531E+01  0.115746530E-01 -0.153286681E+00
   C  0.338112797E+01 -0.576800258E-01  0.740749972E-01
   H -0.180677104E+02  0.201385546E+00  0.207889311E+01
   H  0.175652650E+02  0.113190402E+01 -0.231344016E+01
     4
 # iter = 42500  time[fs]=42.50000
   C -0.343944807E+01  0.116978900E-01 -0.157461762E+00
   C  0.346196106E+01 -0.593501761E-01  0.772794749E-01
   H -0.184634308E+02  0.205784510E+00  0.212483490E+01
   H  0.179430621E+02  0.115709320E+01 -0.236373383E+01
     4
 # iter = 43000  time[fs]=43.00000
   C -0.352095485E+01  0.118231585E-01 -0.161649265E+00
   C  0.354306735E+01 -0.610255961E-01  0.804973975E-01
   H -0.188596611E+02  0.210189886E+00  0.217084572E+01
   H  0.183213846E+02  0.118232078E+01 -0.241410284E+01
     4
 # iter = 43500  time[fs]=43.50000
   C -0.360272323E+01  0.119502031E-01 -0.165848880E+00
   C  0.362443414E+01 -0.627062195E-01  0.837281030E-01
   H -0.192563811E+02  0.214600549E+00  0.221692190E+01
   H  0.187002105E+02  0.120758440E+01 -0.246454508E+01
     4
 # iter = 44000  time[fs]=44.00000
   C -0.368474153E+01  0.120788721E-01 -0.170060222E+00
   C  0.370604962E+01 -0.643919014E-01  0.869710479E-01
   H -0.196535716E+02  0.219015910E+00  0.226306046E+01
   H  0.190795192E+02  0.123288228E+01 -0.251505809E+01
     4
 # iter = 44500  time[fs]=44.50000
   C -0.376699869E+01  0.122091238E-01 -0.174282828E+00
   C  0.378790282E+01 -0.660824114E-01  0.902258106E-01
   H -0.200512137E+02  0.223435948E+00  0.230925915E+01
   H  0.194592921E+02  0.125821329E+01 -0.256563902E+01
     4
 # iter = 45000  time[fs]=45.00000
   C -0.384948433E+01  0.123409310E-01 -0.178516244E+00
   C  0.386998346E+01 -0.677775215E-01  0.934920020E-01
   H -0.204492896E+02  0.227860708E+00  0.235551589E+01
   H  0.198395115E+02  0.128357642E+01 -0.261628511E+01
     4
 # iter = 45500  time[fs]=45.50000
   C -0.393218873E+01  0.124742355E-01 -0.182760074E+00
   C  0.395228186E+01 -0.694770469E-01  0.967692217E-01
   H -0.208477827E+02  0.232290055E+00  0.240182853E+01
   H  0.202201608E+02  0.130897055E+01 -0.266699391E+01
     4
 # iter = 46000  time[fs]=46.00000
   C -0.401510278E+01  0.126089631E-01 -0.187013961E+00
   C  0.403478891E+01 -0.711808313E-01  0.100057071E+00
   H -0.212466775E+02  0.236723760E+00  0.244819497E+01
   H  0.206012239E+02  0.133439449E+01 -0.271776323E+01
     4
 # iter = 46500  time[fs]=46.50000
   C -0.409821789E+01  0.127450473E-01 -0.191277561E+00
   C  0.411749603E+01 -0.728887240E-01  0.103355174E+00
   H -0.216459593E+02  0.241161624E+00  0.249461321E+01
   H  0.209826857E+02  0.135984717E+01 -0.276859097E+01
     4
 # iter = 47000  time[fs]=47.00000
   C -0.418152597E+01  0.128824338E-01 -0.195550540E+00
   C  0.420039514E+01 -0.746005741E-01  0.106663180E+00
   H -0.220456140E+02  0.245603502E+00  0.254108140E+01
   H  0.213645320E+02  0.138532758E+01 -0.281947507E+01
     4
 # iter = 47500  time[fs]=47.50000
   C -0.426501938E+01  0.130210741E-01 -0.199832576E+00
   C  0.428347864E+01 -0.763162365E-01  0.109980760E+00
   H -0.224456283E+02  0.250049271E+00  0.258759783E+01
   H  0.217467493E+02  0.141083480E+01 -0.287041361E+01
     4
 # iter = 48000  time[fs]=48.00000
   C -0.434869090E+01  0.131609204E-01 -0.204123366E+00
   C  0.436673934E+01 -0.780355754E-01  0.113307596E+00
   H -0.228459897E+02  0.254498805E+00  0.263416084E+01
   H  0.221293247E+02  0.143636793E+01 -0.292140472E+01
     4
 # iter = 48500  time[fs]=48.50000
   C -0.443253375E+01  0.133019259E-01 -0.208422621E+00
   C  0.445017045E+01 -0.797584633E-01  0.116643386E+00
   H -0.232466862E+02  0.258951974E+00  0.268076885E+01
   H  0.225122461E+02  0.146192613E+01 -0.297244667E+01
     4
 # iter = 49000  time[fs]=49.00000
   C -0.451654146E+01  0.134440463E-01 -0.212730068E+00
   C  0.453376556E+01 -0.814847793E-01  0.119987839E+00
   H -0.236477065E+02  0.263408656E+00  0.272742037E+01
   H  0.228955019E+02  0.148750856E+01 -0.302353780E+01
     4
 # iter = 49500  time[fs]=49.50000
   C -0.460070796E+01  0.135872401E-01 -0.217045442E+00
   C  0.461751858E+01 -0.832144081E-01  0.123340680E+00
   H -0.240490399E+02  0.267868735E+00  0.277411396E+01
   H  0.232790810E+02  0.151311446E+01 -0.307467652E+01
     4
 # iter = 50000  time[fs]=50.00000
   C -0.468502746E+01  0.137314684E-01 -0.221368495E+00
   C  0.470142376E+01 -0.849472397E-01  0.126701645E+00
   H -0.244506760E+02  0.272332104E+00  0.282084828E+01
   H  0.236629731E+02  0.153874310E+01 -0.312586134E+01
     4
 # iter = 50500  time[fs]=50.50000
   C -0.476949448E+01  0.138766939E-01 -0.225698986E+00
   C  0.478547564E+01 -0.866831694E-01  0.130070484E+00
   H -0.248526052E+02  0.276798659E+00  0.286762203E+01
   H  0.240471680E+02  0.156439375E+01 -0.317709081E+01
     4
 # iter = 51000  time[fs]=51.00000
   C -0.485410384E+01  0.140228815E-01 -0.230036687E+00
   C  0.486966905E+01 -0.884220978E-01  0.133446956E+00
   H -0.252548180E+02  0.281268302E+00  0.291443398E+01
   H  0.244316563E+02  0.159006576E+01 -0.322836356E+01
     4
 # iter = 51500  time[fs]=51.50000
   C -0.493885059E+01  0.141699974E-01 -0.234381378E+00
   C  0.495399906E+01 -0.901639298E-01  0.136830830E+00
   H -0.256573057E+02  0.285740938E+00  0.296128296E+01
   H  0.248164289E+02  0.161575848E+01 -0.327967827E+01
     4
 # iter = 52000  time[fs]=52.00000
   C -0.502373004E+01  0.143180099E-01 -0.238732851E+00
   C  0.503846101E+01 -0.919085749E-01  0.140221888E+00
   H -0.260600597E+02  0.290216476E+00  0.300816785E+01
   H  0.252014770E+02  0.164147130E+01 -0.333103371E+01
     4
 # iter = 52500  time[fs]=52.50000
   C -0.510873773E+01  0.144668887E-01 -0.243090905E+00
   C  0.512305045E+01 -0.936559467E-01  0.143619916E+00
   H -0.264630720E+02  0.294694830E+00  0.305508757E+01
   H  0.255867925E+02  0.166720363E+01 -0.338242866E+01
     4
 # iter = 53000  time[fs]=53.00000
   C -0.519386942E+01  0.146166048E-01 -0.247455349E+00
   C  0.520776314E+01 -0.954059624E-01  0.147024715E+00
   H -0.268663348E+02  0.299175918E+00  0.310204109E+01
   H  0.259723673E+02  0.169295490E+01 -0.343386199E+01
     4
 # iter = 53500  time[fs]=53.50000
   C -0.527912105E+01  0.147671309E-01 -0.251825998E+00
   C  0.529259506E+01 -0.971585433E-01  0.150436090E+00
   H -0.272698407E+02  0.303659661E+00  0.314902744E+01
   H  0.263581939E+02  0.171872457E+01 -0.348533259E+01
     4
 # iter = 54000  time[fs]=54.00000
   C -0.536448877E+01  0.149184407E-01 -0.256202677E+00
   C  0.537754236E+01 -0.989136137E-01  0.153853856E+00
   H -0.276735828E+02  0.308145983E+00  0.319604568E+01
   H  0.267442650E+02  0.174451214E+01 -0.353683941E+01
     4
 # iter = 54500  time[fs]=54.50000
   C -0.544996890E+01  0.150705092E-01 -0.260585215E+00
   C  0.546260139E+01 -0.100671101E+00  0.157277834E+00
   H -0.280775541E+02  0.312634811E+00  0.324309491E+01
   H  0.271305737E+02  0.177031711E+01 -0.358838146E+01
     4
 # iter = 55000  time[fs]=55.00000
   C -0.553555793E+01  0.152233125E-01 -0.264973452E+00
   C  0.554776864E+01 -0.102430937E+00  0.160707854E+00
   H -0.284817482E+02  0.317126077E+00  0.329017426E+01
   H  0.275171133E+02  0.179613899E+01 -0.363995775E+01
     4
 # iter = 55500  time[fs]=55.50000
   C -0.562125250E+01  0.153768280E-01 -0.269367230E+00
   C  0.563304077E+01 -0.104193054E+00  0.164143752E+00
   H -0.288861590E+02  0.321619713E+00  0.333728290E+01
   H  0.279038774E+02  0.182197734E+01 -0.369156736E+01
     4
 # iter = 56000  time[fs]=56.00000
   C -0.570704941E+01  0.155310337E-01 -0.273766401E+00
   C  0.571841459E+01 -0.105957390E+00  0.167585369E+00
   H -0.292907803E+02  0.326115656E+00  0.338442006E+01
   H  0.282908599E+02  0.184783172E+01 -0.374320941E+01
     4
 # iter = 56500  time[fs]=56.50000
   C -0.579294559E+01  0.156859089E-01 -0.278170820E+00
   C  0.580388706E+01 -0.107723883E+00  0.171032553E+00
   H -0.296956066E+02  0.330613844E+00  0.343158495E+01
   H  0.286780548E+02  0.187370170E+01 -0.379488303E+01
     4
 # iter = 57000  time[fs]=57.00000
   C -0.587893811E+01  0.158414337E-01 -0.282580349E+00
   C  0.588945524E+01 -0.109492474E+00  0.174485160E+00
   H -0.301006323E+02  0.335114217E+00  0.347877686E+01
   H  0.290654566E+02  0.189958689E+01 -0.384658741E+01
     4
 # iter = 57500  time[fs]=57.50000
   C -0.596502415E+01  0.159975890E-01 -0.286994855E+00
   C  0.597511635E+01 -0.111263107E+00  0.177943048E+00
   H -0.305058521E+02  0.339616720E+00  0.352599507E+01
   H  0.294530598E+02  0.192548689E+01 -0.389832174E+01
     4
 # iter = 58000  time[fs]=58.00000
   C -0.605120103E+01  0.161543565E-01 -0.291414211E+00
   C  0.606086770E+01 -0.113035729E+00  0.181406083E+00
   H -0.309112610E+02  0.344121297E+00  0.357323891E+01
   H  0.298408591E+02  0.195140132E+01 -0.395008528E+01
     4
 # iter = 58500  time[fs]=58.50000
   C -0.613746617E+01  0.163117187E-01 -0.295838291E+00
   C  0.614670673E+01 -0.114810287E+00  0.184874134E+00
   H -0.313168541E+02  0.348627897E+00  0.362050772E+01
   H  0.302288495E+02  0.197732984E+01 -0.400187728E+01
     4
 # iter = 59000  time[fs]=59.00000
   C -0.622381709E+01  0.164696589E-01 -0.300266979E+00
   C  0.623263098E+01 -0.116586731E+00  0.188347076E+00
   H -0.317226266E+02  0.353136467E+00  0.366780089E+01
   H  0.306170263E+02  0.200327208E+01 -0.405369705E+01
     4
 # iter = 59500  time[fs]=59.50000
   C -0.631025142E+01  0.166281608E-01 -0.304700158E+00
   C  0.631863808E+01 -0.118365014E+00  0.191824788E+00
   H -0.321285741E+02  0.357646961E+00  0.371511781E+01
   H  0.310053847E+02  0.202922772E+01 -0.410554389E+01
     4
 # iter = 60000  time[fs]=60.00000
   C -0.639676689E+01  0.167872092E-01 -0.309137720E+00
   C  0.640472576E+01 -0.120145088E+00  0.195307154E+00
   H -0.325346922E+02  0.362159330E+00  0.376245789E+01
   H  0.313939202E+02  0.205519643E+01 -0.415741716E+01
     4
 # iter = 60500  time[fs]=60.50000
   C -0.648336129E+01  0.169467890E-01 -0.313579557E+00
   C  0.649089186E+01 -0.121926910E+00  0.198794061E+00
   H -0.329409768E+02  0.366673529E+00  0.380982058E+01
   H  0.317826285E+02  0.208117790E+01 -0.420931623E+01
     4
 # iter = 61000  time[fs]=61.00000
   C -0.657003254E+01  0.171068860E-01 -0.318025567E+00
   C  0.657713427E+01 -0.123710437E+00  0.202285400E+00
   H -0.333474237E+02  0.371189515E+00  0.385720533E+01
   H  0.321715055E+02  0.210717183E+01 -0.426124048E+01
     4
 # iter = 61500  time[fs]=61.50000
   C -0.665677860E+01  0.172674866E-01 -0.322475650E+00
   C  0.666345098E+01 -0.125495626E+00  0.205781068E+00
   H -0.337540290E+02  0.375707245E+00  0.390461163E+01
   H  0.325605471E+02  0.213317793E+01 -0.431318932E+01
     4
 # iter = 62000  time[fs]=62.00000
   C -0.674359753E+01  0.174285774E-01 -0.326929712E+00
   C  0.674984007E+01 -0.127282439E+00  0.209280962E+00
   H -0.341607891E+02  0.380226679E+00  0.395203896E+01
   H  0.329497495E+02  0.215919592E+01 -0.436516219E+01
     4
 # iter = 62500  time[fs]=62.50000
   C -0.683048746E+01  0.175901459E-01 -0.331387659E+00
   C  0.683629966E+01 -0.129070836E+00  0.212784985E+00
   H -0.345677003E+02  0.384747778E+00  0.399948685E+01
   H  0.333391088E+02  0.218522553E+01 -0.441715853E+01
     4
 # iter = 63000  time[fs]=63.00000
   C -0.691744659E+01  0.177521798E-01 -0.335849402E+00
   C  0.692282796E+01 -0.130860781E+00  0.216293044E+00
   H -0.349747590E+02  0.389270503E+00  0.404695482E+01
   H  0.337286216E+02  0.221126650E+01 -0.446917783E+01
     4
 # iter = 63500  time[fs]=63.50000
   C -0.700447317E+01  0.179146673E-01 -0.340314856E+00
   C  0.700942325E+01 -0.132652237E+00  0.219805046E+00
   H -0.353819620E+02  0.393794818E+00  0.409444242E+01
   H  0.341182842E+02  0.223731857E+01 -0.452121955E+01
     4
 # iter = 64000  time[fs]=64.00000
   C -0.709156555E+01  0.180775972E-01 -0.344783935E+00
   C  0.709608386E+01 -0.134445170E+00  0.223320903E+00
   H -0.357893058E+02  0.398320688E+00  0.414194922E+01
   H  0.345080933E+02  0.226338150E+01 -0.457328321E+01
     4
 # iter = 64500  time[fs]=64.50000
   C -0.717872209E+01  0.182409583E-01 -0.349256561E+00
   C  0.718280819E+01 -0.136239547E+00  0.226840530E+00
   H -0.361967874E+02  0.402848077E+00  0.418947478E+01
   H  0.348980456E+02  0.228945506E+01 -0.462536833E+01
     4
 # iter = 65000  time[fs]=65.00000
   C -0.726594126E+01  0.184047403E-01 -0.353732654E+00
   C  0.726959469E+01 -0.138035334E+00  0.230363844E+00
   H -0.366044038E+02  0.407376954E+00  0.423701870E+01
   H  0.352881380E+02  0.231553901E+01 -0.467747444E+01
     4
 # iter = 65500  time[fs]=65.50000
   C -0.735322154E+01  0.185689330E-01 -0.358212139E+00
   C  0.735644187E+01 -0.139832501E+00  0.233890766E+00
   H -0.370121519E+02  0.411907285E+00  0.428458057E+01
   H  0.356783674E+02  0.234163314E+01 -0.472960110E+01
     4
 # iter = 66000  time[fs]=66.00000
   C -0.744056149E+01  0.187335265E-01 -0.362694943E+00
   C  0.744334829E+01 -0.141631017E+00  0.237421217E+00
   H -0.374200288E+02  0.416439039E+00  0.433216003E+01
   H  0.360687308E+02  0.236773722E+01 -0.478174786E+01
     4
 # iter = 66500  time[fs]=66.50000
   C -0.752795972E+01  0.188985114E-01 -0.367180995E+00
   C  0.753031255E+01 -0.143430854E+00  0.240955123E+00
   H -0.378280319E+02  0.420972188E+00  0.437975669E+01
   H  0.364592255E+02  0.239385105E+01 -0.483391431E+01
     4
 # iter = 67000  time[fs]=67.00000
   C -0.761541486E+01  0.190638785E-01 -0.371670227E+00
   C  0.761733332E+01 -0.145231982E+00  0.244492411E+00
   H -0.382361584E+02  0.425506701E+00  0.442737019E+01
   H  0.368498485E+02  0.241997443E+01 -0.488610003E+01
     4
 # iter = 67500  time[fs]=67.50000
   C -0.770292561E+01  0.192296190E-01 -0.376162570E+00
   C  0.770440930E+01 -0.147034374E+00  0.248033011E+00
   H -0.386444058E+02  0.430042549E+00  0.447500018E+01
   H  0.372405973E+02  0.244610716E+01 -0.493830464E+01
     4
 # iter = 68000  time[fs]=68.00000
   C -0.779049072E+01  0.193957243E-01 -0.380657962E+00
   C  0.779153923E+01 -0.148838003E+00  0.251576854E+00
   H -0.390527714E+02  0.434579707E+00  0.452264633E+01
   H  0.376314691E+02  0.247224906E+01 -0.499052774E+01
     4
 # iter = 68500  time[fs]=68.50000
   C -0.787810896E+01  0.195621862E-01 -0.385156340E+00
   C  0.787872190E+01 -0.150642844E+00  0.255123874E+00
   H -0.394612529E+02  0.439118146E+00  0.457030830E+01
   H  0.380224616E+02  0.249839993E+01 -0.504276897E+01
     4
 # iter = 69000  time[fs]=69.00000
   C -0.796577915E+01  0.197289967E-01 -0.389657642E+00
   C  0.796595614E+01 -0.152448872E+00  0.258674007E+00
   H -0.398698480E+02  0.443657842E+00  0.461798579E+01
   H  0.384135722E+02  0.252455961E+01 -0.509502795E+01
     4
 # iter = 69500  time[fs]=69.50000
   C -0.805350014E+01  0.198961481E-01 -0.394161810E+00
   C  0.805324080E+01 -0.154256062E+00  0.262227190E+00
   H -0.402785543E+02  0.448198769E+00  0.466567847E+01
   H  0.388047985E+02  0.255072791E+01 -0.514730435E+01
     4
 # iter = 70000  time[fs]=70.00000
   C -0.814127085E+01  0.200636329E-01 -0.398668787E+00
   C  0.814057480E+01 -0.156064391E+00  0.265783362E+00
   H -0.406873695E+02  0.452740903E+00  0.471338604E+01
   H  0.391961383E+02  0.257690467E+01 -0.519959782E+01
     4
 # iter = 70500  time[fs]=70.50000
   C -0.822909018E+01  0.202314438E-01 -0.403178517E+00
   C  0.822795706E+01 -0.157873836E+00  0.269342466E+00
   H -0.410962916E+02  0.457284220E+00  0.476110823E+01
   H  0.395875893E+02  0.260308972E+01 -0.525190803E+01
     4
 # iter = 71000  time[fs]=71.00000
   C -0.831695711E+01  0.203995739E-01 -0.407690946E+00
   C  0.831538656E+01 -0.159684375E+00  0.272904443E+00
   H -0.415053184E+02  0.461828698E+00  0.480884474E+01
   H  0.399791493E+02  0.262928291E+01 -0.530423465E+01
     4
 # iter = 71500  time[fs]=71.50000
   C -0.840487063E+01  0.205680163E-01 -0.412206022E+00
   C  0.840286230E+01 -0.161495986E+00  0.276469239E+00
   H -0.419144479E+02  0.466374314E+00  0.485659530E+01
   H  0.403708163E+02  0.265548409E+01 -0.535657739E+01
     4
 # iter = 72000  time[fs]=72.00000
   C -0.849282976E+01  0.207367645E-01 -0.416723695E+00
   C  0.849038331E+01 -0.163308649E+00  0.280036798E+00
   H -0.423236781E+02  0.470921046E+00  0.490435964E+01
   H  0.407625881E+02  0.268169309E+01 -0.540893592E+01
     4
 # iter = 72500  time[fs]=72.50000
   C -0.858083357E+01  0.209058121E-01 -0.421243914E+00
   C  0.857794865E+01 -0.165122343E+00  0.283607070E+00
   H -0.427330070E+02  0.475468874E+00  0.495213750E+01
   H  0.411544628E+02  0.270790979E+01 -0.546130996E+01
     4
 # iter = 73000  time[fs]=73.00000
   C -0.866888114E+01  0.210751529E-01 -0.425766631E+00
   C  0.866555741E+01 -0.166937049E+00  0.287180003E+00
   H -0.431424329E+02  0.480017778E+00  0.499992864E+01
   H  0.415464385E+02  0.273413402E+01 -0.551369922E+01
     4
 # iter = 73500  time[fs]=73.50000
   C -0.875697158E+01  0.212447808E-01 -0.430291801E+00
   C  0.875320871E+01 -0.168752747E+00  0.290755548E+00
   H -0.435519540E+02  0.484567736E+00  0.504773280E+01
   H  0.419385132E+02  0.276036567E+01 -0.556610342E+01
     4
 # iter = 74000  time[fs]=74.00000
   C -0.884510402E+01  0.214146902E-01 -0.434819377E+00
   C  0.884090170E+01 -0.170569418E+00  0.294333656E+00
   H -0.439615683E+02  0.489118731E+00  0.509554975E+01
   H  0.423306851E+02  0.278660459E+01 -0.561852229E+01
     4
 # iter = 74500  time[fs]=74.50000
   C -0.893327763E+01  0.215848752E-01 -0.439349315E+00
   C  0.892863553E+01 -0.172387046E+00  0.297914280E+00
   H -0.443712743E+02  0.493670742E+00  0.514337925E+01
   H  0.427229525E+02  0.281285064E+01 -0.567095557E+01
     4
 # iter = 75000  time[fs]=75.00000
   C -0.902149160E+01  0.217553305E-01 -0.443881572E+00
   C  0.901640942E+01 -0.174205611E+00  0.301497375E+00
   H -0.447810702E+02  0.498223753E+00  0.519122108E+01
   H  0.431153136E+02  0.283910372E+01 -0.572340299E+01
     4
 # iter = 75500  time[fs]=75.50000
   C -0.910974514E+01  0.219260507E-01 -0.448416107E+00
   C  0.910422256E+01 -0.176025097E+00  0.305082896E+00
   H -0.451909545E+02  0.502777744E+00  0.523907502E+01
   H  0.435077667E+02  0.286536368E+01 -0.577586431E+01
     4
 # iter = 76000  time[fs]=76.00000
   C -0.919803748E+01  0.220970307E-01 -0.452952878E+00
   C  0.919207420E+01 -0.177845488E+00  0.308670801E+00
   H -0.456009255E+02  0.507332699E+00  0.528694086E+01
   H  0.439003102E+02  0.289163042E+01 -0.582833929E+01
     4
 # iter = 76500  time[fs]=76.50000
   C -0.928636789E+01  0.222682654E-01 -0.457491846E+00
   C  0.927996360E+01 -0.179666767E+00  0.312261046E+00
   H -0.460109816E+02  0.511888601E+00  0.533481838E+01
   H  0.442929425E+02  0.291790381E+01 -0.588082768E+01
     4
 # iter = 77000  time[fs]=77.00000
   C -0.937473562E+01  0.224397499E-01 -0.462032972E+00
   C  0.936789004E+01 -0.181488917E+00  0.315853592E+00
   H -0.464211215E+02  0.516445433E+00  0.538270739E+01
   H  0.446856620E+02  0.294418373E+01 -0.593332926E+01
     4
 # iter = 77500  time[fs]=77.50000
   C -0.946313999E+01  0.226114795E-01 -0.466576219E+00
   C  0.945585282E+01 -0.183311925E+00  0.319448397E+00
   H -0.468313437E+02  0.521003180E+00  0.543060768E+01
   H  0.450784672E+02  0.297047009E+01 -0.598584379E+01
     4
 # iter = 78000  time[fs]=78.00000
   C -0.955158030E+01  0.227834495E-01 -0.471121549E+00
   C  0.954385127E+01 -0.185135775E+00  0.323045423E+00
   H -0.472416466E+02  0.525561825E+00  0.547851906E+01
   H  0.454713567E+02  0.299676276E+01 -0.603837107E+01
     4
 # iter = 78500  time[fs]=78.50000
   C -0.964005590E+01  0.229556556E-01 -0.475668928E+00
   C  0.963188472E+01 -0.186960452E+00  0.326644633E+00
   H -0.476520290E+02  0.530121354E+00  0.552644135E+01
   H  0.458643289E+02  0.302306164E+01 -0.609091087E+01
     4
 # iter = 79000  time[fs]=79.00000
   C -0.972856612E+01  0.231280932E-01 -0.480218320E+00
   C  0.971995252E+01 -0.188785941E+00  0.330245989E+00
   H -0.480624894E+02  0.534681751E+00  0.557437436E+01
   H  0.462573825E+02  0.304936664E+01 -0.614346298E+01
     4
 # iter = 79500  time[fs]=79.50000
   C -0.981711036E+01  0.233007582E-01 -0.484769691E+00
   C  0.980805406E+01 -0.190612231E+00  0.333849454E+00
   H -0.484730267E+02  0.539243003E+00  0.562231791E+01
   H  0.466505162E+02  0.307567764E+01 -0.619602721E+01
     4
 # iter = 80000  time[fs]=80.00000
   C -0.990568798E+01  0.234736465E-01 -0.489323008E+00
   C  0.989618872E+01 -0.192439306E+00  0.337454995E+00
   H -0.488836394E+02  0.543805094E+00  0.567027184E+01
   H  0.470437285E+02  0.310199455E+01 -0.624860335E+01
