     4
 # iter = 25000  time[fs]=25.00000
   C -0.101858378E+01  0.395115643E-03  0.123957197E-01
   C  0.948070683E+00  0.428523190E-01  0.278533050E-01
   H -0.535289451E+01 -0.174443594E+00  0.265699679E+00
   H  0.530490210E+01 -0.437721637E+00  0.144115536E+00
     4
 # iter = 25500  time[fs]=25.50000
   C -0.106724949E+01 -0.452430346E-03  0.109728085E-01
   C  0.986338627E+00  0.437585103E-01  0.266895318E-01
   H -0.569475783E+01 -0.193358091E+00  0.273849881E+00
   H  0.560967544E+01 -0.473748784E+00  0.143798533E+00
     4
 # iter = 26000  time[fs]=26.00000
   C -0.112063509E+01 -0.223236395E-02  0.865297341E-02
   C  0.102739135E+01  0.436879809E-01  0.244715524E-01
   H -0.604468255E+01 -0.217763574E+00  0.276720369E+00
   H  0.591168455E+01 -0.515422665E+00  0.138127783E+00
     4
 # iter = 26500  time[fs]=26.50000
   C -0.117585725E+01 -0.238287847E-02  0.799595073E-02
   C  0.107410995E+01  0.458433284E-01  0.244085133E-01
   H -0.638627905E+01 -0.231563786E+00  0.290382998E+00
   H  0.622675576E+01 -0.546623132E+00  0.143194097E+00
     4
 # iter = 27000  time[fs]=27.00000
   C -0.123247876E+01 -0.771867299E-03  0.913155688E-02
   C  0.112634168E+01  0.503752652E-01  0.266572172E-01
   H -0.671850388E+01 -0.233954706E+00  0.315622095E+00
   H  0.655544751E+01 -0.566532763E+00  0.159788989E+00
     4
 # iter = 27500  time[fs]=27.50000
   C -0.129211076E+01  0.704506627E-03  0.101612595E-01
   C  0.118140748E+01  0.548870170E-01  0.288265155E-01
   H -0.705312183E+01 -0.236898059E+00  0.340459902E+00
   H  0.688557290E+01 -0.587108663E+00  0.175932313E+00
     4
 # iter = 28000  time[fs]=28.00000
   C -0.135583284E+01  0.705756587E-03  0.974227205E-02
   C  0.123735143E+01  0.576812603E-01  0.292241853E-01
   H -0.739842526E+01 -0.248856201E+00  0.356420266E+00
   H  0.720847689E+01 -0.616808074E+00  0.183147014E+00
     4
 # iter = 28500  time[fs]=28.50000
   C -0.142286120E+01 -0.220105490E-03  0.842045377E-02
   C  0.129461611E+01  0.594350310E-01  0.285318336E-01
   H -0.775083493E+01 -0.266401515E+00  0.366918455E+00
   H  0.752743050E+01 -0.652192763E+00  0.184854649E+00
     4
 # iter = 29000  time[fs]=29.00000
   C -0.149164576E+01 -0.735462925E-03  0.753142176E-02
   C  0.135466019E+01  0.618187161E-01  0.284239529E-01
   H -0.810181652E+01 -0.281134030E+00  0.380343485E+00
   H  0.785070221E+01 -0.684850378E+00  0.189453258E+00
     4
 # iter = 29500  time[fs]=29.50000
   C -0.156153039E+01 -0.376021098E-03  0.753760826E-02
   C  0.141786659E+01  0.654060941E-01  0.294780359E-01
   H -0.844835018E+01 -0.290150517E+00  0.399589102E+00
   H  0.818107578E+01 -0.711869422E+00  0.199841601E+00
     4
 # iter = 30000  time[fs]=30.00000
   C -0.163298442E+01  0.215937766E-03  0.779500484E-02
   C  0.148324744E+01  0.693811146E-01  0.308813974E-01
   H -0.879439702E+01 -0.297512993E+00  0.420585115E+00
   H  0.851437771E+01 -0.737308455E+00  0.211949618E+00
     4
 # iter = 30500  time[fs]=30.50000
   C -0.170656964E+01  0.323232835E-03  0.758485060E-02
   C  0.154973921E+01  0.728344889E-01  0.317277854E-01
   H -0.914439987E+01 -0.307753181E+00  0.438792613E+00
   H  0.884597628E+01 -0.765696613E+00  0.221237888E+00
     4
 # iter = 31000  time[fs]=31.00000
   C -0.178215421E+01 -0.614158468E-04  0.689843416E-02
   C  0.161718750E+01  0.757500037E-01  0.320037151E-01
   H -0.949833917E+01 -0.320931338E+00  0.454144867E+00
   H  0.917572525E+01 -0.797089439E+00  0.227641771E+00
     4
 # iter = 31500  time[fs]=31.50000
   C -0.185914127E+01 -0.465706498E-03  0.620676384E-02
   C  0.168605570E+01  0.787149376E-01  0.322989189E-01
   H -0.985318213E+01 -0.334086682E+00  0.469596814E+00
   H  0.950651091E+01 -0.828520117E+00  0.234120003E+00
     4
 # iter = 32000  time[fs]=32.00000
   C -0.193712544E+01 -0.596111706E-03  0.580219522E-02
   C  0.175659582E+01  0.820924712E-01  0.329787929E-01
   H -0.102070279E+02 -0.345382951E+00  0.486979471E+00
   H  0.984010200E+01 -0.858147459E+00  0.242506497E+00
     4
 # iter = 32500  time[fs]=32.50000
   C -0.201612749E+01 -0.573971522E-03  0.556232500E-02
   C  0.182855021E+01  0.857248697E-01  0.338876088E-01
   H -0.105605938E+02 -0.355595074E+00  0.505513215E+00
   H  0.101756609E+02 -0.886743401E+00  0.252022688E+00
     4
 # iter = 33000  time[fs]=33.00000
   C -0.209630950E+01 -0.651907685E-03  0.523356796E-02
   C  0.190150673E+01  0.892898923E-01  0.347049442E-01
   H -0.109154280E+02 -0.366323544E+00  0.523593332E+00
   H  0.105115295E+02 -0.915906245E+00  0.261064241E+00
     4
 # iter = 33500  time[fs]=33.50000
   C -0.217766275E+01 -0.902733164E-03  0.474223985E-02
   C  0.197528866E+01  0.926917763E-01  0.353366844E-01
   H -0.112719509E+02 -0.378035611E+00  0.540748729E+00
   H  0.108471891E+02 -0.946100633E+00  0.269161031E+00
     4
 # iter = 34000  time[fs]=34.00000
   C -0.226000356E+01 -0.121633004E-02  0.419767066E-02
   C  0.204995754E+01  0.960651069E-01  0.359189102E-01
   H -0.116294336E+02 -0.390045767E+00  0.557661408E+00
   H  0.111832790E+02 -0.976637993E+00  0.276996646E+00
     4
 # iter = 34500  time[fs]=34.50000
   C -0.234315790E+01 -0.148513806E-02  0.370670693E-02
   C  0.212557909E+01  0.995416069E-01  0.365847056E-01
   H -0.119871669E+02 -0.401683884E+00  0.574998292E+00
   H  0.115204273E+02 -0.100684536E+01  0.285239483E+00
     4
 # iter = 35000  time[fs]=35.00000
   C -0.242706601E+01 -0.170962303E-02  0.326823507E-02
   C  0.220208976E+01  0.103117523E+00  0.373315584E-01
   H -0.123451242E+02 -0.412959432E+00  0.592746981E+00
   H  0.118585857E+02 -0.103673000E+01  0.293878100E+00
     4
 # iter = 35500  time[fs]=35.50000
   C -0.251173278E+01 -0.194932690E-02  0.282212449E-02
   C  0.227935759E+01  0.106715126E+00  0.380828733E-01
   H -0.127036537E+02 -0.424253287E+00  0.610523915E+00
   H  0.121973372E+02 -0.106667095E+01  0.302529581E+00
     4
 # iter = 36000  time[fs]=36.00000
   C -0.259714051E+01 -0.223622941E-02  0.233586015E-02
   C  0.235729046E+01  0.110291590E+00  0.387968619E-01
   H -0.130629319E+02 -0.435772211E+00  0.628119864E+00
   H  0.125364420E+02 -0.109687321E+01  0.310985376E+00
     4
 # iter = 36500  time[fs]=36.50000
   C -0.268322857E+01 -0.255492918E-02  0.182435611E-02
   C  0.243586045E+01  0.113863877E+00  0.394914384E-01
   H -0.134228389E+02 -0.447424107E+00  0.645624645E+00
   H  0.128759620E+02 -0.112724287E+01  0.319336110E+00
     4
 # iter = 37000  time[fs]=37.00000
   C -0.276992941E+01 -0.287918659E-02  0.131340762E-02
   C  0.251505738E+01  0.117462778E+00  0.401982668E-01
   H -0.137831883E+02 -0.459048198E+00  0.663196929E+00
   H  0.132160301E+02 -0.115761741E+01  0.327741245E+00
     4
 # iter = 37500  time[fs]=37.50000
   C -0.285719825E+01 -0.320194708E-02  0.809663395E-03
   C  0.259485069E+01  0.121095149E+00  0.409250069E-01
   H -0.141439159E+02 -0.470604143E+00  0.680875109E+00
   H  0.135566606E+02 -0.118795495E+01  0.336239841E+00
     4
 # iter = 38000  time[fs]=38.00000
   C -0.294500933E+01 -0.353202588E-02  0.303936947E-03
   C  0.267519316E+01  0.124748061E+00  0.416594704E-01
   H -0.145050590E+02 -0.482151186E+00  0.698598128E+00
   H  0.138977703E+02 -0.121831337E+01  0.344771400E+00
     4
 # iter = 38500  time[fs]=38.50000
   C -0.303333847E+01 -0.387696406E-02 -0.211652919E-03
   C  0.275604217E+01  0.128410335E+00  0.423911624E-01
   H -0.148666481E+02 -0.493740240E+00  0.716313397E+00
   H  0.142392859E+02 -0.124874228E+01  0.353283852E+00
     4
 # iter = 39000  time[fs]=39.00000
   C -0.312215558E+01 -0.423582882E-02 -0.736485412E-03
   C  0.283736841E+01  0.132081577E+00  0.431203226E-01
   H -0.152286616E+02 -0.505368567E+00  0.734022084E+00
   H  0.145811893E+02 -0.127923772E+01  0.361778882E+00
     4
 # iter = 39500  time[fs]=39.50000
   C -0.321142918E+01 -0.460397571E-02 -0.126620277E-02
   C  0.291914967E+01  0.135766182E+00  0.438519305E-01
   H -0.155910552E+02 -0.517009804E+00  0.751749094E+00
   H  0.149234875E+02 -0.130977215E+01  0.370281890E+00
     4
 # iter = 40000  time[fs]=40.00000
   C -0.330113203E+01 -0.497893773E-02 -0.179860176E-02
   C  0.300136319E+01  0.139465913E+00  0.445882954E-01
   H -0.159537998E+02 -0.528651074E+00  0.769505939E+00
   H  0.152661752E+02 -0.134033161E+01  0.378804847E+00
     4
 # iter = 40500  time[fs]=40.50000
   C -0.339124166E+01 -0.536112141E-02 -0.233433200E-02
   C  0.308398455E+01  0.143179025E+00  0.453281744E-01
   H -0.163168847E+02 -0.540297387E+00  0.787286333E+00
   H  0.156092305E+02 -0.137092010E+01  0.387341882E+00
     4
 # iter = 41000  time[fs]=41.00000
   C -0.348173780E+01 -0.575141463E-02 -0.287450571E-02
   C  0.316699052E+01  0.146903252E+00  0.460697749E-01
   H -0.166803036E+02 -0.551956597E+00  0.805081226E+00
   H  0.159526298E+02 -0.140154452E+01  0.395884333E+00
     4
 # iter = 41500  time[fs]=41.50000
   C -0.357260071E+01 -0.614968862E-02 -0.341920143E-02
   C  0.325036077E+01  0.150637692E+00  0.468126319E-01
   H -0.170440441E+02 -0.563629987E+00  0.822888212E+00
   H  0.162963567E+02 -0.143220525E+01  0.404430164E+00
     4
 # iter = 42000  time[fs]=42.00000
   C -0.366381135E+01 -0.655513192E-02 -0.396779957E-02
   C  0.333407729E+01  0.154382374E+00  0.475571837E-01
   H -0.174080903E+02 -0.575314385E+00  0.840709408E+00
   H  0.166404006E+02 -0.146289829E+01  0.412981841E+00
     4
 # iter = 42500  time[fs]=42.50000
   C -0.375535214E+01 -0.696706419E-02 -0.451979754E-02
   C  0.341812327E+01  0.158137231E+00  0.483037454E-01
   H -0.177724279E+02 -0.587007305E+00  0.858546309E+00
   H  0.169847508E+02 -0.149362034E+01  0.421541186E+00
     4
 # iter = 43000  time[fs]=43.00000
   C -0.384720701E+01 -0.738517984E-02 -0.507505474E-02
   C  0.350248263E+01  0.161901786E+00  0.490521983E-01
   H -0.181370454E+02 -0.598708493E+00  0.876398235E+00
   H  0.173293951E+02 -0.152437040E+01  0.430107826E+00
     4
 # iter = 43500  time[fs]=43.50000
   C -0.393936111E+01 -0.780931955E-02 -0.563356512E-02
   C  0.358714023E+01  0.165675436E+00  0.498022743E-01
   H -0.185019327E+02 -0.610418498E+00  0.894263753E+00
   H  0.176743214E+02 -0.155514829E+01  0.438680619E+00
     4
 # iter = 44000  time[fs]=44.00000
   C -0.403180053E+01 -0.823926083E-02 -0.619524876E-02
   C  0.367208205E+01  0.169457708E+00  0.505538163E-01
   H -0.188670800E+02 -0.622137366E+00  0.912141986E+00
   H  0.180195186E+02 -0.158595341E+01  0.447258962E+00
     4
 # iter = 44500  time[fs]=44.50000
   C -0.412451216E+01 -0.867471137E-02 -0.675994617E-02
   C  0.375729507E+01  0.173248267E+00  0.513067834E-01
   H -0.192324774E+02 -0.633864606E+00  0.930032640E+00
   H  0.183649769E+02 -0.161678461E+01  0.455842820E+00
     4
 # iter = 45000  time[fs]=45.00000
   C -0.421748374E+01 -0.911538736E-02 -0.732749739E-02
   C  0.384276713E+01  0.177046810E+00  0.520611509E-01
   H -0.195981154E+02 -0.645599689E+00  0.947935497E+00
   H  0.187106869E+02 -0.164764076E+01  0.464432222E+00
     4
 # iter = 45500  time[fs]=45.50000
   C -0.431070379E+01 -0.956105040E-02 -0.789777964E-02
   C  0.392848681E+01  0.180853017E+00  0.528168609E-01
   H -0.199639852E+02 -0.657342291E+00  0.965850179E+00
   H  0.190566396E+02 -0.167852096E+01  0.473027020E+00
     4
 # iter = 46000  time[fs]=46.00000
   C -0.440416157E+01 -0.100114932E-01 -0.847069372E-02
   C  0.401444338E+01  0.184666567E+00  0.535738391E-01
   H -0.203300788E+02 -0.669092208E+00  0.983776220E+00
   H  0.194028265E+02 -0.170942445E+01  0.481626969E+00
     4
 # iter = 46500  time[fs]=46.50000
   C -0.449784701E+01 -0.104665184E-01 -0.904614337E-02
   C  0.410062674E+01  0.188487161E+00  0.543320191E-01
   H -0.206963883E+02 -0.680849229E+00  0.100171320E+01
   H  0.197492394E+02 -0.174035052E+01  0.490231856E+00
     4
 # iter = 47000  time[fs]=47.00000
   C -0.459175061E+01 -0.109259334E-01 -0.962403068E-02
   C  0.418702744E+01  0.192314527E+00  0.550913477E-01
   H -0.210629063E+02 -0.692613108E+00  0.101966075E+01
   H  0.200958706E+02 -0.177129841E+01  0.498841523E+00
     4
 # iter = 47500  time[fs]=47.50000
   C -0.468586343E+01 -0.113895546E-01 -0.102042610E-01
   C  0.427363657E+01  0.196148408E+00  0.558517777E-01
   H -0.214296259E+02 -0.704383600E+00  0.103761856E+01
   H  0.204427128E+02 -0.180226742E+01  0.507455833E+00
     4
 # iter = 48000  time[fs]=48.00000
   C -0.478017707E+01 -0.118572108E-01 -0.107867465E-01
   C  0.436044574E+01  0.199988563E+00  0.566132627E-01
   H -0.217965402E+02 -0.716160478E+00  0.105558630E+01
   H  0.207897591E+02 -0.183325686E+01  0.516074645E+00
     4
 # iter = 48500  time[fs]=48.50000
   C -0.487468359E+01 -0.123287419E-01 -0.113714054E-01
   C  0.444744704E+01  0.203834760E+00  0.573757576E-01
   H -0.221636430E+02 -0.727943538E+00  0.107356367E+01
   H  0.211370029E+02 -0.186426610E+01  0.524697816E+00
     4
 # iter = 49000  time[fs]=49.00000
   C -0.496937549E+01 -0.128039969E-01 -0.119581603E-01
   C  0.453463300E+01  0.207686778E+00  0.581392195E-01
   H -0.225309282E+02 -0.739732585E+00  0.109155035E+01
   H  0.214844379E+02 -0.189529454E+01  0.533325211E+00
     4
 # iter = 49500  time[fs]=49.50000
   C -0.506424571E+01 -0.132828325E-01 -0.125469374E-01
   C  0.462199655E+01  0.211544412E+00  0.589036089E-01
   H -0.228983900E+02 -0.751527432E+00  0.110954607E+01
   H  0.218320581E+02 -0.192634160E+01  0.541956702E+00
     4
 # iter = 50000  time[fs]=50.00000
   C -0.515928754E+01 -0.137651133E-01 -0.131376667E-01
   C  0.470953103E+01  0.215407464E+00  0.596688884E-01
   H -0.232660229E+02 -0.763327898E+00  0.112755055E+01
   H  0.221798576E+02 -0.195740673E+01  0.550592167E+00
     4
 # iter = 50500  time[fs]=50.50000
   C -0.525449467E+01 -0.142507110E-01 -0.137302814E-01
   C  0.479723012E+01  0.219275749E+00  0.604350230E-01
   H -0.236338217E+02 -0.775133810E+00  0.114556354E+01
   H  0.225278312E+02 -0.198848939E+01  0.559231492E+00
     4
 # iter = 51000  time[fs]=51.00000
   C -0.534986107E+01 -0.147395043E-01 -0.143247186E-01
   C  0.488508784E+01  0.223149088E+00  0.612019792E-01
   H -0.240017814E+02 -0.786945005E+00  0.116358480E+01
   H  0.228759736E+02 -0.201958907E+01  0.567874564E+00
     4
 # iter = 51500  time[fs]=51.50000
   C -0.544538106E+01 -0.152313781E-01 -0.149209180E-01
   C  0.497309850E+01  0.227027314E+00  0.619697254E-01
   H -0.243698971E+02 -0.798761326E+00  0.118161407E+01
   H  0.232242797E+02 -0.205070531E+01  0.576521278E+00
     4
 # iter = 52000  time[fs]=52.00000
   C -0.554104924E+01 -0.157262232E-01 -0.155188224E-01
   C  0.506125672E+01  0.230910265E+00  0.627382319E-01
   H -0.247381643E+02 -0.810582624E+00  0.119965115E+01
   H  0.235727448E+02 -0.208183762E+01  0.585171530E+00
     4
 # iter = 52500  time[fs]=52.50000
   C -0.563686048E+01 -0.162239359E-01 -0.161183775E-01
   C  0.514955739E+01  0.234797790E+00  0.635074704E-01
   H -0.251065787E+02 -0.822408755E+00  0.121769581E+01
   H  0.239213643E+02 -0.211298556E+01  0.593825225E+00
     4
 # iter = 53000  time[fs]=53.00000
   C -0.573280990E+01 -0.167244176E-01 -0.167195311E-01
   C  0.523799565E+01  0.238689743E+00  0.642774141E-01
   H -0.254751359E+02 -0.834239583E+00  0.123574785E+01
   H  0.242701339E+02 -0.214414872E+01  0.602482266E+00
     4
 # iter = 53500  time[fs]=53.50000
   C -0.582889287E+01 -0.172275747E-01 -0.173222339E-01
   C  0.532656687E+01  0.242585984E+00  0.650480375E-01
   H -0.258438321E+02 -0.846074975E+00  0.125380705E+01
   H  0.246190494E+02 -0.217532667E+01  0.611142566E+00
     4
 # iter = 54000  time[fs]=54.00000
   C -0.592510497E+01 -0.177333179E-01 -0.179264384E-01
   C  0.541526666E+01  0.246486383E+00  0.658193165E-01
   H -0.262126633E+02 -0.857914807E+00  0.127187324E+01
   H  0.249681068E+02 -0.220651903E+01  0.619806036E+00
     4
 # iter = 54500  time[fs]=54.50000
   C -0.602144199E+01 -0.182415624E-01 -0.185320994E-01
   C  0.550409082E+01  0.250390811E+00  0.665912282E-01
   H -0.265816258E+02 -0.869758956E+00  0.128994623E+01
   H  0.253173021E+02 -0.223772541E+01  0.628472595E+00
     4
 # iter = 55000  time[fs]=55.00000
   C -0.611789992E+01 -0.187522270E-01 -0.191391738E-01
   C  0.559303534E+01  0.254299148E+00  0.673637508E-01
   H -0.269507162E+02 -0.881607307E+00  0.130802584E+01
   H  0.256666317E+02 -0.226894546E+01  0.637142162E+00
     4
 # iter = 55500  time[fs]=55.50000
   C -0.621447494E+01 -0.192652346E-01 -0.197476203E-01
   C  0.568209643E+01  0.258211279E+00  0.681368634E-01
   H -0.273199310E+02 -0.893459749E+00  0.132611190E+01
   H  0.260160920E+02 -0.230017883E+01  0.645814660E+00
     4
 # iter = 56000  time[fs]=56.00000
   C -0.631116340E+01 -0.197805116E-01 -0.203573993E-01
   C  0.577127044E+01  0.262127093E+00  0.689105463E-01
   H -0.276892668E+02 -0.905316175E+00  0.134420426E+01
   H  0.263656797E+02 -0.233142518E+01  0.654490016E+00
     4
 # iter = 56500  time[fs]=56.50000
   C -0.640796181E+01 -0.202979874E-01 -0.209684728E-01
   C  0.586055390E+01  0.266046484E+00  0.696847807E-01
   H -0.280587207E+02 -0.917176481E+00  0.136230274E+01
   H  0.267153914E+02 -0.236268418E+01  0.663168159E+00
     4
 # iter = 57000  time[fs]=57.00000
   C -0.650486683E+01 -0.208175950E-01 -0.215808047E-01
   C  0.594994348E+01  0.269969350E+00  0.704595487E-01
   H -0.284282896E+02 -0.929040570E+00  0.138040720E+01
   H  0.270652239E+02 -0.239395553E+01  0.671849020E+00
     4
 # iter = 57500  time[fs]=57.50000
   C -0.660187528E+01 -0.213392699E-01 -0.221943602E-01
   C  0.603943601E+01  0.273895595E+00  0.712348330E-01
   H -0.287979705E+02 -0.940908344E+00  0.139851750E+01
   H  0.274151743E+02 -0.242523893E+01  0.680532532E+00
     4
 # iter = 58000  time[fs]=58.00000
   C -0.669898412E+01 -0.218629507E-01 -0.228091057E-01
   C  0.612902845E+01  0.277825125E+00  0.720106173E-01
   H -0.291677606E+02 -0.952779714E+00  0.141663348E+01
   H  0.277652396E+02 -0.245653408E+01  0.689218633E+00
     4
 # iter = 58500  time[fs]=58.50000
   C -0.679619040E+01 -0.223885785E-01 -0.234250093E-01
   C  0.621871788E+01  0.281757851E+00  0.727868860E-01
   H -0.295376574E+02 -0.964654591E+00  0.143475503E+01
   H  0.281154170E+02 -0.248784071E+01  0.697907262E+00
     4
 # iter = 59000  time[fs]=59.00000
   C -0.689349135E+01 -0.229160968E-01 -0.240420402E-01
   C  0.630850152E+01  0.285693687E+00  0.735636241E-01
   H -0.299076580E+02 -0.976532889E+00  0.145288200E+01
   H  0.284657038E+02 -0.251915855E+01  0.706598357E+00
     4
 # iter = 59500  time[fs]=59.50000
   C -0.699088427E+01 -0.234454516E-01 -0.246601688E-01
   C  0.639837670E+01  0.289632549E+00  0.743408173E-01
   H -0.302777602E+02 -0.988414526E+00  0.147101428E+01
   H  0.288160972E+02 -0.255048734E+01  0.715291864E+00
     4
 # iter = 60000  time[fs]=60.00000
   C -0.708836660E+01 -0.239765911E-01 -0.252793667E-01
   C  0.648834085E+01  0.293574360E+00  0.751184520E-01
   H -0.306479613E+02 -0.100029942E+01  0.148915173E+01
   H  0.291665949E+02 -0.258182683E+01  0.723987726E+00
     4
 # iter = 60500  time[fs]=60.50000
   C -0.718593586E+01 -0.245094656E-01 -0.258996065E-01
   C  0.657839151E+01  0.297519042E+00  0.758965151E-01
   H -0.310182592E+02 -0.101218751E+01  0.150729424E+01
   H  0.295171944E+02 -0.261317677E+01  0.732685890E+00
     4
 # iter = 61000  time[fs]=61.00000
   C -0.728358969E+01 -0.250440272E-01 -0.265208620E-01
   C  0.666852633E+01  0.301466523E+00  0.766749940E-01
   H -0.313886515E+02 -0.102407870E+01  0.152544170E+01
   H  0.298678933E+02 -0.264453694E+01  0.741386305E+00
     4
 # iter = 61500  time[fs]=61.50000
   C -0.738132580E+01 -0.255802303E-01 -0.271431076E-01
   C  0.675874303E+01  0.305416731E+00  0.774538767E-01
   H -0.317591361E+02 -0.103597293E+01  0.154359399E+01
   H  0.302186893E+02 -0.267590710E+01  0.750088920E+00
     4
 # iter = 62000  time[fs]=62.00000
   C -0.747914202E+01 -0.261180306E-01 -0.277663191E-01
   C  0.684903943E+01  0.309369599E+00  0.782331516E-01
   H -0.321297109E+02 -0.104787013E+01  0.156175102E+01
   H  0.305695802E+02 -0.270728704E+01  0.758793688E+00
     4
 # iter = 62500  time[fs]=62.50000
   C -0.757703623E+01 -0.266573860E-01 -0.283904730E-01
   C  0.693941344E+01  0.313325061E+00  0.790128077E-01
   H -0.325003739E+02 -0.105977024E+01  0.157991267E+01
   H  0.309205640E+02 -0.273867654E+01  0.767500562E+00
     4
 # iter = 63000  time[fs]=63.00000
   C -0.767500641E+01 -0.271982556E-01 -0.290155464E-01
   C  0.702986304E+01  0.317283054E+00  0.797928344E-01
   H -0.328711231E+02 -0.107167318E+01  0.159807885E+01
   H  0.312716385E+02 -0.277007540E+01  0.776209497E+00
     4
 # iter = 63500  time[fs]=63.50000
   C -0.777305062E+01 -0.277406003E-01 -0.296415176E-01
   C  0.712038629E+01  0.321243517E+00  0.805732214E-01
   H -0.332419565E+02 -0.108357891E+01  0.161624947E+01
   H  0.316228018E+02 -0.280148343E+01  0.784920448E+00
     4
 # iter = 64000  time[fs]=64.00000
   C -0.787116697E+01 -0.282843823E-01 -0.302683655E-01
   C  0.721098133E+01  0.325206391E+00  0.813539590E-01
   H -0.336128724E+02 -0.109548735E+01  0.163442442E+01
   H  0.319740520E+02 -0.283290043E+01  0.793633375E+00
     4
 # iter = 64500  time[fs]=64.50000
   C -0.796935367E+01 -0.288295654E-01 -0.308960697E-01
   C  0.730164635E+01  0.329171620E+00  0.821350377E-01
   H -0.339838690E+02 -0.110739845E+01  0.165260362E+01
   H  0.323253871E+02 -0.286432621E+01  0.802348235E+00
     4
 # iter = 65000  time[fs]=65.00000
   C -0.806760897E+01 -0.293761145E-01 -0.315246104E-01
   C  0.739237962E+01  0.333139149E+00  0.829164485E-01
   H -0.343549446E+02 -0.111931215E+01  0.167078698E+01
   H  0.326768054E+02 -0.289576059E+01  0.811064990E+00
     4
 # iter = 65500  time[fs]=65.50000
   C -0.816593119E+01 -0.299239960E-01 -0.321539687E-01
   C  0.748317947E+01  0.337108925E+00  0.836981826E-01
   H -0.347260975E+02 -0.113122840E+01  0.168897441E+01
   H  0.330283052E+02 -0.292720340E+01  0.819783599E+00
     4
 # iter = 66000  time[fs]=66.00000
   C -0.826431872E+01 -0.304731772E-01 -0.327841262E-01
   C  0.757404428E+01  0.341080897E+00  0.844802316E-01
   H -0.350973261E+02 -0.114314715E+01  0.170716584E+01
   H  0.333798847E+02 -0.295865448E+01  0.828504027E+00
     4
 # iter = 66500  time[fs]=66.50000
   C -0.836276999E+01 -0.310236269E-01 -0.334150651E-01
   C  0.766497251E+01  0.345055015E+00  0.852625875E-01
   H -0.354686288E+02 -0.115506834E+01  0.172536118E+01
   H  0.337315423E+02 -0.299011364E+01  0.837226237E+00
     4
 # iter = 67000  time[fs]=67.00000
   C -0.846128349E+01 -0.315753147E-01 -0.340467683E-01
   C  0.775596264E+01  0.349031233E+00  0.860452425E-01
   H -0.358400041E+02 -0.116699193E+01  0.174356036E+01
   H  0.340832765E+02 -0.302158074E+01  0.845950193E+00
     4
 # iter = 67500  time[fs]=67.50000
   C -0.855985777E+01 -0.321282113E-01 -0.346792192E-01
   C  0.784701324E+01  0.353009503E+00  0.868281890E-01
   H -0.362114506E+02 -0.117891786E+01  0.176176330E+01
   H  0.344350856E+02 -0.305305562E+01  0.854675862E+00
     4
 # iter = 68000  time[fs]=68.00000
   C -0.865849143E+01 -0.326822887E-01 -0.353124015E-01
   C  0.793812289E+01  0.356989781E+00  0.876114199E-01
   H -0.365829668E+02 -0.119084609E+01  0.177996993E+01
   H  0.347869682E+02 -0.308453813E+01  0.863403210E+00
     4
 # iter = 68500  time[fs]=68.50000
   C -0.875718310E+01 -0.332375195E-01 -0.359462999E-01
   C  0.802929025E+01  0.360972024E+00  0.883949280E-01
   H -0.369545513E+02 -0.120277657E+01  0.179818017E+01
   H  0.351389228E+02 -0.311602812E+01  0.872132205E+00
     4
 # iter = 69000  time[fs]=69.00000
   C -0.885593146E+01 -0.337938773E-01 -0.365808991E-01
   C  0.812051401E+01  0.364956190E+00  0.891787068E-01
   H -0.373262028E+02 -0.121470927E+01  0.181639396E+01
   H  0.354909480E+02 -0.314752545E+01  0.880862817E+00
     4
 # iter = 69500  time[fs]=69.50000
   C -0.895473526E+01 -0.343513366E-01 -0.372161845E-01
   C  0.821179290E+01  0.368942238E+00  0.899627496E-01
   H -0.376979200E+02 -0.122664413E+01  0.183461123E+01
   H  0.358430425E+02 -0.317902998E+01  0.889595013E+00
     4
 # iter = 70000  time[fs]=70.00000
   C -0.905359326E+01 -0.349098728E-01 -0.378521421E-01
   C  0.830312570E+01  0.372930129E+00  0.907470502E-01
   H -0.380697017E+02 -0.123858112E+01  0.185283191E+01
   H  0.361952049E+02 -0.321054158E+01  0.898328766E+00
     4
 # iter = 70500  time[fs]=70.50000
   C -0.915250427E+01 -0.354694621E-01 -0.384887580E-01
   C  0.839451123E+01  0.376919825E+00  0.915316026E-01
   H -0.384415465E+02 -0.125052019E+01  0.187105595E+01
   H  0.365474340E+02 -0.324206013E+01  0.907064045E+00
     4
 # iter = 71000  time[fs]=71.00000
   C -0.925146714E+01 -0.360300814E-01 -0.391260190E-01
   C  0.848594833E+01  0.380911290E+00  0.923164008E-01
   H -0.388134533E+02 -0.126246131E+01  0.188928328E+01
   H  0.368997284E+02 -0.327358548E+01  0.915800824E+00
     4
 # iter = 71500  time[fs]=71.50000
   C -0.935048075E+01 -0.365917083E-01 -0.397639120E-01
   C  0.857743591E+01  0.384904486E+00  0.931014393E-01
   H -0.391854210E+02 -0.127440444E+01  0.190751384E+01
   H  0.372520869E+02 -0.330511752E+01  0.924539074E+00
     4
 # iter = 72000  time[fs]=72.00000
   C -0.944954404E+01 -0.371543212E-01 -0.404024246E-01
   C  0.866897287E+01  0.388899381E+00  0.938867124E-01
   H -0.395574483E+02 -0.128634954E+01  0.192574757E+01
   H  0.376045085E+02 -0.333665612E+01  0.933278771E+00
     4
 # iter = 72500  time[fs]=72.50000
   C -0.954865594E+01 -0.377178991E-01 -0.410415447E-01
   C  0.876055819E+01  0.392895939E+00  0.946722150E-01
   H -0.399295343E+02 -0.129829658E+01  0.194398442E+01
   H  0.379569918E+02 -0.336820118E+01  0.942019887E+00
     4
 # iter = 73000  time[fs]=73.00000
   C -0.964781544E+01 -0.382824217E-01 -0.416812603E-01
   C  0.885219086E+01  0.396894128E+00  0.954579419E-01
   H -0.403016779E+02 -0.131024551E+01  0.196222433E+01
   H  0.383095359E+02 -0.339975258E+01  0.950762397E+00
     4
 # iter = 73500  time[fs]=73.50000
   C -0.974702157E+01 -0.388478693E-01 -0.423215600E-01
   C  0.894386988E+01  0.400893916E+00  0.962438880E-01
   H -0.406738779E+02 -0.132219631E+01  0.198046725E+01
   H  0.386621395E+02 -0.343131020E+01  0.959506278E+00
     4
 # iter = 74000  time[fs]=74.00000
   C -0.984627336E+01 -0.394142228E-01 -0.429624327E-01
   C  0.903559433E+01  0.404895273E+00  0.970300487E-01
   H -0.410461334E+02 -0.133414894E+01  0.199871312E+01
   H  0.390148016E+02 -0.346287394E+01  0.968251505E+00
     4
 # iter = 74500  time[fs]=74.50000
   C -0.994556990E+01 -0.399814637E-01 -0.436038675E-01
   C  0.912736326E+01  0.408898169E+00  0.978164193E-01
   H -0.414184434E+02 -0.134610337E+01  0.201696189E+01
   H  0.393675213E+02 -0.349444369E+01  0.976998056E+00
     4
 # iter = 75000  time[fs]=75.00000
   C -0.100449103E+02 -0.405495740E-01 -0.442458539E-01
   C  0.921917579E+01  0.412902573E+00  0.986029952E-01
   H -0.417908070E+02 -0.135805957E+01  0.203521352E+01
   H  0.397202975E+02 -0.352601935E+01  0.985745907E+00
     4
 # iter = 75500  time[fs]=75.50000
   C -0.101442936E+02 -0.411185364E-01 -0.448883816E-01
   C  0.931103106E+01  0.416908459E+00  0.993897720E-01
   H -0.421632232E+02 -0.137001751E+01  0.205346796E+01
   H  0.400731291E+02 -0.355760083E+01  0.994495038E+00
     4
 # iter = 76000  time[fs]=76.00000
   C -0.102437191E+02 -0.416883337E-01 -0.455314408E-01
   C  0.940292822E+01  0.420915799E+00  0.100176746E+00
   H -0.425356911E+02 -0.138197716E+01  0.207172515E+01
   H  0.404260153E+02 -0.358918801E+01  0.100324542E+01
     4
 # iter = 76500  time[fs]=76.50000
   C -0.103431859E+02 -0.422589497E-01 -0.461750216E-01
   C  0.949486645E+01  0.424924565E+00  0.100963912E+00
   H -0.429082098E+02 -0.139393849E+01  0.208998506E+01
   H  0.407789552E+02 -0.362078082E+01  0.101199705E+01
     4
 # iter = 77000  time[fs]=77.00000
   C -0.104426932E+02 -0.428303683E-01 -0.468191147E-01
   C  0.958684495E+01  0.428934731E+00  0.101751267E+00
   H -0.432807784E+02 -0.140590146E+01  0.210824763E+01
   H  0.411319477E+02 -0.365237915E+01  0.102074989E+01
     4
 # iter = 77500  time[fs]=77.50000
   C -0.105422402E+02 -0.434025741E-01 -0.474637110E-01
   C  0.967886297E+01  0.432946273E+00  0.102538806E+00
   H -0.436533962E+02 -0.141786606E+01  0.212651283E+01
   H  0.414849921E+02 -0.368398292E+01  0.102950392E+01
     4
 # iter = 78000  time[fs]=78.00000
   C -0.106418262E+02 -0.439755519E-01 -0.481088014E-01
   C  0.977091973E+01  0.436959166E+00  0.103326527E+00
   H -0.440260623E+02 -0.142983226E+01  0.214478061E+01
   H  0.418380874E+02 -0.371559203E+01  0.103825914E+01
     4
 # iter = 78500  time[fs]=78.50000
   C -0.107414505E+02 -0.445492872E-01 -0.487543773E-01
   C  0.986301453E+01  0.440973386E+00  0.104114425E+00
   H -0.443987758E+02 -0.144180002E+01  0.216305093E+01
   H  0.421912329E+02 -0.374720641E+01  0.104701551E+01
     4
 # iter = 79000  time[fs]=79.00000
   C -0.108411123E+02 -0.451237655E-01 -0.494004302E-01
   C  0.995514663E+01  0.444988908E+00  0.104902497E+00
   H -0.447715361E+02 -0.145376933E+01  0.218132375E+01
   H  0.425444276E+02 -0.377882596E+01  0.105577302E+01
     4
 # iter = 79500  time[fs]=79.50000
   C -0.109408109E+02 -0.456989732E-01 -0.500469519E-01
   C  0.100473154E+02  0.449005711E+00  0.105690739E+00
   H -0.451443423E+02 -0.146574015E+01  0.219959903E+01
   H  0.428976709E+02 -0.381045061E+01  0.106453165E+01
     4
 # iter = 80000  time[fs]=80.00000
   C -0.110405457E+02 -0.462748967E-01 -0.506939343E-01
   C  0.101395201E+02  0.453023773E+00  0.106479148E+00
   H -0.455171937E+02 -0.147771248E+01  0.221787673E+01
   H  0.432509619E+02 -0.384208028E+01  0.107329138E+01
