     4
 # iter = 25000  time[fs]=25.00000
   C -0.983689823E+00 -0.385663114E-01  0.963069305E-02
   C  0.997605513E+00  0.363459518E-02 -0.177363721E-01
   H -0.517478323E+01 -0.286308076E+00 -0.680221763E+00
   H  0.526632894E+01 -0.274538050E+00  0.627790085E+00
     4
 # iter = 25500  time[fs]=25.50000
   C -0.103106243E+01 -0.396682648E-01  0.112979776E-01
   C  0.103978874E+01  0.338191583E-02 -0.217509829E-01
   H -0.551440283E+01 -0.309952819E+00 -0.731855403E+00
   H  0.557379593E+01 -0.299816377E+00  0.658484747E+00
     4
 # iter = 26000  time[fs]=26.00000
   C -0.108237183E+01 -0.418247540E-01  0.120266196E-01
   C  0.108395748E+01  0.225294914E-02 -0.267776481E-01
   H -0.586214175E+01 -0.339136146E+00 -0.789284018E+00
   H  0.587854371E+01 -0.330640180E+00  0.684128808E+00
     4
 # iter = 26500  time[fs]=26.50000
   C -0.113438260E+01 -0.420436293E-01  0.148025187E-01
   C  0.113269190E+01  0.307223431E-02 -0.299838802E-01
   H -0.620159969E+01 -0.357761504E+00 -0.836381129E+00
   H  0.619639021E+01 -0.350900841E+00  0.720780584E+00
     4
 # iter = 27000  time[fs]=27.00000
   C -0.118671585E+01 -0.401722005E-01  0.197721355E-01
   C  0.118589983E+01  0.597278300E-02 -0.312287304E-01
   H -0.653172216E+01 -0.365019997E+00 -0.872313728E+00
   H  0.652788628E+01 -0.359789929E+00  0.769203902E+00
     4
 # iter = 27500  time[fs]=27.50000
   C -0.124138097E+01 -0.384280925E-01  0.247117487E-01
   C  0.124126179E+01  0.884092852E-02 -0.326180859E-01
   H -0.686426194E+01 -0.372864597E+00 -0.909015187E+00
   H  0.686083838E+01 -0.369271488E+00  0.817394921E+00
     4
 # iter = 28000  time[fs]=28.00000
   C -0.129975629E+01 -0.383796045E-01  0.280470897E-01
   C  0.129709328E+01  0.101800730E-01 -0.356411346E-01
   H -0.720750220E+01 -0.389750891E+00 -0.954924227E+00
   H  0.718658603E+01 -0.387808857E+00  0.856856151E+00
     4
 # iter = 28500  time[fs]=28.50000
   C -0.136103091E+01 -0.393880438E-01  0.304110403E-01
   C  0.135382068E+01  0.105878389E-01 -0.396933167E-01
   H -0.755785931E+01 -0.412249478E+00 -0.100659635E+01
   H  0.750839586E+01 -0.411969726E+00  0.890991287E+00
     4
 # iter = 29000  time[fs]=29.00000
   C -0.142348761E+01 -0.398919100E-01  0.333595408E-01
   C  0.141276249E+01  0.115380237E-01 -0.432943510E-01
   H -0.790679713E+01 -0.431960889E+00 -0.105561871E+01
   H  0.783453281E+01 -0.433347230E+00  0.928182723E+00
     4
 # iter = 29500  time[fs]=29.50000
   C -0.148644482E+01 -0.393503266E-01  0.374282386E-01
   C  0.147428540E+01  0.135373561E-01 -0.459314306E-01
   H -0.825129307E+01 -0.445980687E+00 -0.109907528E+01
   H  0.816777779E+01 -0.449034422E+00  0.971315646E+00
     4
 # iter = 30000  time[fs]=30.00000
   C -0.155052786E+01 -0.385156260E-01  0.418599248E-01
   C  0.153754445E+01  0.158668691E-01 -0.483178387E-01
   H -0.859530397E+01 -0.458367365E+00 -0.114101460E+01
   H  0.850395504E+01 -0.463093490E+00  0.101630821E+01
     4
 # iter = 30500  time[fs]=30.50000
   C -0.161646199E+01 -0.382275511E-01  0.458103126E-01
   C  0.160162489E+01  0.177253406E-01 -0.512495203E-01
   H -0.894326882E+01 -0.473649204E+00 -0.118595619E+01
   H  0.883843099E+01 -0.480056747E+00  0.105861056E+01
     4
 # iter = 31000  time[fs]=31.00000
   C -0.168415390E+01 -0.384960001E-01  0.492652684E-01
   C  0.166641065E+01  0.190991024E-01 -0.547352744E-01
   H -0.929516618E+01 -0.491884920E+00 -0.123395090E+01
   H  0.917105772E+01 -0.499982818E+00  0.109814858E+01
     4
 # iter = 31500  time[fs]=31.50000
   C -0.175295983E+01 -0.387702342E-01  0.527715947E-01
   C  0.173232776E+01  0.205066641E-01 -0.582521051E-01
   H -0.964796283E+01 -0.510113504E+00 -0.128203060E+01
   H  0.950472006E+01 -0.519907833E+00  0.113787244E+01
     4
 # iter = 32000  time[fs]=32.00000
   C -0.182245390E+01 -0.387083803E-01  0.566675214E-01
   C  0.179961361E+01  0.222688889E-01 -0.614750099E-01
   H -0.999975735E+01 -0.526498190E+00 -0.132835217E+01
   H  0.984118560E+01 -0.537993202E+00  0.117960841E+01
     4
 # iter = 32500  time[fs]=32.50000
   C -0.189270313E+01 -0.384533831E-01  0.608067410E-01
   C  0.186805430E+01  0.242472372E-01 -0.645387064E-01
   H -0.103512656E+02 -0.541812545E+00 -0.137368348E+01
   H  0.101796158E+02 -0.555013067E+00  0.122257113E+01
     4
 # iter = 33000  time[fs]=33.00000
   C -0.196393508E+01 -0.383015383E-01  0.648898537E-01
   C  0.193729801E+01  0.261580605E-01 -0.677233162E-01
   H -0.107040348E+02 -0.557655499E+00 -0.141961833E+01
   H  0.105183519E+02 -0.572567676E+00  0.126515017E+01
     4
 # iter = 33500  time[fs]=33.50000
   C -0.203617351E+01 -0.383388817E-01  0.688279554E-01
   C  0.200719897E+01  0.279173894E-01 -0.711095586E-01
   H -0.110584842E+02 -0.574493269E+00 -0.146661830E+01
   H  0.108568746E+02 -0.591123504E+00  0.130686982E+01
     4
 # iter = 34000  time[fs]=34.00000
   C -0.210923401E+01 -0.384375507E-01  0.727462582E-01
   C  0.207782021E+01  0.296443500E-01 -0.745753115E-01
   H -0.114138849E+02 -0.591639837E+00 -0.151399311E+01
   H  0.111958227E+02 -0.609993725E+00  0.134840852E+01
     4
 # iter = 34500  time[fs]=34.50000
   C -0.218294025E+01 -0.384726042E-01  0.767672536E-01
   C  0.214922731E+01  0.314555152E-01 -0.780012377E-01
   H -0.117695274E+02 -0.608424628E+00 -0.156106834E+01
   H  0.115358238E+02 -0.628506978E+00  0.139042998E+01
     4
 # iter = 35000  time[fs]=35.00000
   C -0.225724668E+01 -0.384453072E-01  0.808874131E-01
   C  0.222137089E+01  0.333479628E-01 -0.813877056E-01
   H -0.121253851E+02 -0.624856477E+00 -0.160784926E+01
   H  0.118768292E+02 -0.646671944E+00  0.143291849E+01
     4
 # iter = 35500  time[fs]=35.50000
   C -0.233218083E+01 -0.384259185E-01  0.850343851E-01
   C  0.229414042E+01  0.352535087E-01 -0.848005379E-01
   H -0.124818055E+02 -0.641315535E+00 -0.165471280E+01
   H  0.122184218E+02 -0.664868975E+00  0.147548725E+01
     4
 # iter = 36000  time[fs]=36.00000
   C -0.240774164E+01 -0.384524248E-01  0.891682455E-01
   C  0.236745975E+01  0.371347207E-01 -0.882749824E-01
   H -0.128389652E+02 -0.658007960E+00 -0.170186213E+01
   H  0.125603616E+02 -0.683304264E+00  0.151792412E+01
     4
 # iter = 36500  time[fs]=36.50000
   C -0.248387594E+01 -0.385073803E-01  0.933046448E-01
   C  0.244130872E+01  0.390068653E-01 -0.917937492E-01
   H -0.131967441E+02 -0.674841208E+00 -0.174920197E+01
   H  0.129027102E+02 -0.701885028E+00  0.156031640E+01
     4
 # iter = 37000  time[fs]=37.00000
   C -0.256052078E+01 -0.385606268E-01  0.974720764E-01
   C  0.251568228E+01  0.408973808E-01 -0.953275244E-01
   H -0.135549559E+02 -0.691654123E+00 -0.179656863E+01
   H  0.132456005E+02 -0.720449815E+00  0.160282047E+01
     4
 # iter = 37500  time[fs]=37.50000
   C -0.263763828E+01 -0.386043917E-01  0.101676768E+00
   C  0.259055688E+01  0.428125796E-01 -0.988682545E-01
   H -0.139135364E+02 -0.708405971E+00 -0.184391902E+01
   H  0.135890467E+02 -0.738957713E+00  0.164547256E+01
     4
 # iter = 38000  time[fs]=38.00000
   C -0.271521146E+01 -0.386494161E-01  0.105906542E+00
   C  0.266589393E+01  0.447413090E-01 -0.102425475E+00
   H -0.142725229E+02 -0.725155602E+00 -0.189130983E+01
   H  0.139329654E+02 -0.757467492E+00  0.168820954E+01
     4
 # iter = 38500  time[fs]=38.50000
   C -0.279322402E+01 -0.387049185E-01  0.110150844E+00
   C  0.274165848E+01  0.466739420E-01 -0.106007306E+00
   H -0.146319460E+02 -0.741953561E+00 -0.193878957E+01
   H  0.142772835E+02 -0.776029612E+00  0.173097689E+01
     4
 # iter = 39000  time[fs]=39.00000
   C -0.287165165E+01 -0.387701819E-01  0.114409148E+00
   C  0.281782707E+01  0.486103471E-01 -0.109612479E+00
   H -0.149917840E+02 -0.758796793E+00 -0.198635332E+01
   H  0.146219828E+02 -0.794640891E+00  0.177377403E+01
     4
 # iter = 39500  time[fs]=39.50000
   C -0.295046747E+01 -0.388401235E-01  0.118685377E+00
   C  0.289438215E+01  0.505545989E-01 -0.113235612E+00
   H -0.153519929E+02 -0.775658650E+00 -0.203397268E+01
   H  0.149670702E+02 -0.813274533E+00  0.181662422E+01
     4
 # iter = 40000  time[fs]=40.00000
   C -0.302964872E+01 -0.389121804E-01  0.122981011E+00
   C  0.297130550E+01  0.525084415E-01 -0.116873740E+00
   H -0.157125435E+02 -0.792525983E+00 -0.208163286E+01
   H  0.153125406E+02 -0.831917261E+00  0.185953746E+01
     4
 # iter = 40500  time[fs]=40.50000
   C -0.310917747E+01 -0.389871261E-01  0.127294267E+00
   C  0.304857720E+01  0.544705084E-01 -0.120527089E+00
   H -0.160734255E+02 -0.809403545E+00 -0.212933709E+01
   H  0.156583722E+02 -0.850573721E+00  0.190250602E+01
     4
 # iter = 41000  time[fs]=41.00000
   C -0.318903763E+01 -0.390662759E-01  0.131622883E+00
   C  0.312617821E+01  0.564389675E-01 -0.124196425E+00
   H -0.164346325E+02 -0.826298950E+00 -0.217709156E+01
   H  0.160045411E+02 -0.869251425E+00  0.194551949E+01
     4
 # iter = 41500  time[fs]=41.50000
   C -0.326921314E+01 -0.391497373E-01  0.135965866E+00
   C  0.320409187E+01  0.584131754E-01 -0.127881392E+00
   H -0.167961523E+02 -0.843213256E+00 -0.222489596E+01
   H  0.163510314E+02 -0.887951331E+00  0.198857422E+01
     4
 # iter = 42000  time[fs]=42.00000
   C -0.334968823E+01 -0.392368028E-01  0.140323095E+00
   C  0.328230345E+01  0.603933017E-01 -0.131580884E+00
   H -0.171579692E+02 -0.860143085E+00 -0.227274568E+01
   H  0.166978322E+02 -0.906669959E+00  0.203167113E+01
     4
 # iter = 42500  time[fs]=42.50000
   C -0.343044828E+01 -0.393269018E-01  0.144694361E+00
   C  0.336079911E+01  0.623794216E-01 -0.135293944E+00
   H -0.175200689E+02 -0.877085758E+00 -0.232063684E+01
   H  0.170449330E+02 -0.925404530E+00  0.207481061E+01
     4
 # iter = 43000  time[fs]=43.00000
   C -0.351148002E+01 -0.394198872E-01  0.149079079E+00
   C  0.343956560E+01  0.643712413E-01 -0.139020042E+00
   H -0.178824401E+02 -0.894040837E+00 -0.236856790E+01
   H  0.173923219E+02 -0.944154517E+00  0.211799093E+01
     4
 # iter = 43500  time[fs]=43.50000
   C -0.359277121E+01 -0.395157694E-01  0.153476553E+00
   C  0.351859036E+01  0.663683479E-01 -0.142758813E+00
   H -0.182450730E+02 -0.911008703E+00 -0.241653817E+01
   H  0.177399865E+02 -0.962920211E+00  0.216120967E+01
     4
 # iter = 44000  time[fs]=44.00000
   C -0.367431027E+01 -0.396144725E-01  0.157886211E+00
   C  0.359786172E+01  0.683704370E-01 -0.146509828E+00
   H -0.186079577E+02 -0.927989238E+00 -0.246454655E+01
   H  0.180879161E+02 -0.981701412E+00  0.220446501E+01
     4
 # iter = 44500  time[fs]=44.50000
   C -0.375608629E+01 -0.397158275E-01  0.162307612E+00
   C  0.367736886E+01  0.703773177E-01 -0.150272590E+00
   H -0.189710846E+02 -0.944981802E+00 -0.251259147E+01
   H  0.184361007E+02 -0.100049740E+01  0.224775578E+01
     4
 # iter = 45000  time[fs]=45.00000
   C -0.383808899E+01 -0.398196649E-01  0.166740352E+00
   C  0.375710162E+01  0.723888224E-01 -0.154046614E+00
   H -0.193344442E+02 -0.961985722E+00 -0.256067136E+01
   H  0.187845312E+02 -0.101930741E+01  0.229108093E+01
     4
 # iter = 45500  time[fs]=45.50000
   C -0.392030876E+01 -0.399258584E-01  0.171184013E+00
   C  0.383705044E+01  0.744047631E-01 -0.157831476E+00
   H -0.196980281E+02 -0.979000540E+00 -0.260878493E+01
   H  0.191331987E+02 -0.103813093E+01  0.233443930E+01
     4
 # iter = 46000  time[fs]=46.00000
   C -0.400273658E+01 -0.400343091E-01  0.175638184E+00
   C  0.391720630E+01  0.764249455E-01 -0.161626788E+00
   H -0.200618282E+02 -0.996025926E+00 -0.265693105E+01
   H  0.194820946E+02 -0.105696755E+01  0.237782966E+01
     4
 # iter = 46500  time[fs]=46.50000
   C -0.408536397E+01 -0.401449213E-01  0.180102475E+00
   C  0.399756073E+01  0.784491896E-01 -0.165432181E+00
   H -0.204258368E+02 -0.101306155E+01 -0.270510864E+01
   H  0.198312110E+02 -0.107581686E+01  0.242125089E+01
     4
 # iter = 47000  time[fs]=47.00000
   C -0.416818290E+01 -0.402575973E-01  0.184576525E+00
   C  0.407810573E+01  0.804773340E-01 -0.169247296E+00
   H -0.207900468E+02 -0.103010705E+01 -0.275331662E+01
   H  0.201805401E+02 -0.109467845E+01  0.246470195E+01
     4
 # iter = 47500  time[fs]=47.50000
   C -0.425118581E+01 -0.403722427E-01  0.189059995E+00
   C  0.415883379E+01  0.825092289E-01 -0.173071791E+00
   H -0.211544512E+02 -0.104716207E+01 -0.280155396E+01
   H  0.205300749E+02 -0.111355188E+01  0.250818189E+01
     4
 # iter = 48000  time[fs]=48.00000
   C -0.433436559E+01 -0.404887708E-01  0.193552560E+00
   C  0.423973779E+01  0.845447313E-01 -0.176905341E+00
   H -0.215190435E+02 -0.106422630E+01 -0.284981967E+01
   H  0.208798085E+02 -0.113243679E+01  0.255168976E+01
     4
 # iter = 48500  time[fs]=48.50000
   C -0.441771547E+01 -0.406071017E-01  0.198053910E+00
   C  0.432081102E+01  0.865837044E-01 -0.180747639E+00
   H -0.218838173E+02 -0.108129941E+01 -0.289811286E+01
   H  0.212297343E+02 -0.115133279E+01  0.259522468E+01
     4
 # iter = 49000  time[fs]=49.00000
   C -0.450122909E+01 -0.407271604E-01  0.202563749E+00
   C  0.440204713E+01  0.886260192E-01 -0.184598394E+00
   H -0.222487669E+02 -0.109838114E+01 -0.294643264E+01
   H  0.215798461E+02 -0.117023956E+01  0.263878580E+01
     4
 # iter = 49500  time[fs]=49.50000
   C -0.458490041E+01 -0.408488757E-01  0.207081795E+00
   C  0.448344009E+01  0.906715538E-01 -0.188457325E+00
   H -0.226138865E+02 -0.111547120E+01 -0.299477818E+01
   H  0.219301381E+02 -0.118915676E+01  0.268237230E+01
     4
 # iter = 50000  time[fs]=50.00000
   C -0.466872371E+01 -0.409721804E-01  0.211607782E+00
   C  0.456498422E+01  0.927201928E-01 -0.192324169E+00
   H -0.229791708E+02 -0.113256933E+01 -0.304314868E+01
   H  0.222806045E+02 -0.120808407E+01  0.272598342E+01
     4
 # iter = 50500  time[fs]=50.50000
   C -0.475269356E+01 -0.410970110E-01  0.216141455E+00
   C  0.464667411E+01  0.947718271E-01 -0.196198671E+00
   H -0.233446147E+02 -0.114967528E+01 -0.309154338E+01
   H  0.226312401E+02 -0.122702119E+01  0.276961841E+01
     4
 # iter = 51000  time[fs]=51.00000
   C -0.483680481E+01 -0.412233077E-01  0.220682569E+00
   C  0.472850462E+01  0.968263529E-01 -0.200080589E+00
   H -0.237102133E+02 -0.116678881E+01 -0.313996155E+01
   H  0.229820396E+02 -0.124596784E+01  0.281327658E+01
     4
 # iter = 51500  time[fs]=51.50000
   C -0.492105258E+01 -0.413510140E-01  0.225230893E+00
   C  0.481047090E+01  0.988836716E-01 -0.203969694E+00
   H -0.240759618E+02 -0.118390970E+01 -0.318840251E+01
   H  0.233329982E+02 -0.126492373E+01  0.285695725E+01
     4
 # iter = 52000  time[fs]=52.00000
   C -0.500543220E+01 -0.414800765E-01  0.229786204E+00
   C  0.489256830E+01  0.100943690E+00 -0.207865763E+00
   H -0.244418559E+02 -0.120103772E+01 -0.323686559E+01
   H  0.236841111E+02 -0.128388860E+01  0.290065976E+01
     4
 # iter = 52500  time[fs]=52.50000
   C -0.508993927E+01 -0.416104444E-01  0.234348290E+00
   C  0.497479242E+01  0.103006318E+00 -0.211768587E+00
   H -0.248078913E+02 -0.121817266E+01 -0.328535015E+01
   H  0.240353739E+02 -0.130286221E+01  0.294438352E+01
     4
 # iter = 53000  time[fs]=53.00000
   C -0.517456957E+01 -0.417420698E-01  0.238916948E+00
   C  0.505713908E+01  0.105071471E+00 -0.215677963E+00
   H -0.251740639E+02 -0.123531433E+01 -0.333385559E+01
   H  0.243867824E+02 -0.132184430E+01  0.298812791E+01
     4
 # iter = 53500  time[fs]=53.50000
   C -0.525931909E+01 -0.418749072E-01  0.243491984E+00
   C  0.513960427E+01  0.107139069E+00 -0.219593698E+00
   H -0.255403697E+02 -0.125246254E+01 -0.338238132E+01
   H  0.247383323E+02 -0.134083464E+01  0.303189238E+01
     4
 # iter = 54000  time[fs]=54.00000
   C -0.534418400E+01 -0.420089134E-01  0.248073212E+00
   C  0.522218418E+01  0.109209034E+00 -0.223515609E+00
   H -0.259068051E+02 -0.126961710E+01 -0.343092679E+01
   H  0.250900197E+02 -0.135983302E+01  0.307567639E+01
     4
 # iter = 54500  time[fs]=54.50000
   C -0.542916066E+01 -0.421440473E-01  0.252660453E+00
   C  0.530487519E+01  0.111281293E+00 -0.227443516E+00
   H -0.262733665E+02 -0.128677784E+01 -0.347949146E+01
   H  0.254418409E+02 -0.137883922E+01  0.311947940E+01
     4
 # iter = 55000  time[fs]=55.00000
   C -0.551424558E+01 -0.422802699E-01  0.257253536E+00
   C  0.538767383E+01  0.113355776E+00 -0.231377251E+00
   H -0.266400503E+02 -0.130394458E+01 -0.352807481E+01
   H  0.257937921E+02 -0.139785302E+01  0.316330091E+01
     4
 # iter = 55500  time[fs]=55.50000
   C -0.559943543E+01 -0.424175442E-01  0.261852298E+00
   C  0.547057678E+01  0.115432416E+00 -0.235316651E+00
   H -0.270068533E+02 -0.132111717E+01 -0.357667636E+01
   H  0.261458701E+02 -0.141687424E+01  0.320714045E+01
     4
 # iter = 56000  time[fs]=56.00000
   C -0.568472703E+01 -0.425558347E-01  0.266456582E+00
   C  0.555358088E+01  0.117511148E+00 -0.239261559E+00
   H -0.273737723E+02 -0.133829545E+01 -0.362529563E+01
   H  0.264980713E+02 -0.143590269E+01  0.325099756E+01
     4
 # iter = 56500  time[fs]=56.50000
   C -0.577011735E+01 -0.426951079E-01  0.271066236E+00
   C  0.563668310E+01  0.119591912E+00 -0.243211826E+00
   H -0.277408043E+02 -0.135547928E+01 -0.367393215E+01
   H  0.268503926E+02 -0.145493818E+01  0.329487177E+01
     4
 # iter = 57000  time[fs]=57.00000
   C -0.585560348E+01 -0.428353316E-01  0.275681115E+00
   C  0.571988055E+01  0.121674648E+00 -0.247167306E+00
   H -0.281079464E+02 -0.137266850E+01 -0.372258550E+01
   H  0.272028309E+02 -0.147398053E+01  0.333876267E+01
     4
 # iter = 57500  time[fs]=57.50000
   C -0.594118261E+01 -0.429764752E-01  0.280301081E+00
   C  0.580317044E+01  0.123759300E+00 -0.251127862E+00
   H -0.284751956E+02 -0.138986299E+01 -0.377125525E+01
   H  0.275553831E+02 -0.149302958E+01  0.338266984E+01
     4
 # iter = 58000  time[fs]=58.00000
   C -0.602685209E+01 -0.431185096E-01  0.284925999E+00
   C  0.588655012E+01  0.125845815E+00 -0.255093359E+00
   H -0.288425494E+02 -0.140706260E+01 -0.381994099E+01
   H  0.279080465E+02 -0.151208516E+01  0.342659288E+01
     4
 # iter = 58500  time[fs]=58.50000
   C -0.611260936E+01 -0.432614069E-01  0.289555740E+00
   C  0.597001705E+01  0.127934141E+00 -0.259063671E+00
   H -0.292100051E+02 -0.142426722E+01 -0.386864234E+01
   H  0.282608183E+02 -0.153114711E+01  0.347053141E+01
     4
 # iter = 59000  time[fs]=59.00000
   C -0.619845195E+01 -0.434051403E-01  0.294190181E+00
   C  0.605356878E+01  0.130024228E+00 -0.263038673E+00
   H -0.295775601E+02 -0.144147672E+01 -0.391735891E+01
   H  0.286136959E+02 -0.155021529E+01  0.351448507E+01
     4
 # iter = 59500  time[fs]=59.50000
   C -0.628437752E+01 -0.435496844E-01  0.298829201E+00
   C  0.613720297E+01  0.132116029E+00 -0.267018247E+00
   H -0.299452121E+02 -0.145869097E+01 -0.396609034E+01
   H  0.289666766E+02 -0.156928954E+01  0.355845348E+01
     4
 # iter = 60000  time[fs]=60.00000
   C -0.637038380E+01 -0.436950148E-01  0.303472687E+00
   C  0.622091736E+01  0.134209498E+00 -0.271002278E+00
   H -0.303129587E+02 -0.147590987E+01 -0.401483629E+01
   H  0.293197580E+02 -0.158836973E+01  0.360243631E+01
     4
 # iter = 60500  time[fs]=60.50000
   C -0.645646862E+01 -0.438411082E-01  0.308120526E+00
   C  0.630470979E+01  0.136304591E+00 -0.274990656E+00
   H -0.306807977E+02 -0.149313331E+01 -0.406359640E+01
   H  0.296729377E+02 -0.160745572E+01  0.364643323E+01
     4
 # iter = 61000  time[fs]=61.00000
   C -0.654262989E+01 -0.439879422E-01  0.312772613E+00
   C  0.638857819E+01  0.138401266E+00 -0.278983274E+00
   H -0.310487268E+02 -0.151036117E+01 -0.411237036E+01
   H  0.300262134E+02 -0.162654737E+01  0.369044391E+01
     4
 # iter = 61500  time[fs]=61.50000
   C -0.662886560E+01 -0.441354953E-01  0.317428845E+00
   C  0.647252055E+01  0.140499482E+00 -0.282980031E+00
   H -0.314167441E+02 -0.152759336E+01 -0.416115785E+01
   H  0.303795829E+02 -0.164564457E+01  0.373446804E+01
     4
 # iter = 62000  time[fs]=62.00000
   C -0.671517382E+01 -0.442837469E-01  0.322089121E+00
   C  0.655653496E+01  0.142599201E+00 -0.286980827E+00
   H -0.317848474E+02 -0.154482978E+01 -0.420995856E+01
   H  0.307330440E+02 -0.166474718E+01  0.377850533E+01
     4
 # iter = 62500  time[fs]=62.50000
   C -0.680155269E+01 -0.444326775E-01  0.326753347E+00
   C  0.664061956E+01  0.144700384E+00 -0.290985566E+00
   H -0.321530348E+02 -0.156207033E+01 -0.425877220E+01
   H  0.310865948E+02 -0.168385509E+01  0.382255548E+01
     4
 # iter = 63000  time[fs]=63.00000
   C -0.688800042E+01 -0.445822680E-01  0.331421429E+00
   C  0.672477258E+01  0.146802996E+00 -0.294994157E+00
   H -0.325213045E+02 -0.157931492E+01 -0.430759848E+01
   H  0.314402331E+02 -0.170296818E+01  0.386661821E+01
     4
 # iter = 63500  time[fs]=63.50000
   C -0.697451528E+01 -0.447325003E-01  0.336093278E+00
   C  0.680899229E+01  0.148907001E+00 -0.299006511E+00
   H -0.328896545E+02 -0.159656346E+01 -0.435643713E+01
   H  0.317939571E+02 -0.172208634E+01  0.391069326E+01
     4
 # iter = 64000  time[fs]=64.00000
   C -0.706109562E+01 -0.448833569E-01  0.340768807E+00
   C  0.689327705E+01  0.151012365E+00 -0.303022541E+00
   H -0.332580831E+02 -0.161381586E+01 -0.440528789E+01
   H  0.321477648E+02 -0.174120946E+01  0.395478035E+01
     4
 # iter = 64500  time[fs]=64.50000
   C -0.714773984E+01 -0.450348210E-01  0.345447934E+00
   C  0.697762526E+01  0.153119057E+00 -0.307042164E+00
   H -0.336265887E+02 -0.163107205E+01 -0.445415048E+01
   H  0.325016545E+02 -0.176033744E+01  0.399887924E+01
     4
 # iter = 65000  time[fs]=65.00000
   C -0.723444638E+01 -0.451868764E-01  0.350130578E+00
   C  0.706203538E+01  0.155227045E+00 -0.311065299E+00
   H -0.339951695E+02 -0.164833193E+01 -0.450302467E+01
   H  0.328556244E+02 -0.177947018E+01  0.404298967E+01
     4
 # iter = 65500  time[fs]=65.50000
   C -0.732121375E+01 -0.453395078E-01  0.354816659E+00
   C  0.714650593E+01  0.157336299E+00 -0.315091869E+00
   H -0.343638239E+02 -0.166559543E+01 -0.455191020E+01
   H  0.332096727E+02 -0.179860757E+01  0.408711142E+01
     4
 # iter = 66000  time[fs]=66.00000
   C -0.740804052E+01 -0.454927000E-01  0.359506103E+00
   C  0.723103549E+01  0.159446789E+00 -0.319121799E+00
   H -0.347325505E+02 -0.168286247E+01 -0.460080685E+01
   H  0.335637980E+02 -0.181774953E+01  0.413124424E+01
     4
 # iter = 66500  time[fs]=66.50000
   C -0.749492530E+01 -0.456464387E-01  0.364198837E+00
   C  0.731562266E+01  0.161558488E+00 -0.323155016E+00
   H -0.351013476E+02 -0.170013299E+01 -0.464971439E+01
   H  0.339179985E+02 -0.183689596E+01  0.417538791E+01
     4
 # iter = 67000  time[fs]=67.00000
   C -0.758186674E+01 -0.458007101E-01  0.368894789E+00
   C  0.740026611E+01  0.163671367E+00 -0.327191448E+00
   H -0.354702138E+02 -0.171740690E+01 -0.469863260E+01
   H  0.342722727E+02 -0.185604678E+01  0.421954222E+01
     4
 # iter = 67500  time[fs]=67.50000
   C -0.766886355E+01 -0.459555008E-01  0.373593892E+00
   C  0.748496456E+01  0.165785402E+00 -0.331231029E+00
   H -0.358391478E+02 -0.173468414E+01 -0.474756126E+01
   H  0.346266191E+02 -0.187520188E+01  0.426370695E+01
     4
 # iter = 68000  time[fs]=68.00000
   C -0.775591447E+01 -0.461107978E-01  0.378296078E+00
   C  0.756971675E+01  0.167900565E+00 -0.335273690E+00
   H -0.362081481E+02 -0.175196465E+01 -0.479650016E+01
   H  0.349810363E+02 -0.189436120E+01  0.430788190E+01
     4
 # iter = 68500  time[fs]=68.50000
   C -0.784301829E+01 -0.462665888E-01  0.383001283E+00
   C  0.765452147E+01  0.170016833E+00 -0.339319369E+00
   H -0.365772134E+02 -0.176924835E+01 -0.484544910E+01
   H  0.353355228E+02 -0.191352465E+01  0.435206687E+01
     4
 # iter = 69000  time[fs]=69.00000
   C -0.793017384E+01 -0.464228618E-01  0.387709445E+00
   C  0.773937757E+01  0.172134182E+00 -0.343368003E+00
   H -0.369463424E+02 -0.178653519E+01 -0.489440790E+01
   H  0.356900773E+02 -0.193269214E+01  0.439626167E+01
     4
 # iter = 69500  time[fs]=69.50000
   C -0.801737997E+01 -0.465796051E-01  0.392420503E+00
   C  0.782428392E+01  0.174252588E+00 -0.347419531E+00
   H -0.373155339E+02 -0.180382511E+01 -0.494337635E+01
   H  0.360446985E+02 -0.195186361E+01  0.444046610E+01
     4
 # iter = 70000  time[fs]=70.00000
   C -0.810463561E+01 -0.467368077E-01  0.397134399E+00
   C  0.790923941E+01  0.176372029E+00 -0.351473895E+00
   H -0.376847867E+02 -0.182111803E+01 -0.499235427E+01
   H  0.363993850E+02 -0.197103897E+01  0.448467999E+01
     4
 # iter = 70500  time[fs]=70.50000
   C -0.819193966E+01 -0.468944588E-01  0.401851075E+00
   C  0.799424299E+01  0.178492483E+00 -0.355531038E+00
   H -0.380540996E+02 -0.183841391E+01 -0.504134149E+01
   H  0.367541357E+02 -0.199021816E+01  0.452890316E+01
     4
 # iter = 71000  time[fs]=71.00000
   C -0.827929112E+01 -0.470525478E-01  0.406570476E+00
   C  0.807929364E+01  0.180613930E+00 -0.359590906E+00
   H -0.384234713E+02 -0.185571269E+01 -0.509033783E+01
   H  0.371089492E+02 -0.200940110E+01  0.457313544E+01
     4
 # iter = 71500  time[fs]=71.50000
   C -0.836668897E+01 -0.472110647E-01  0.411292548E+00
   C  0.816439037E+01  0.182736349E+00 -0.363653443E+00
   H -0.387929009E+02 -0.187301432E+01 -0.513934312E+01
   H  0.374638244E+02 -0.202858773E+01  0.461737665E+01
     4
 # iter = 72000  time[fs]=72.00000
   C -0.845413226E+01 -0.473699998E-01  0.416017239E+00
   C  0.824953221E+01  0.184859720E+00 -0.367718600E+00
   H -0.391623872E+02 -0.189031874E+01 -0.518835719E+01
   H  0.378187602E+02 -0.204777797E+01  0.466162664E+01
     4
 # iter = 72500  time[fs]=72.50000
   C -0.854162003E+01 -0.475293437E-01  0.420744500E+00
   C  0.833471822E+01  0.186984025E+00 -0.371786323E+00
   H -0.395319292E+02 -0.190762589E+01 -0.523737989E+01
   H  0.381737554E+02 -0.206697177E+01  0.470588525E+01
     4
 # iter = 73000  time[fs]=73.00000
   C -0.862915139E+01 -0.476890871E-01  0.425474279E+00
   C  0.841994751E+01  0.189109244E+00 -0.375856566E+00
   H -0.399015258E+02 -0.192493574E+01 -0.528641105E+01
   H  0.385288090E+02 -0.208616905E+01  0.475015232E+01
     4
 # iter = 73500  time[fs]=73.50000
   C -0.871672544E+01 -0.478492213E-01  0.430206530E+00
   C  0.850521919E+01  0.191235359E+00 -0.379929280E+00
   H -0.402711761E+02 -0.194224823E+01 -0.533545054E+01
   H  0.388839198E+02 -0.210536976E+01  0.479442770E+01
     4
 # iter = 74000  time[fs]=74.00000
   C -0.880434133E+01 -0.480097378E-01  0.434941205E+00
   C  0.859053241E+01  0.193362353E+00 -0.384004418E+00
   H -0.406408791E+02 -0.195956332E+01 -0.538449819E+01
   H  0.392390869E+02 -0.212457384E+01  0.483871124E+01
     4
 # iter = 74500  time[fs]=74.50000
   C -0.889199823E+01 -0.481706282E-01  0.439678261E+00
   C  0.867588635E+01  0.195490209E+00 -0.388081936E+00
   H -0.410106338E+02 -0.197688095E+01 -0.543355387E+01
   H  0.395943093E+02 -0.214378123E+01  0.488300281E+01
     4
 # iter = 75000  time[fs]=75.00000
   C -0.897969534E+01 -0.483318844E-01  0.444417652E+00
   C  0.876128020E+01  0.197618911E+00 -0.392161790E+00
   H -0.413804393E+02 -0.199420108E+01 -0.548261743E+01
   H  0.399495859E+02 -0.216299186E+01  0.492730227E+01
     4
 # iter = 75500  time[fs]=75.50000
   C -0.906743185E+01 -0.484934989E-01  0.449159336E+00
   C  0.884671318E+01  0.199748442E+00 -0.396243936E+00
   H -0.417502948E+02 -0.201152367E+01 -0.553168875E+01
   H  0.403049159E+02 -0.218220569E+01  0.497160947E+01
     4
 # iter = 76000  time[fs]=76.00000
   C -0.915520702E+01 -0.486554639E-01  0.453903271E+00
   C  0.893218454E+01  0.201878786E+00 -0.400328334E+00
   H -0.421201993E+02 -0.202884868E+01 -0.558076768E+01
   H  0.406602982E+02 -0.220142267E+01  0.501592430E+01
     4
 # iter = 76500  time[fs]=76.50000
   C -0.924302011E+01 -0.488177722E-01  0.458649417E+00
   C  0.901769354E+01  0.204009929E+00 -0.404414942E+00
   H -0.424901520E+02 -0.204617607E+01 -0.562985410E+01
   H  0.410157321E+02 -0.222064273E+01  0.506024661E+01
     4
 # iter = 77000  time[fs]=77.00000
   C -0.933087039E+01 -0.489804167E-01  0.463397734E+00
   C  0.910323946E+01  0.206141856E+00 -0.408503722E+00
   H -0.428601521E+02 -0.206350578E+01 -0.567894788E+01
   H  0.413712166E+02 -0.223986582E+01  0.510457628E+01
     4
 # iter = 77500  time[fs]=77.50000
   C -0.941875716E+01 -0.491433905E-01  0.468148184E+00
   C  0.918882161E+01  0.208274552E+00 -0.412594635E+00
   H -0.432301988E+02 -0.208083779E+01 -0.572804889E+01
   H  0.417267508E+02 -0.225909191E+01  0.514891320E+01
     4
 # iter = 78000  time[fs]=78.00000
   C -0.950667974E+01 -0.493066870E-01  0.472900729E+00
   C  0.927443931E+01  0.210408003E+00 -0.416687645E+00
   H -0.436002912E+02 -0.209817206E+01 -0.577715703E+01
   H  0.420823340E+02 -0.227832093E+01  0.519325724E+01
     4
 # iter = 78500  time[fs]=78.50000
   C -0.959463747E+01 -0.494702996E-01  0.477655334E+00
   C  0.936009190E+01  0.212542196E+00 -0.420782713E+00
   H -0.439704287E+02 -0.211550855E+01 -0.582627216E+01
   H  0.424379652E+02 -0.229755284E+01  0.523760829E+01
     4
 # iter = 79000  time[fs]=79.00000
   C -0.968262971E+01 -0.496342221E-01  0.482411961E+00
   C  0.944577875E+01  0.214677118E+00 -0.424879805E+00
   H -0.443406105E+02 -0.213284721E+01 -0.587539418E+01
   H  0.427936438E+02 -0.231678759E+01  0.528196623E+01
     4
 # iter = 79500  time[fs]=79.50000
   C -0.977065583E+01 -0.497984483E-01  0.487170578E+00
   C  0.953149922E+01  0.216812756E+00 -0.428978887E+00
   H -0.447108358E+02 -0.215018803E+01 -0.592452298E+01
   H  0.431493690E+02 -0.233602514E+01  0.532633095E+01
     4
 # iter = 80000  time[fs]=80.00000
   C -0.985871522E+01 -0.499629723E-01  0.491931149E+00
   C  0.961725272E+01  0.218949096E+00 -0.433079925E+00
   H -0.450811039E+02 -0.216753095E+01 -0.597365844E+01
   H  0.435051399E+02 -0.235526544E+01  0.537070235E+01
