     4
 # iter = 25000  time[fs]=25.00000
   C -0.102284585E+01  0.350021208E-02 -0.112217279E-02
   C  0.926968346E+00  0.157388595E-01 -0.323313672E-01
   H -0.522251789E+01  0.518939782E+00  0.340119737E+00
   H  0.511849071E+01 -0.271956717E+00  0.286246748E+00
     4
 # iter = 25500  time[fs]=25.50000
   C -0.107150748E+01  0.488639176E-03 -0.298772210E-02
   C  0.963263613E+00  0.148190079E-01 -0.354166078E-01
   H -0.556350566E+01  0.542872923E+00  0.353314746E+00
   H  0.542320739E+01 -0.300133698E+00  0.296984234E+00
     4
 # iter = 26000  time[fs]=26.00000
   C -0.112392741E+01 -0.336189838E-02 -0.562222854E-02
   C  0.100132577E+01  0.128017518E-01 -0.397189177E-01
   H -0.591513789E+01  0.561945388E+00  0.361463758E+00
   H  0.572856865E+01 -0.334110448E+00  0.302703159E+00
     4
 # iter = 26500  time[fs]=26.50000
   C -0.117750290E+01 -0.568535199E-02 -0.666383675E-02
   C  0.104428664E+01  0.130544885E-01 -0.418616858E-01
   H -0.626072896E+01  0.592169056E+00  0.380600086E+00
   H  0.605001607E+01 -0.357758060E+00  0.319450749E+00
     4
 # iter = 27000  time[fs]=27.00000
   C -0.123188967E+01 -0.636270873E-02 -0.599761779E-02
   C  0.109209139E+01  0.157430411E-01 -0.416704246E-01
   H -0.659898109E+01  0.634287158E+00  0.411484570E+00
   H  0.638777185E+01 -0.370244645E+00  0.347986322E+00
     4
 # iter = 27500  time[fs]=27.50000
   C -0.128863287E+01 -0.715053754E-02 -0.538408028E-02
   C  0.114202884E+01  0.183607681E-01 -0.416436577E-01
   H -0.694143867E+01  0.676295638E+00  0.442127727E+00
   H  0.672935476E+01 -0.383509035E+00  0.376306329E+00
     4
 # iter = 28000  time[fs]=28.00000
   C -0.134878136E+01 -0.929119182E-02 -0.606934987E-02
   C  0.119213724E+01  0.191336886E-01 -0.435480133E-01
   H -0.729620488E+01  0.709694687E+00  0.464042312E+00
   H  0.706585745E+01 -0.405993361E+00  0.395913115E+00
     4
 # iter = 28500  time[fs]=28.50000
   C -0.141165642E+01 -0.122802156E-01 -0.755255070E-02
   C  0.124296074E+01  0.187769693E-01 -0.466617912E-01
   H -0.765953976E+01  0.737872628E+00  0.480627785E+00
   H  0.740033674E+01 -0.434250098E+00  0.410207622E+00
     4
 # iter = 29000  time[fs]=29.00000
   C -0.147586582E+01 -0.148826088E-01 -0.860205166E-02
   C  0.129610030E+01  0.190467858E-01 -0.492229455E-01
   H -0.802277080E+01  0.769191820E+00  0.500256329E+00
   H  0.774087708E+01 -0.459860672E+00  0.427568589E+00
     4
 # iter = 29500  time[fs]=29.50000
   C -0.154083902E+01 -0.166706673E-01 -0.879329929E-02
   C  0.135202093E+01  0.205487776E-01 -0.506204534E-01
   H -0.838275622E+01  0.806525077E+00  0.525809281E+00
   H  0.809010100E+01 -0.479906989E+00  0.450878793E+00
     4
 # iter = 30000  time[fs]=30.00000
   C -0.160704143E+01 -0.182397224E-01 -0.872455842E-02
   C  0.140974309E+01  0.224306449E-01 -0.517016496E-01
   H -0.874334819E+01  0.845787378E+00  0.553209002E+00
   H  0.844369262E+01 -0.498440042E+00  0.476055480E+00
     4
 # iter = 30500  time[fs]=30.50000
   C -0.167501997E+01 -0.202541570E-01 -0.906293479E-02
   C  0.146820130E+01  0.237418603E-01 -0.534125251E-01
   H -0.910889342E+01  0.882427315E+00  0.577910582E+00
   H  0.879689461E+01 -0.519981962E+00  0.498548261E+00
     4
 # iter = 31000  time[fs]=31.00000
   C -0.174467670E+01 -0.227217171E-01 -0.981869538E-02
   C  0.152727746E+01  0.244679992E-01 -0.557633963E-01
   H -0.947928876E+01  0.916365164E+00  0.599840110E+00
   H  0.914945018E+01 -0.544582941E+00  0.518282079E+00
     4
 # iter = 31500  time[fs]=31.50000
   C -0.181548061E+01 -0.252065085E-01 -0.105582752E-01
   C  0.158749602E+01  0.252271334E-01 -0.581324662E-01
   H -0.985142833E+01  0.950542803E+00  0.621944678E+00
   H  0.950414794E+01 -0.569272104E+00  0.538205848E+00
     4
 # iter = 32000  time[fs]=32.00000
   C -0.188707503E+01 -0.274377956E-01 -0.110130888E-01
   C  0.164915524E+01  0.264020595E-01 -0.601335372E-01
   H -0.102233459E+02  0.986779922E+00  0.646048646E+00
   H  0.986266984E+01 -0.592204547E+00  0.560144789E+00
     4
 # iter = 32500  time[fs]=32.50000
   C -0.195949490E+01 -0.295283391E-01 -0.112978802E-01
   C  0.171201496E+01  0.278290922E-01 -0.619271743E-01
   H -0.105956994E+02  0.102428788E+01  0.671367541E+00
   H  0.102241006E+02 -0.614148446E+00  0.583312910E+00
     4
 # iter = 33000  time[fs]=33.00000
   C -0.203290373E+01 -0.317121951E-01 -0.116485343E-01
   C  0.177566953E+01  0.291718300E-01 -0.638469181E-01
   H -0.109699839E+02  0.106145428E+01  0.696292724E+00
   H  0.105867125E+02 -0.636698541E+00  0.606099341E+00
     4
 # iter = 33500  time[fs]=33.50000
   C -0.210730532E+01 -0.340570748E-01 -0.121344488E-01
   C  0.183995709E+01  0.303311716E-01 -0.659892515E-01
   H -0.113465717E+02  0.109780069E+01  0.720349154E+00
   H  0.109499243E+02 -0.660316421E+00  0.628027915E+00
     4
 # iter = 34000  time[fs]=34.00000
   C -0.218254023E+01 -0.364614683E-01 -0.126556694E-01
   C  0.190496296E+01  0.314494002E-01 -0.682094943E-01
   H -0.117246916E+02  0.113400198E+01  0.744214776E+00
   H  0.113143189E+02 -0.684310951E+00  0.649776585E+00
     4
 # iter = 34500  time[fs]=34.50000
   C -0.225845657E+01 -0.388261683E-01 -0.131144245E-01
   C  0.197077451E+01  0.326656619E-01 -0.703662994E-01
   H -0.121035957E+02  0.117071855E+01  0.768552806E+00
   H  0.116804734E+02 -0.708006877E+00  0.672008610E+00
     4
 # iter = 35000  time[fs]=35.00000
   C -0.233500699E+01 -0.411518024E-01 -0.135126672E-01
   C  0.203734155E+01  0.339769255E-01 -0.724606724E-01
   H -0.124832226E+02  0.120793234E+01  0.793347740E+00
   H  0.120482931E+02 -0.731409288E+00  0.694707946E+00
     4
 # iter = 35500  time[fs]=35.50000
   C -0.241220292E+01 -0.434935814E-01 -0.139068335E-01
   C  0.210454037E+01  0.353024866E-01 -0.745714504E-01
   H -0.128638880E+02  0.124525479E+01  0.818213357E+00
   H  0.124173193E+02 -0.754895214E+00  0.717487517E+00
     4
 # iter = 36000  time[fs]=36.00000
   C -0.249003405E+01 -0.458811960E-01 -0.143277477E-01
   C  0.217228748E+01  0.365981506E-01 -0.767411056E-01
   H -0.132457395E+02  0.128247203E+01  0.842937941E+00
   H  0.127872739E+02 -0.778667817E+00  0.740134952E+00
     4
 # iter = 36500  time[fs]=36.50000
   C -0.256844964E+01 -0.483004977E-01 -0.147623103E-01
   C  0.224056533E+01  0.378823401E-01 -0.789496251E-01
   H -0.136286305E+02  0.131966954E+01  0.867608915E+00
   H  0.131581837E+02 -0.802631558E+00  0.762737328E+00
     4
 # iter = 37000  time[fs]=37.00000
   C -0.264739194E+01 -0.507272914E-01 -0.151872989E-01
   C  0.230937382E+01  0.391879095E-01 -0.811626838E-01
   H -0.140123504E+02  0.135700192E+01  0.892382721E+00
   H  0.135301496E+02 -0.826622456E+00  0.785450832E+00
     4
 # iter = 37500  time[fs]=37.50000
   C -0.272682367E+01 -0.531551005E-01 -0.155971394E-01
   C  0.237869037E+01  0.405225568E-01 -0.833712210E-01
   H -0.143968127E+02  0.139450390E+01  0.917295747E+00
   H  0.139031567E+02 -0.850597264E+00  0.808311515E+00
     4
 # iter = 38000  time[fs]=38.00000
   C -0.280672467E+01 -0.555921055E-01 -0.160008502E-01
   C  0.244847406E+01  0.418731816E-01 -0.855870731E-01
   H -0.147820341E+02  0.143211106E+01  0.942285132E+00
   H  0.142770946E+02 -0.874612590E+00  0.831256111E+00
     4
 # iter = 38500  time[fs]=38.50000
   C -0.288707581E+01 -0.580452945E-01 -0.164061991E-01
   C  0.251868792E+01  0.432284732E-01 -0.878203764E-01
   H -0.151680262E+02  0.146976772E+01  0.967296619E+00
   H  0.146518653E+02 -0.898716896E+00  0.854229985E+00
     4
 # iter = 39000  time[fs]=39.00000
   C -0.296785217E+01 -0.605138090E-01 -0.168130529E-01
   C  0.258930825E+01  0.445883909E-01 -0.900700796E-01
   H -0.155547497E+02  0.150747216E+01  0.992329817E+00
   H  0.150274275E+02 -0.922905149E+00  0.877232441E+00
     4
 # iter = 39500  time[fs]=39.50000
   C -0.304902715E+01 -0.629933491E-01 -0.172177878E-01
   C  0.266031814E+01  0.459578773E-01 -0.923302229E-01
   H -0.159421446E+02  0.154524657E+01  0.101740817E+01
   H  0.154037672E+02 -0.947148838E+00  0.900286660E+00
     4
 # iter = 40000  time[fs]=40.00000
   C -0.313057788E+01 -0.654816200E-01 -0.176187401E-01
   C  0.273169949E+01  0.473390882E-01 -0.945977020E-01
   H -0.163301664E+02  0.158309999E+01  0.104254185E+01
   H  0.157808595E+02 -0.971433091E+00  0.923402551E+00
     4
 # iter = 40500  time[fs]=40.50000
   C -0.321248561E+01 -0.679789777E-01 -0.180168549E-01
   C  0.280343200E+01  0.487304673E-01 -0.968731875E-01
   H -0.167187909E+02  0.162102381E+01  0.106772333E+01
   H  0.161586641E+02 -0.995761069E+00  0.946572321E+00
     4
 # iter = 41000  time[fs]=41.00000
   C -0.329473339E+01 -0.704862178E-01 -0.184134789E-01
   C  0.287549614E+01  0.501298933E-01 -0.991579726E-01
   H -0.171079985E+02  0.165900680E+01  0.109294239E+01
   H  0.165371404E+02 -0.102013890E+01  0.969785515E+00
     4
 # iter = 41500  time[fs]=41.50000
   C -0.337730460E+01 -0.730031920E-01 -0.188089795E-01
   C  0.294787501E+01  0.515366488E-01 -0.101452000E+00
   H -0.174977651E+02  0.169704456E+01  0.111819556E+01
   H  0.169162564E+02 -0.104456624E+01  0.993038420E+00
     4
 # iter = 42000  time[fs]=42.00000
   C -0.346018311E+01 -0.755291170E-01 -0.192030569E-01
   C  0.302055378E+01  0.529509745E-01 -0.103754302E+00
   H -0.178880636E+02  0.173513731E+01  0.114348394E+01
   H  0.172959867E+02 -0.106903841E+01  0.101633193E+01
     4
 # iter = 42500  time[fs]=42.50000
   C -0.354335395E+01 -0.780633286E-01 -0.195955001E-01
   C  0.309351853E+01  0.543729921E-01 -0.106064076E+00
   H -0.182788692E+02  0.177328476E+01  0.116880808E+01
   H  0.176763069E+02 -0.109355149E+01  0.103966640E+01
     4
 # iter = 43000  time[fs]=43.00000
   C -0.362680346E+01 -0.806055067E-01 -0.199864150E-01
   C  0.316675584E+01  0.558023785E-01 -0.108381005E+00
   H -0.186701605E+02  0.181148459E+01  0.119416641E+01
   H  0.180571919E+02 -0.111810390E+01  0.106304006E+01
     4
 # iter = 43500  time[fs]=43.50000
   C -0.371051897E+01 -0.831554650E-01 -0.203760155E-01
   C  0.324025300E+01  0.572386631E-01 -0.110704957E+00
   H -0.190619185E+02  0.184973381E+01  0.121955668E+01
   H  0.184386177E+02 -0.114269492E+01  0.108645049E+01
     4
 # iter = 44000  time[fs]=44.00000
   C -0.379448856E+01 -0.857129578E-01 -0.207644325E-01
   C  0.331399821E+01  0.586815005E-01 -0.113035713E+00
   H -0.194541247E+02  0.188803007E+01  0.124497724E+01
   H  0.188205619E+02 -0.116732342E+01  0.110989584E+01
     4
 # iter = 44500  time[fs]=44.50000
   C -0.387870099E+01 -0.882776741E-01 -0.211517099E-01
   C  0.338798051E+01  0.601306760E-01 -0.115372952E+00
   H -0.198467610E+02  0.192637171E+01  0.127042706E+01
   H  0.192030041E+02 -0.119198779E+01  0.113337495E+01
     4
 # iter = 45000  time[fs]=45.00000
   C -0.396314570E+01 -0.908493102E-01 -0.215378782E-01
   C  0.346218966E+01  0.615859994E-01 -0.117716361E+00
   H -0.202398106E+02  0.196475720E+01  0.129590523E+01
   H  0.195859250E+02 -0.121668646E+01  0.115688674E+01
     4
 # iter = 45500  time[fs]=45.50000
   C -0.404781279E+01 -0.934276044E-01 -0.219229915E-01
   C  0.353661599E+01  0.630472535E-01 -0.120065684E+00
   H -0.206332577E+02  0.200318496E+01  0.132141074E+01
   H  0.199693064E+02 -0.124141810E+01  0.118043004E+01
     4
 # iter = 46000  time[fs]=46.00000
   C -0.413269299E+01 -0.960123235E-01 -0.223071147E-01
   C  0.361125039E+01  0.645142107E-01 -0.122420697E+00
   H -0.210270872E+02  0.204165335E+01  0.134694250E+01
   H  0.203531308E+02 -0.126618157E+01  0.120400365E+01
     4
 # iter = 46500  time[fs]=46.50000
   C -0.421777755E+01 -0.986032439E-01 -0.226903059E-01
   C  0.368608430E+01  0.659866590E-01 -0.124781189E+00
   H -0.214212853E+02  0.208016087E+01  0.137249952E+01
   H  0.207373818E+02 -0.129097577E+01  0.122760643E+01
     4
 # iter = 47000  time[fs]=47.00000
   C -0.430305823E+01 -0.101200147E+00 -0.230726128E-01
   C  0.376110966E+01  0.674644062E-01 -0.127146949E+00
   H -0.218158385E+02  0.211870612E+01  0.139808089E+01
   H  0.211220439E+02 -0.131579961E+01  0.125123734E+01
     4
 # iter = 47500  time[fs]=47.50000
   C -0.438852726E+01 -0.103802821E+00 -0.234540779E-01
   C  0.383631887E+01  0.689472724E-01 -0.129517776E+00
   H -0.222107342E+02  0.215728780E+01  0.142368579E+01
   H  0.215071025E+02 -0.134065205E+01  0.127489544E+01
     4
 # iter = 48000  time[fs]=48.00000
   C -0.447417730E+01 -0.106411070E+00 -0.238347423E-01
   C  0.391170475E+01  0.704350848E-01 -0.131893483E+00
   H -0.226059604E+02  0.219590466E+01  0.144931340E+01
   H  0.218925436E+02 -0.136553211E+01  0.129857980E+01
     4
 # iter = 48500  time[fs]=48.50000
   C -0.456000141E+01 -0.109024706E+00 -0.242146456E-01
   C  0.398726053E+01  0.719276767E-01 -0.134273892E+00
   H -0.230015056E+02  0.223455551E+01  0.147496295E+01
   H  0.222783540E+02 -0.139043885E+01  0.132228954E+01
     4
 # iter = 49000  time[fs]=49.00000
   C -0.464599306E+01 -0.111643550E+00 -0.245938250E-01
   C  0.406297978E+01  0.734248896E-01 -0.136658836E+00
   H -0.233973591E+02  0.227323922E+01  0.150063370E+01
   H  0.226645212E+02 -0.141537141E+01  0.134602381E+01
     4
 # iter = 49500  time[fs]=49.50000
   C -0.473214602E+01 -0.114267431E+00 -0.249723150E-01
   C  0.413885646E+01  0.749265726E-01 -0.139048157E+00
   H -0.237935107E+02  0.231195471E+01  0.152632495E+01
   H  0.230510332E+02 -0.144032894E+01  0.136978181E+01
     4
 # iter = 50000  time[fs]=50.00000
   C -0.481845442E+01 -0.116896189E+00 -0.253501479E-01
   C  0.421488480E+01  0.764325824E-01 -0.141441703E+00
   H -0.241899504E+02  0.235070096E+01  0.155203604E+01
   H  0.234378787E+02 -0.146531063E+01  0.139356280E+01
     4
 # iter = 50500  time[fs]=50.50000
   C -0.490491268E+01 -0.119529667E+00 -0.257273538E-01
   C  0.429105937E+01  0.779427820E-01 -0.143839332E+00
   H -0.245866691E+02  0.238947698E+01  0.157776634E+01
   H  0.238250469E+02 -0.149031574E+01  0.141736603E+01
     4
 # iter = 51000  time[fs]=51.00000
   C -0.499151552E+01 -0.122167718E+00 -0.261039614E-01
   C  0.436737498E+01  0.794570406E-01 -0.146240906E+00
   H -0.249836578E+02  0.242828185E+01  0.160351525E+01
   H  0.242125274E+02 -0.151534353E+01  0.144119083E+01
     4
 # iter = 51500  time[fs]=51.50000
   C -0.507825792E+01 -0.124810201E+00 -0.264799973E-01
   C  0.444382672E+01  0.809752331E-01 -0.148646296E+00
   H -0.253809080E+02  0.246711468E+01  0.162928219E+01
   H  0.246003106E+02 -0.154039330E+01  0.146503653E+01
     4
 # iter = 52000  time[fs]=52.00000
   C -0.516513510E+01 -0.127456980E+00 -0.268554870E-01
   C  0.452040994E+01  0.824972400E-01 -0.151055378E+00
   H -0.257784118E+02  0.250597463E+01  0.165506660E+01
   H  0.249883869E+02 -0.156546440E+01  0.148890250E+01
     4
 # iter = 52500  time[fs]=52.50000
   C -0.525214251E+01 -0.130107927E+00 -0.272304541E-01
   C  0.459712019E+01  0.840229469E-01 -0.153468035E+00
   H -0.261761614E+02  0.254486087E+01  0.168086798E+01
   H  0.253767475E+02 -0.159055619E+01  0.151278814E+01
     4
 # iter = 53000  time[fs]=53.00000
   C -0.533927584E+01 -0.132762918E+00 -0.276049211E-01
   C  0.467395325E+01  0.855522446E-01 -0.155884154E+00
   H -0.265741494E+02  0.258377265E+01  0.170668580E+01
   H  0.257653838E+02 -0.161566807E+01  0.153669288E+01
     4
 # iter = 53500  time[fs]=53.50000
   C -0.542653096E+01 -0.135421835E+00 -0.279789091E-01
   C  0.475090509E+01  0.870850282E-01 -0.158303629E+00
   H -0.269723688E+02  0.262270920E+01  0.173251960E+01
   H  0.261542877E+02 -0.164079944E+01  0.156061616E+01
     4
 # iter = 54000  time[fs]=54.00000
   C -0.551390396E+01 -0.138084565E+00 -0.283524382E-01
   C  0.482797188E+01  0.886211974E-01 -0.160726357E+00
   H -0.273708128E+02  0.266166983E+01  0.175836892E+01
   H  0.265434513E+02 -0.166594977E+01  0.158455745E+01
     4
 # iter = 54500  time[fs]=54.50000
   C -0.560139109E+01 -0.140750999E+00 -0.287255273E-01
   C  0.490514996E+01  0.901606559E-01 -0.163152240E+00
   H -0.277694750E+02  0.270065386E+01  0.178423331E+01
   H  0.269328671E+02 -0.169111852E+01  0.160851626E+01
     4
 # iter = 55000  time[fs]=55.00000
   C -0.568898877E+01 -0.143421033E+00 -0.290981942E-01
   C  0.498243584E+01  0.917033115E-01 -0.165581185E+00
   H -0.281683492E+02  0.273966063E+01  0.181011235E+01
   H  0.273225280E+02 -0.171630517E+01  0.163249208E+01
     4
 # iter = 55500  time[fs]=55.50000
   C -0.577669359E+01 -0.146094567E+00 -0.294704558E-01
   C  0.505982619E+01  0.932490756E-01 -0.168013102E+00
   H -0.285674295E+02  0.277868951E+01  0.183600564E+01
   H  0.277124271E+02 -0.174150923E+01  0.165648447E+01
     4
 # iter = 56000  time[fs]=56.00000
   C -0.586450230E+01 -0.148771506E+00 -0.298423283E-01
   C  0.513731782E+01  0.947978633E-01 -0.170447907E+00
   H -0.289667102E+02  0.281773992E+01  0.186191279E+01
   H  0.281025579E+02 -0.176673025E+01  0.168049296E+01
     4
 # iter = 56500  time[fs]=56.50000
   C -0.595241177E+01 -0.151451757E+00 -0.302138269E-01
   C  0.521490768E+01  0.963495928E-01 -0.172885516E+00
   H -0.293661859E+02  0.285681126E+01  0.188783343E+01
   H  0.284929139E+02 -0.179196776E+01  0.170451714E+01
     4
 # iter = 57000  time[fs]=57.00000
   C -0.604041902E+01 -0.154135232E+00 -0.305849659E-01
   C  0.529259286E+01  0.979041856E-01 -0.175325851E+00
   H -0.297658512E+02  0.289590300E+01  0.191376720E+01
   H  0.288834891E+02 -0.181722133E+01  0.172855659E+01
     4
 # iter = 57500  time[fs]=57.50000
   C -0.612852119E+01 -0.156821846E+00 -0.309557590E-01
   C  0.537037057E+01  0.994615664E-01 -0.177768837E+00
   H -0.301657012E+02  0.293501458E+01  0.193971376E+01
   H  0.292742778E+02 -0.184249054E+01  0.175261092E+01
     4
 # iter = 58000  time[fs]=58.00000
   C -0.621671555E+01 -0.159511517E+00 -0.313262193E-01
   C  0.544823813E+01  0.101021663E+00 -0.180214402E+00
   H -0.305657311E+02  0.297414552E+01  0.196567277E+01
   H  0.296652742E+02 -0.186777500E+01  0.177667973E+01
     4
 # iter = 58500  time[fs]=58.50000
   C -0.630499946E+01 -0.162204166E+00 -0.316963591E-01
   C  0.552619299E+01  0.102584404E+00 -0.182662476E+00
   H -0.309659362E+02  0.301329530E+01  0.199164392E+01
   H  0.300564731E+02 -0.189307432E+01  0.180076267E+01
     4
 # iter = 59000  time[fs]=59.00000
   C -0.639337042E+01 -0.164899718E+00 -0.320661903E-01
   C  0.560423269E+01  0.104149724E+00 -0.185112992E+00
   H -0.313663119E+02  0.305246347E+01  0.201762690E+01
   H  0.304478691E+02 -0.191838812E+01  0.182485939E+01
     4
 # iter = 59500  time[fs]=59.50000
   C -0.648182602E+01 -0.167598100E+00 -0.324357239E-01
   C  0.568235486E+01  0.105717557E+00 -0.187565887E+00
   H -0.317668541E+02  0.309164956E+01  0.204362141E+01
   H  0.308394574E+02 -0.194371605E+01  0.184896954E+01
     4
 # iter = 60000  time[fs]=60.00000
   C -0.657036393E+01 -0.170299241E+00 -0.328049707E-01
   C  0.576055726E+01  0.107287842E+00 -0.190021098E+00
   H -0.321675586E+02  0.313085313E+01  0.206962718E+01
   H  0.312312331E+02 -0.196905777E+01  0.187309279E+01
     4
 # iter = 60500  time[fs]=60.50000
   C -0.665898192E+01 -0.173003074E+00 -0.331739408E-01
   C  0.583883770E+01  0.108860517E+00 -0.192478566E+00
   H -0.325684214E+02  0.317007376E+01  0.209564392E+01
   H  0.316231916E+02 -0.199441293E+01  0.189722883E+01
     4
 # iter = 61000  time[fs]=61.00000
   C -0.674767787E+01 -0.175709533E+00 -0.335426439E-01
   C  0.591719410E+01  0.110435526E+00 -0.194938234E+00
   H -0.329694385E+02  0.320931104E+01  0.212167139E+01
   H  0.320153285E+02 -0.201978123E+01  0.192137735E+01
     4
 # iter = 61500  time[fs]=61.50000
   C -0.683644972E+01 -0.178418555E+00 -0.339110892E-01
   C  0.599562444E+01  0.112012811E+00 -0.197400048E+00
   H -0.333706064E+02  0.324856457E+01  0.214770931E+01
   H  0.324076394E+02 -0.204516234E+01  0.194553806E+01
     4
 # iter = 62000  time[fs]=62.00000
   C -0.692529547E+01 -0.181130080E+00 -0.342792856E-01
   C  0.607412681E+01  0.113592319E+00 -0.199863954E+00
   H -0.337719215E+02  0.328783399E+01  0.217375744E+01
   H  0.328001202E+02 -0.207055598E+01  0.196971068E+01
     4
 # iter = 62500  time[fs]=62.50000
   C -0.701421325E+01 -0.183844048E+00 -0.346472415E-01
   C  0.615269934E+01  0.115173998E+00 -0.202329901E+00
   H -0.341733802E+02  0.332711891E+01  0.219981555E+01
   H  0.331927669E+02 -0.209596185E+01  0.199389493E+01
     4
 # iter = 63000  time[fs]=63.00000
   C -0.710320120E+01 -0.186560404E+00 -0.350149649E-01
   C  0.623134025E+01  0.116757797E+00 -0.204797840E+00
   H -0.345749792E+02  0.336641898E+01  0.222588342E+01
   H  0.335855756E+02 -0.212137968E+01  0.201809055E+01
     4
 # iter = 63500  time[fs]=63.50000
   C -0.719225757E+01 -0.189279091E+00 -0.353824635E-01
   C  0.631004780E+01  0.118343668E+00 -0.207267724E+00
   H -0.349767154E+02  0.340573387E+01  0.225196080E+01
   H  0.339785426E+02 -0.214680919E+01  0.204229728E+01
     4
 # iter = 64000  time[fs]=64.00000
   C -0.728138066E+01 -0.192000058E+00 -0.357497447E-01
   C  0.638882035E+01  0.119931564E+00 -0.209739506E+00
   H -0.353785855E+02  0.344506324E+01  0.227804750E+01
   H  0.343716643E+02 -0.217225012E+01  0.206651487E+01
     4
 # iter = 64500  time[fs]=64.50000
   C -0.737056882E+01 -0.194723253E+00 -0.361168155E-01
   C  0.646765629E+01  0.121521439E+00 -0.212213143E+00
   H -0.357805867E+02  0.348440676E+01  0.230414331E+01
   H  0.347649372E+02 -0.219770223E+01  0.209074308E+01
     4
 # iter = 65000  time[fs]=65.00000
   C -0.745982048E+01 -0.197448627E+00 -0.364836826E-01
   C  0.654655408E+01  0.123113249E+00 -0.214688592E+00
   H -0.361827159E+02  0.352376414E+01  0.233024802E+01
   H  0.351583579E+02 -0.222316527E+01  0.211498168E+01
     4
 # iter = 65500  time[fs]=65.50000
   C -0.754913411E+01 -0.200176131E+00 -0.368503525E-01
   C  0.662551224E+01  0.124706951E+00 -0.217165811E+00
   H -0.365849704E+02  0.356313506E+01  0.235636145E+01
   H  0.355519232E+02 -0.224863900E+01  0.213923045E+01
     4
 # iter = 66000  time[fs]=66.00000
   C -0.763850824E+01 -0.202905719E+00 -0.372168314E-01
   C  0.670452932E+01  0.126302505E+00 -0.219644761E+00
   H -0.369873475E+02  0.360251925E+01  0.238248340E+01
   H  0.359456300E+02 -0.227412320E+01  0.216348918E+01
     4
 # iter = 66500  time[fs]=66.50000
   C -0.772794145E+01 -0.205637346E+00 -0.375831253E-01
   C  0.678360394E+01  0.127899871E+00 -0.222125403E+00
   H -0.373898444E+02  0.364191641E+01  0.240861369E+01
   H  0.363394751E+02 -0.229961764E+01  0.218775764E+01
     4
 # iter = 67000  time[fs]=67.00000
   C -0.781743236E+01 -0.208370970E+00 -0.379492397E-01
   C  0.686273476E+01  0.129499009E+00 -0.224607700E+00
   H -0.377924587E+02  0.368132628E+01  0.243475215E+01
   H  0.367334556E+02 -0.232512211E+01  0.221203564E+01
     4
 # iter = 67500  time[fs]=67.50000
   C -0.790697965E+01 -0.211106547E+00 -0.383151801E-01
   C  0.694192048E+01  0.131099882E+00 -0.227091615E+00
   H -0.381951879E+02  0.372074859E+01  0.246089861E+01
   H  0.371275686E+02 -0.235063640E+01  0.223632297E+01
     4
 # iter = 68000  time[fs]=68.00000
   C -0.799658204E+01 -0.213844036E+00 -0.386809518E-01
   C  0.702115986E+01  0.132702455E+00 -0.229577114E+00
   H -0.385980296E+02  0.376018308E+01  0.248705290E+01
   H  0.375218114E+02 -0.237616032E+01  0.226061946E+01
     4
 # iter = 68500  time[fs]=68.50000
   C -0.808623829E+01 -0.216583399E+00 -0.390465599E-01
   C  0.710045169E+01  0.134306692E+00 -0.232064163E+00
   H -0.390009814E+02  0.379962951E+01  0.251321487E+01
   H  0.379161814E+02 -0.240169366E+01  0.228492490E+01
     4
 # iter = 69000  time[fs]=69.00000
   C -0.817594719E+01 -0.219324597E+00 -0.394120090E-01
   C  0.717979480E+01  0.135912558E+00 -0.234552729E+00
   H -0.394040412E+02  0.383908764E+01  0.253938435E+01
   H  0.383106758E+02 -0.242723623E+01  0.230923913E+01
     4
 # iter = 69500  time[fs]=69.50000
   C -0.826570759E+01 -0.222067593E+00 -0.397773039E-01
   C  0.725918805E+01  0.137520022E+00 -0.237042781E+00
   H -0.398072066E+02  0.387855723E+01  0.256556119E+01
   H  0.387052921E+02 -0.245278786E+01  0.233356197E+01
     4
 # iter = 70000  time[fs]=70.00000
   C -0.835551837E+01 -0.224812350E+00 -0.401424491E-01
   C  0.733863035E+01  0.139129050E+00 -0.239534287E+00
   H -0.402104757E+02  0.391803806E+01  0.259174526E+01
   H  0.391000280E+02 -0.247834836E+01  0.235789324E+01
     4
 # iter = 70500  time[fs]=70.50000
   C -0.844537843E+01 -0.227558833E+00 -0.405074488E-01
   C  0.741812064E+01  0.140739611E+00 -0.242027218E+00
   H -0.406138463E+02  0.395752990E+01  0.261793641E+01
   H  0.394948809E+02 -0.250391757E+01  0.238223279E+01
     4
 # iter = 71000  time[fs]=71.00000
   C -0.853528673E+01 -0.230307009E+00 -0.408723071E-01
   C  0.749765789E+01  0.142351675E+00 -0.244521545E+00
   H -0.410173165E+02  0.399703255E+01  0.264413450E+01
   H  0.398898487E+02 -0.252949530E+01  0.240658045E+01
     4
 # iter = 71500  time[fs]=71.50000
   C -0.862524224E+01 -0.233056844E+00 -0.412370281E-01
   C  0.757724111E+01  0.143965214E+00 -0.247017239E+00
   H -0.414208842E+02  0.403654579E+01  0.267033939E+01
   H  0.402849291E+02 -0.255508141E+01  0.243093606E+01
     4
 # iter = 72000  time[fs]=72.00000
   C -0.871524398E+01 -0.235808306E+00 -0.416016155E-01
   C  0.765686934E+01  0.145580197E+00 -0.249514274E+00
   H -0.418245477E+02  0.407606943E+01  0.269655096E+01
   H  0.406801198E+02 -0.258067573E+01  0.245529949E+01
     4
 # iter = 72500  time[fs]=72.50000
   C -0.880529099E+01 -0.238561364E+00 -0.419660730E-01
   C  0.773654163E+01  0.147196599E+00 -0.252012624E+00
   H -0.422283052E+02  0.411560326E+01  0.272276909E+01
   H  0.410754189E+02 -0.260627810E+01  0.247967057E+01
     4
 # iter = 73000  time[fs]=73.00000
   C -0.889538233E+01 -0.241315988E+00 -0.423304042E-01
   C  0.781625708E+01  0.148814390E+00 -0.254512261E+00
   H -0.426321547E+02  0.415514710E+01  0.274899364E+01
   H  0.414708241E+02 -0.263188838E+01  0.250404917E+01
     4
 # iter = 73500  time[fs]=73.50000
   C -0.898551710E+01 -0.244072149E+00 -0.426946125E-01
   C  0.789601482E+01  0.150433547E+00 -0.257013163E+00
   H -0.430360946E+02  0.419470077E+01  0.277522450E+01
   H  0.418663336E+02 -0.265750642E+01  0.252843515E+01
     4
 # iter = 74000  time[fs]=74.00000
   C -0.907569444E+01 -0.246829817E+00 -0.430587012E-01
   C  0.797581398E+01  0.152054042E+00 -0.259515303E+00
   H -0.434401232E+02  0.423426408E+01  0.280146155E+01
   H  0.422619453E+02 -0.268313208E+01  0.255282838E+01
     4
 # iter = 74500  time[fs]=74.50000
   C -0.916591348E+01 -0.249588964E+00 -0.434226735E-01
   C  0.805565375E+01  0.153675851E+00 -0.262018659E+00
   H -0.438442390E+02  0.427383685E+01  0.282770469E+01
   H  0.426576575E+02 -0.270876521E+01  0.257722872E+01
     4
 # iter = 75000  time[fs]=75.00000
   C -0.925617341E+01 -0.252349564E+00 -0.437865324E-01
   C  0.813553331E+01  0.155298951E+00 -0.264523209E+00
   H -0.442484402E+02  0.431341892E+01  0.285395379E+01
   H  0.430534682E+02 -0.273440570E+01  0.260163604E+01
     4
 # iter = 75500  time[fs]=75.50000
   C -0.934647343E+01 -0.255111590E+00 -0.441502810E-01
   C  0.821545189E+01  0.156923316E+00 -0.267028929E+00
   H -0.446527253E+02  0.435301012E+01  0.288020875E+01
   H  0.434493756E+02 -0.276005340E+01  0.262605022E+01
     4
 # iter = 76000  time[fs]=76.00000
   C -0.943681275E+01 -0.257875017E+00 -0.445139220E-01
   C  0.829540873E+01  0.158548926E+00 -0.269535798E+00
   H -0.450570929E+02  0.439261029E+01  0.290646948E+01
   H  0.438453781E+02 -0.278570819E+01  0.265047114E+01
     4
 # iter = 76500  time[fs]=76.50000
   C -0.952719062E+01 -0.260639820E+00 -0.448774582E-01
   C  0.837540309E+01  0.160175758E+00 -0.272043795E+00
   H -0.454615415E+02  0.443221927E+01  0.293273586E+01
   H  0.442414739E+02 -0.281136994E+01  0.267489868E+01
     4
 # iter = 77000  time[fs]=77.00000
   C -0.961760631E+01 -0.263405973E+00 -0.452408924E-01
   C  0.845543425E+01  0.161803789E+00 -0.274552899E+00
   H -0.458660696E+02  0.447183691E+01  0.295900780E+01
   H  0.446376614E+02 -0.283703853E+01  0.269933273E+01
     4
 # iter = 77500  time[fs]=77.50000
   C -0.970805910E+01 -0.266173454E+00 -0.456042270E-01
   C  0.853550152E+01  0.163432999E+00 -0.277063091E+00
   H -0.462706758E+02  0.451146305E+01  0.298528521E+01
   H  0.450339389E+02 -0.286271385E+01  0.272377318E+01
     4
 # iter = 78000  time[fs]=78.00000
   C -0.979854830E+01 -0.268942239E+00 -0.459674645E-01
   C  0.861560423E+01  0.165063367E+00 -0.279574352E+00
   H -0.466753589E+02  0.455109756E+01  0.301156798E+01
   H  0.454303050E+02 -0.288839579E+01  0.274821991E+01
     4
 # iter = 78500  time[fs]=78.50000
   C -0.988907324E+01 -0.271712306E+00 -0.463306075E-01
   C  0.869574171E+01  0.166694874E+00 -0.282086661E+00
   H -0.470801174E+02  0.459074029E+01  0.303785603E+01
   H  0.458267581E+02 -0.291408422E+01  0.277267281E+01
     4
 # iter = 79000  time[fs]=79.00000
   C -0.997963324E+01 -0.274483633E+00 -0.466936581E-01
   C  0.877591333E+01  0.168327499E+00 -0.284600002E+00
   H -0.474849502E+02  0.463039111E+01  0.306414927E+01
   H  0.462232966E+02 -0.293977904E+01  0.279713180E+01
     4
 # iter = 79500  time[fs]=79.50000
   C -0.100702277E+02 -0.277256198E+00 -0.470566187E-01
   C  0.885611845E+01  0.169961225E+00 -0.287114356E+00
   H -0.478898559E+02  0.467004987E+01  0.309044761E+01
   H  0.466199192E+02 -0.296548014E+01  0.282159676E+01
     4
 # iter = 80000  time[fs]=80.00000
   C -0.101608559E+02 -0.280029982E+00 -0.474194915E-01
   C  0.893635648E+01  0.171596031E+00 -0.289629705E+00
   H -0.482948333E+02  0.470971645E+01  0.311675097E+01
   H  0.470166244E+02 -0.299118742E+01  0.284606759E+01
