     4
 # iter = 25000  time[fs]=25.00000
   C -0.101183224E+01  0.396803343E-01 -0.517085695E-01
   C  0.995948442E+00 -0.266083629E-01 -0.420638516E-01
   H -0.527159977E+01 -0.356519842E+00  0.498885038E+00
   H  0.530521963E+01  0.522021562E+00  0.391532999E-02
     4
 # iter = 25500  time[fs]=25.50000
   C -0.105976704E+01  0.403603453E-01 -0.555453147E-01
   C  0.103624192E+01 -0.319105532E-01 -0.446633381E-01
   H -0.561395693E+01 -0.391124147E+00  0.523843502E+00
   H  0.561830783E+01  0.545239775E+00 -0.360779423E-02
     4
 # iter = 26000  time[fs]=26.00000
   C -0.111130115E+01  0.403917573E-01 -0.601910046E-01
   C  0.107811025E+01 -0.385435889E-01 -0.484586019E-01
   H -0.596677626E+01 -0.431523322E+00  0.543936278E+00
   H  0.593185904E+01  0.563713471E+00 -0.165012832E-01
     4
 # iter = 26500  time[fs]=26.50000
   C -0.116392916E+01  0.420434854E-01 -0.633662317E-01
   C  0.112487991E+01 -0.429449830E-01 -0.498941086E-01
   H -0.631339054E+01 -0.461593407E+00  0.575179681E+00
   H  0.626134416E+01  0.593462794E+00 -0.186798293E-01
     4
 # iter = 27000  time[fs]=27.00000
   C -0.121732091E+01  0.454211519E-01 -0.649555718E-01
   C  0.117651488E+01 -0.449298843E-01 -0.487923152E-01
   H -0.665252206E+01 -0.480502436E+00  0.618317749E+00
   H  0.660700732E+01  0.635221555E+00 -0.935161902E-02
     4
 # iter = 27500  time[fs]=27.50000
   C -0.127296573E+01  0.488247588E-01 -0.666498527E-01
   C  0.123017554E+01 -0.471330461E-01 -0.477954342E-01
   H -0.699573640E+01 -0.500184293E+00  0.661344250E+00
   H  0.695638332E+01  0.676962216E+00 -0.492371750E-03
     4
 # iter = 28000  time[fs]=28.00000
   C -0.133187561E+01  0.510498053E-01 -0.696449248E-01
   C  0.128381183E+01 -0.514167715E-01 -0.487729140E-01
   H -0.735115414E+01 -0.529077778E+00  0.695757879E+00
   H  0.730057840E+01  0.710166735E+00 -0.575684260E-03
     4
 # iter = 28500  time[fs]=28.50000
   C -0.139339938E+01  0.525741740E-01 -0.734547446E-01
   C  0.133801625E+01 -0.570179392E-01 -0.509682445E-01
   H -0.771504663E+01 -0.563737701E+00  0.724948015E+00
   H  0.764266229E+01  0.738219936E+00 -0.617952494E-02
     4
 # iter = 29000  time[fs]=29.00000
   C -0.145619902E+01  0.545796235E-01 -0.768899171E-01
   C  0.139449487E+01 -0.620757391E-01 -0.525267799E-01
   H -0.807874927E+01 -0.595750170E+00  0.757279109E+00
   H  0.799073115E+01  0.769487275E+00 -0.890665313E-02
     4
 # iter = 29500  time[fs]=29.50000
   C -0.151972742E+01  0.574710453E-01 -0.795384658E-01
   C  0.145375374E+01 -0.659437032E-01 -0.528079161E-01
   H -0.843912823E+01 -0.622198684E+00  0.795624805E+00
   H  0.834741701E+01  0.806839399E+00 -0.585822374E-02
     4
 # iter = 30000  time[fs]=30.00000
   C -0.158443465E+01  0.606687262E-01 -0.819735517E-01
   C  0.151477327E+01 -0.695139952E-01 -0.527094004E-01
   H -0.880004444E+01 -0.647131989E+00  0.835899345E+00
   H  0.870841126E+01  0.846182116E+00 -0.110303582E-02
     4
 # iter = 30500  time[fs]=30.50000
   C -0.165084904E+01  0.635269030E-01 -0.848348771E-01
   C  0.157644186E+01 -0.737828820E-01 -0.532327315E-01
   H -0.916585250E+01 -0.675069805E+00  0.873550449E+00
   H  0.906896270E+01  0.882954784E+00  0.820872366E-03
     4
 # iter = 31000  time[fs]=31.00000
   C -0.171887784E+01  0.660324947E-01 -0.881299141E-01
   C  0.163864620E+01 -0.787594797E-01 -0.543918583E-01
   H -0.953645510E+01 -0.706062579E+00  0.908498483E+00
   H  0.942882019E+01  0.917073623E+00 -0.150398305E-03
     4
 # iter = 31500  time[fs]=31.50000
   C -0.178801114E+01  0.685999958E-01 -0.914389842E-01
   C  0.170194987E+01 -0.837860515E-01 -0.555335018E-01
   H -0.990875068E+01 -0.737141437E+00  0.943686051E+00
   H  0.979077755E+01  0.951480076E+00 -0.105785150E-02
     4
 # iter = 32000  time[fs]=32.00000
   C -0.185790671E+01  0.714852582E-01 -0.945014522E-01
   C  0.176667669E+01 -0.884535144E-01 -0.562527147E-01
   H -0.102807770E+02 -0.766462713E+00  0.980933311E+00
   H  0.101565212E+02  0.987992617E+00 -0.672770278E-04
     4
 # iter = 32500  time[fs]=32.50000
   C -0.192859915E+01  0.745752339E-01 -0.974259563E-01
   C  0.183258145E+01 -0.929297418E-01 -0.567212186E-01
   H -0.106531959E+02 -0.794794177E+00  0.101945150E+01
   H  0.105251395E+02  0.102581898E+01  0.204330674E-02
     4
 # iter = 33000  time[fs]=33.00000
   C -0.200024672E+01  0.776404157E-01 -0.100437936E+00
   C  0.189924356E+01 -0.975651882E-01 -0.572930402E-01
   H -0.110275065E+02 -0.823729668E+00  0.105762793E+01
   H  0.108949081E+02  0.106334253E+01  0.367018771E-02
     4
 # iter = 33500  time[fs]=33.50000
   C -0.207285378E+01  0.806117716E-01 -0.103602670E+00
   C  0.196649884E+01 -0.102460273E+00 -0.580719019E-01
   H -0.114040842E+02 -0.853730608E+00  0.109498409E+01
   H  0.112652483E+02  0.110008197E+01  0.434374017E-02
     4
 # iter = 34000  time[fs]=34.00000
   C -0.214626735E+01  0.835834922E-01 -0.106822500E+00
   C  0.203444328E+01 -0.107461047E+00 -0.589069082E-01
   H -0.117821605E+02 -0.884106420E+00  0.113219503E+01
   H  0.116367457E+02  0.113671070E+01  0.474790985E-02
     4
 # iter = 34500  time[fs]=34.50000
   C -0.222034164E+01  0.866478138E-01 -0.110001985E+00
   C  0.210317445E+01 -0.112417159E+00 -0.596505325E-01
   H -0.121609899E+02 -0.914182379E+00  0.116992132E+01
   H  0.120099798E+02  0.117388782E+01  0.555141632E-02
     4
 # iter = 35000  time[fs]=35.00000
   C -0.229503145E+01  0.898010868E-01 -0.113141813E+00
   C  0.217264421E+01 -0.117328527E+00 -0.603053125E-01
   H -0.125405128E+02 -0.943963641E+00  0.120814491E+01
   H  0.123848579E+02  0.121159346E+01  0.674316464E-02
     4
 # iter = 35500  time[fs]=35.50000
   C -0.237034806E+01  0.929873275E-01 -0.116295225E+00
   C  0.224272643E+01 -0.122277257E+00 -0.609557869E-01
   H -0.129210474E+02 -0.973827060E+00  0.124647719E+01
   H  0.127609230E+02  0.124943701E+01  0.794059479E-02
     4
 # iter = 36000  time[fs]=36.00000
   C -0.244628176E+01  0.961753277E-01 -0.119490891E+00
   C  0.231333695E+01 -0.127307155E+00 -0.616480166E-01
   H -0.133027430E+02 -0.100397574E+01  0.128470424E+01
   H  0.131378985E+02  0.128720287E+01  0.893548647E-02
     4
 # iter = 36500  time[fs]=36.50000
   C -0.252278385E+01  0.993762779E-01 -0.122715265E+00
   C  0.238446087E+01 -0.132396162E+00 -0.623620364E-01
   H -0.136854546E+02 -0.103431427E+01  0.132291158E+01
   H  0.135158128E+02  0.132497514E+01  0.981875160E-02
     4
 # iter = 37000  time[fs]=37.00000
   C -0.259979886E+01  0.102611213E+00 -0.125945126E+00
   C  0.245610132E+01 -0.137507177E+00 -0.630626911E-01
   H -0.140689731E+02 -0.106467883E+01  0.136125385E+01
   H  0.138947679E+02  0.136290731E+01  0.107501153E-01
     4
 # iter = 37500  time[fs]=37.50000
   C -0.267729095E+01  0.105884266E+00 -0.129174310E+00
   C  0.252823745E+01 -0.142629811E+00 -0.637414019E-01
   H -0.144532132E+02 -0.109502628E+01  0.139976579E+01
   H  0.142747502E+02  0.140103291E+01  0.117688908E-01
     4
 # iter = 38000  time[fs]=38.00000
   C -0.275524076E+01  0.109185602E+00 -0.132410762E+00
   C  0.260082877E+01 -0.147775775E+00 -0.644115657E-01
   H -0.148381931E+02 -0.112541323E+01  0.143838299E+01
   H  0.146556504E+02  0.143928633E+01  0.128148246E-01
     4
 # iter = 38500  time[fs]=38.50000
   C -0.283362989E+01  0.112506664E+00 -0.135661277E+00
   C  0.267383874E+01 -0.152955034E+00 -0.650847197E-01
   H -0.152239254E+02 -0.115588815E+01  0.147704974E+01
   H  0.150373712E+02  0.147761079E+01  0.138360776E-01
     4
 # iter = 39000  time[fs]=39.00000
   C -0.291243430E+01  0.115846576E+00 -0.138925092E+00
   C  0.274724460E+01 -0.158165794E+00 -0.657605362E-01
   H -0.156103719E+02 -0.118644607E+01  0.151576434E+01
   H  0.154198724E+02  0.151600357E+01  0.148345516E-01
     4
 # iter = 39500  time[fs]=39.50000
   C -0.299162840E+01  0.119207887E+00 -0.142198127E+00
   C  0.282103056E+01 -0.163401125E+00 -0.664334535E-01
   H -0.159974734E+02 -0.121705853E+01  0.155454898E+01
   H  0.158031407E+02  0.155448599E+01  0.158358470E-01
     4
 # iter = 40000  time[fs]=40.00000
   C -0.307119007E+01  0.122591316E+00 -0.145478228E+00
   C  0.289517943E+01 -0.168657147E+00 -0.671008729E-01
   H -0.163851865E+02 -0.124771072E+01  0.159341271E+01
   H  0.161871519E+02  0.159306623E+01  0.168521259E-01
     4
 # iter = 40500  time[fs]=40.50000
   C -0.315110122E+01  0.125995130E+00 -0.148765795E+00
   C  0.296967151E+01 -0.173933999E+00 -0.677641324E-01
   H -0.167734876E+02 -0.127840583E+01  0.163234690E+01
   H  0.165718663E+02  0.163173486E+01  0.178776990E-01
     4
 # iter = 41000  time[fs]=41.00000
   C -0.323134547E+01  0.129417255E+00 -0.152061643E+00
   C  0.304448780E+01 -0.179232512E+00 -0.684251851E-01
   H -0.171623581E+02 -0.130915001E+01  0.167134036E+01
   H  0.169572440E+02  0.167047991E+01  0.189040764E-01
     4
 # iter = 41500  time[fs]=41.50000
   C -0.331190671E+01  0.132856610E+00 -0.155365680E+00
   C  0.311961192E+01 -0.184552122E+00 -0.690845202E-01
   H -0.175517745E+02 -0.133994297E+01  0.171038865E+01
   H  0.173432535E+02  0.170929625E+01  0.199293849E-01
     4
 # iter = 42000  time[fs]=42.00000
   C -0.339276934E+01  0.136312799E+00 -0.158677199E+00
   C  0.319502961E+01 -0.189891334E+00 -0.697416319E-01
   H -0.179417102E+02 -0.137078004E+01  0.174949200E+01
   H  0.177298698E+02  0.174818343E+01  0.209562445E-01
     4
 # iter = 42500  time[fs]=42.50000
   C -0.347391885E+01  0.139785383E+00 -0.161995603E+00
   C  0.327072743E+01 -0.195248853E+00 -0.703961551E-01
   H -0.183321411E+02 -0.140165736E+01  0.178865013E+01
   H  0.181170690E+02  0.178714057E+01  0.219866238E-01
     4
 # iter = 43000  time[fs]=43.00000
   C -0.355534198E+01  0.143273652E+00 -0.165320626E+00
   C  0.334669237E+01 -0.200623925E+00 -0.710482077E-01
   H -0.187230465E+02 -0.143257335E+01  0.182786072E+01
   H  0.185048267E+02  0.182616473E+01  0.230202895E-01
     4
 # iter = 43500  time[fs]=43.50000
   C -0.363702644E+01  0.146776828E+00 -0.168652130E+00
   C  0.342291210E+01 -0.206016012E+00 -0.716980756E-01
   H -0.191144077E+02 -0.146352734E+01  0.186712077E+01
   H  0.188931189E+02  0.186525236E+01  0.240562323E-01
     4
 # iter = 44000  time[fs]=44.00000
   C -0.371896065E+01  0.150294247E+00 -0.171989916E+00
   C  0.349937516E+01 -0.211424504E+00 -0.723459250E-01
   H -0.195062068E+02 -0.149451821E+01  0.190642793E+01
   H  0.192819237E+02  0.190440060E+01  0.250939747E-01
     4
 # iter = 44500  time[fs]=44.50000
   C -0.380113369E+01  0.153825357E+00 -0.175333720E+00
   C  0.357607095E+01 -0.216848710E+00 -0.729917948E-01
   H -0.198984263E+02 -0.152554438E+01  0.194578054E+01
   H  0.196712210E+02  0.194360727E+01  0.261336013E-01
     4
 # iter = 45000  time[fs]=45.00000
   C -0.388353528E+01  0.157369645E+00 -0.178683285E+00
   C  0.365298950E+01 -0.222287961E+00 -0.736357085E-01
   H -0.202910496E+02 -0.155660430E+01  0.198517709E+01
   H  0.200609919E+02  0.198287040E+01  0.271752560E-01
     4
 # iter = 45500  time[fs]=45.50000
   C -0.396615580E+01  0.160926606E+00 -0.182038390E+00
   C  0.373012142E+01 -0.227741667E+00 -0.742777274E-01
   H -0.206840613E+02 -0.158769667E+01  0.202461596E+01
   H  0.204512183E+02  0.202218792E+01  0.282188995E-01
     4
 # iter = 46000  time[fs]=46.00000
   C -0.404898620E+01  0.164495744E+00 -0.185398844E+00
   C  0.380745786E+01 -0.233209291E+00 -0.749179326E-01
   H -0.210774469E+02 -0.161882037E+01  0.206409553E+01
   H  0.208418832E+02  0.206155781E+01  0.292643922E-01
     4
 # iter = 46500  time[fs]=46.50000
   C -0.413201796E+01  0.168076595E+00 -0.188764458E+00
   C  0.388499049E+01 -0.238690322E+00 -0.755563975E-01
   H -0.214711927E+02 -0.164997430E+01  0.210361430E+01
   H  0.212329704E+02  0.210097813E+01  0.303116196E-01
     4
 # iter = 47000  time[fs]=47.00000
   C -0.421524306E+01  0.171668726E+00 -0.192135053E+00
   C  0.396271145E+01 -0.244184266E+00 -0.761931818E-01
   H -0.218652857E+02 -0.168115742E+01  0.214317087E+01
   H  0.216244646E+02  0.214044713E+01  0.313605187E-01
     4
 # iter = 47500  time[fs]=47.50000
   C -0.429865389E+01  0.175271728E+00 -0.195510450E+00
   C  0.404061334E+01 -0.249690653E+00 -0.768283396E-01
   H -0.222597136E+02 -0.171236868E+01  0.218276393E+01
   H  0.220163513E+02  0.217996313E+01  0.324110434E-01
     4
 # iter = 48000  time[fs]=48.00000
   C -0.438224331E+01  0.178885212E+00 -0.198890486E+00
   C  0.411868918E+01 -0.255209038E+00 -0.774619245E-01
   H -0.226544646E+02 -0.174360712E+01  0.222239224E+01
   H  0.224086168E+02  0.221952454E+01  0.334631404E-01
     4
 # iter = 48500  time[fs]=48.50000
   C -0.446600454E+01  0.182508806E+00 -0.202275004E+00
   C  0.419693235E+01 -0.260739001E+00 -0.780939895E-01
   H -0.230495276E+02 -0.177487183E+01  0.226205460E+01
   H  0.228012481E+02  0.225912983E+01  0.345167508E-01
     4
 # iter = 49000  time[fs]=49.00000
   C -0.454993117E+01  0.186142161E+00 -0.205663857E+00
   C  0.427533660E+01 -0.266280143E+00 -0.787245854E-01
   H -0.234448921E+02 -0.180616195E+01  0.230174988E+01
   H  0.231942328E+02  0.229877757E+01  0.355718178E-01
     4
 # iter = 49500  time[fs]=49.50000
   C -0.463401714E+01  0.189784941E+00 -0.209056901E+00
   C  0.435389601E+01 -0.271832085E+00 -0.793537602E-01
   H -0.238405481E+02 -0.183747665E+01  0.234147699E+01
   H  0.235875592E+02  0.233846637E+01  0.366282903E-01
     4
 # iter = 50000  time[fs]=50.00000
   C -0.471825670E+01  0.193436829E+00 -0.212454002E+00
   C  0.443260495E+01 -0.277394465E+00 -0.799815593E-01
   H -0.242364860E+02 -0.186881515E+01  0.238123493E+01
   H  0.239812160E+02  0.237819493E+01  0.376861210E-01
     4
 # iter = 50500  time[fs]=50.50000
   C -0.480264438E+01  0.197097523E+00 -0.215855031E+00
   C  0.451145812E+01 -0.282966939E+00 -0.806080262E-01
   H -0.246326967E+02 -0.190017670E+01  0.242102269E+01
   H  0.243751926E+02  0.241796200E+01  0.387452648E-01
     4
 # iter = 51000  time[fs]=51.00000
   C -0.488717502E+01  0.200766735E+00 -0.219259865E+00
   C  0.459045044E+01 -0.288549180E+00 -0.812332026E-01
   H -0.250291716E+02 -0.193156057E+01  0.246083937E+01
   H  0.247694788E+02  0.245776638E+01  0.398056781E-01
     4
 # iter = 51500  time[fs]=51.50000
   C -0.497184368E+01  0.204444191E+00 -0.222668386E+00
   C  0.466957713E+01 -0.294140875E+00 -0.818571285E-01
   H -0.254259024E+02 -0.196296610E+01  0.250068405E+01
   H  0.251640650E+02  0.249760693E+01  0.408673192E-01
     4
 # iter = 52000  time[fs]=52.00000
   C -0.505664570E+01  0.208129628E+00 -0.226080483E+00
   C  0.474883361E+01 -0.299741727E+00 -0.824798420E-01
   H -0.258228813E+02 -0.199439262E+01  0.254055591E+01
   H  0.255589418E+02  0.253748258E+01  0.419301488E-01
     4
 # iter = 52500  time[fs]=52.50000
   C -0.514157661E+01  0.211822797E+00 -0.229496047E+00
   C  0.482821554E+01 -0.305351450E+00 -0.831013797E-01
   H -0.262201006E+02 -0.202583952E+01  0.258045411E+01
   H  0.259541005E+02  0.257739229E+01  0.429941292E-01
     4
 # iter = 53000  time[fs]=53.00000
   C -0.522663218E+01  0.215523460E+00 -0.232914977E+00
   C  0.490771879E+01 -0.310969773E+00 -0.837217766E-01
   H -0.266175533E+02 -0.205730620E+01  0.262037790E+01
   H  0.263495327E+02  0.261733505E+01  0.440592245E-01
     4
 # iter = 53500  time[fs]=53.50000
   C -0.531180836E+01  0.219231388E+00 -0.236337173E+00
   C  0.498733941E+01 -0.316596437E+00 -0.843410661E-01
   H -0.270152324E+02 -0.208879208E+01  0.266032652E+01
   H  0.267452302E+02  0.265730991E+01  0.451254006E-01
     4
 # iter = 54000  time[fs]=54.00000
   C -0.539710131E+01  0.222946364E+00 -0.239762542E+00
   C  0.506707364E+01 -0.322231192E+00 -0.849592806E-01
   H -0.274131313E+02 -0.212029663E+01  0.270029926E+01
   H  0.271411853E+02  0.269731598E+01  0.461926246E-01
     4
 # iter = 54500  time[fs]=54.50000
   C -0.548250734E+01  0.226668178E+00 -0.243190994E+00
   C  0.514691790E+01 -0.327873802E+00 -0.855764507E-01
   H -0.278112438E+02 -0.215181931E+01  0.274029545E+01
   H  0.275373906E+02  0.273735236E+01  0.472608652E-01
     4
 # iter = 55000  time[fs]=55.00000
   C -0.556802294E+01  0.230396632E+00 -0.246622442E+00
   C  0.522686876E+01 -0.333524039E+00 -0.861926062E-01
   H -0.282095639E+02 -0.218335963E+01  0.278031442E+01
   H  0.279338391E+02  0.277741824E+01  0.483300926E-01
     4
 # iter = 55500  time[fs]=55.50000
   C -0.565364476E+01  0.234131534E+00 -0.250056803E+00
   C  0.530692296E+01 -0.339181684E+00 -0.868077754E-01
   H -0.286080856E+02 -0.221491711E+01  0.282035556E+01
   H  0.283305239E+02  0.281751279E+01  0.494002780E-01
     4
 # iter = 56000  time[fs]=56.00000
   C -0.573936960E+01  0.237872700E+00 -0.253493998E+00
   C  0.538707736E+01 -0.344846529E+00 -0.874219856E-01
   H -0.290068035E+02 -0.224649128E+01  0.286041826E+01
   H  0.287274386E+02  0.285763526E+01  0.504713940E-01
     4
 # iter = 56500  time[fs]=56.50000
   C -0.582519437E+01  0.241619955E+00 -0.256933949E+00
   C  0.546732898E+01 -0.350518372E+00 -0.880352630E-01
   H -0.294057123E+02 -0.227808170E+01  0.290050195E+01
   H  0.291245769E+02  0.289778490E+01  0.515434144E-01
     4
 # iter = 57000  time[fs]=57.00000
   C -0.591111616E+01  0.245373131E+00 -0.260376584E+00
   C  0.554767495E+01 -0.356197022E+00 -0.886476329E-01
   H -0.298048067E+02 -0.230968795E+01  0.294060607E+01
   H  0.295219327E+02  0.293796100E+01  0.526163138E-01
     4
 # iter = 57500  time[fs]=57.50000
   C -0.599713215E+01  0.249132065E+00 -0.263821831E+00
   C  0.562811254E+01 -0.361882294E+00 -0.892591195E-01
   H -0.302040820E+02 -0.234130960E+01  0.298073008E+01
   H  0.299195004E+02  0.297816287E+01  0.536900681E-01
     4
 # iter = 58000  time[fs]=58.00000
   C -0.608323963E+01  0.252896602E+00 -0.267269623E+00
   C  0.570863910E+01 -0.367574011E+00 -0.898697462E-01
   H -0.306035334E+02 -0.237294628E+01  0.302087349E+01
   H  0.303172744E+02  0.301838985E+01  0.547646540E-01
     4
 # iter = 58500  time[fs]=58.50000
   C -0.616943603E+01  0.256666592E+00 -0.270719895E+00
   C  0.578925214E+01 -0.373272001E+00 -0.904795352E-01
   H -0.310031563E+02 -0.240459759E+01  0.306103578E+01
   H  0.307152493E+02  0.305864132E+01  0.558400494E-01
     4
 # iter = 59000  time[fs]=59.00000
   C -0.625571887E+01  0.260441892E+00 -0.274172583E+00
   C  0.586994923E+01 -0.378976101E+00 -0.910885084E-01
   H -0.314029464E+02 -0.243626318E+01  0.310121649E+01
   H  0.311134200E+02  0.309891667E+01  0.569162326E-01
     4
 # iter = 59500  time[fs]=59.50000
   C -0.634208577E+01  0.264222364E+00 -0.277627627E+00
   C  0.595072805E+01 -0.384686153E+00 -0.916966864E-01
   H -0.318028995E+02 -0.246794269E+01  0.314141517E+01
   H  0.315117817E+02  0.313921529E+01  0.579931831E-01
     4
 # iter = 60000  time[fs]=60.00000
   C -0.642853445E+01  0.268007875E+00 -0.281084968E+00
   C  0.603158638E+01 -0.390402005E+00 -0.923040894E-01
   H -0.322030115E+02 -0.249963578E+01  0.318163136E+01
   H  0.319103294E+02  0.317953664E+01  0.590708811E-01
     4
 # iter = 60500  time[fs]=60.50000
   C -0.651506271E+01  0.271798297E+00 -0.284544551E+00
   C  0.611252207E+01 -0.396123511E+00 -0.929107366E-01
   H -0.326032784E+02 -0.253134213E+01  0.322186466E+01
   H  0.323090587E+02  0.321988016E+01  0.601493075E-01
     4
 # iter = 61000  time[fs]=61.00000
   C -0.660166843E+01  0.275593506E+00 -0.288006320E+00
   C  0.619353308E+01 -0.401850530E+00 -0.935166468E-01
   H -0.330036967E+02 -0.256306142E+01  0.326211463E+01
   H  0.327079652E+02  0.326024532E+01  0.612284439E-01
     4
 # iter = 61500  time[fs]=61.50000
   C -0.668834960E+01  0.279393384E+00 -0.291470224E+00
   C  0.627461743E+01 -0.407582926E+00 -0.941218380E-01
   H -0.334042625E+02 -0.259479335E+01  0.330238090E+01
   H  0.331070445E+02  0.330063162E+01  0.623082727E-01
     4
 # iter = 62000  time[fs]=62.00000
   C -0.677510426E+01  0.283197817E+00 -0.294936211E+00
   C  0.635577321E+01 -0.413320569E+00 -0.947263274E-01
   H -0.338049725E+02 -0.262653761E+01  0.334266309E+01
   H  0.335062926E+02  0.334103856E+01  0.633887767E-01
     4
 # iter = 62500  time[fs]=62.50000
   C -0.686193053E+01  0.287006694E+00 -0.298404234E+00
   C  0.643699859E+01 -0.419063332E+00 -0.953301318E-01
   H -0.342058232E+02 -0.265829394E+01  0.338296081E+01
   H  0.339057055E+02  0.338146568E+01  0.644699397E-01
     4
 # iter = 63000  time[fs]=63.00000
   C -0.694882661E+01  0.290819908E+00 -0.301874244E+00
   C  0.651829182E+01 -0.424811093E+00 -0.959332675E-01
   H -0.346068113E+02 -0.269006205E+01  0.342327372E+01
   H  0.343052794E+02  0.342191251E+01  0.655517456E-01
     4
 # iter = 63500  time[fs]=63.50000
   C -0.703579074E+01  0.294637357E+00 -0.305346198E+00
   C  0.659965120E+01 -0.430563735E+00 -0.965357500E-01
   H -0.350079338E+02 -0.272184168E+01  0.346360148E+01
   H  0.347050106E+02  0.346237861E+01  0.666341792E-01
     4
 # iter = 64000  time[fs]=64.00000
   C -0.712282125E+01  0.298458942E+00 -0.308820049E+00
   C  0.668107508E+01 -0.436321144E+00 -0.971375945E-01
   H -0.354091876E+02 -0.275363257E+01  0.350394375E+01
   H  0.351048955E+02  0.350286356E+01  0.677172258E-01
     4
 # iter = 64500  time[fs]=64.50000
   C -0.720991652E+01  0.302284566E+00 -0.312295756E+00
   C  0.676256189E+01 -0.442083211E+00 -0.977388156E-01
   H -0.358105697E+02 -0.278543447E+01  0.354430021E+01
   H  0.355049306E+02  0.354336693E+01  0.688008711E-01
     4
 # iter = 65000  time[fs]=65.00000
   C -0.729707498E+01  0.306114137E+00 -0.315773279E+00
   C  0.684411012E+01 -0.447849829E+00 -0.983394275E-01
   H -0.362120772E+02 -0.281724716E+01  0.358467055E+01
   H  0.359051127E+02  0.358388833E+01  0.698851013E-01
     4
 # iter = 65500  time[fs]=65.50000
   C -0.738429514E+01  0.309947567E+00 -0.319252576E+00
   C  0.692571828E+01 -0.453620897E+00 -0.989394437E-01
   H -0.366137076E+02 -0.284907038E+01  0.362505446E+01
   H  0.363054385E+02  0.362442737E+01  0.709699032E-01
     4
 # iter = 66000  time[fs]=66.00000
   C -0.747157552E+01  0.313784767E+00 -0.322733609E+00
   C  0.700738497E+01 -0.459396314E+00 -0.995388775E-01
   H -0.370154579E+02 -0.288090393E+01  0.366545167E+01
   H  0.367059048E+02  0.366498368E+01  0.720552638E-01
     4
 # iter = 66500  time[fs]=66.50000
   C -0.755891474E+01  0.317625654E+00 -0.326216341E+00
   C  0.708910882E+01 -0.465175985E+00 -0.100137742E+00
   H -0.374173258E+02 -0.291274757E+01  0.370586189E+01
   H  0.371065087E+02  0.370555689E+01  0.731411707E-01
     4
 # iter = 67000  time[fs]=67.00000
   C -0.764631142E+01  0.321470148E+00 -0.329700737E+00
   C  0.717088849E+01 -0.470959818E+00 -0.100736049E+00
   H -0.378193086E+02 -0.294460111E+01  0.374628484E+01
   H  0.375072472E+02  0.374614665E+01  0.742276119E-01
     4
 # iter = 67500  time[fs]=67.50000
   C -0.773376426E+01  0.325318170E+00 -0.333186760E+00
   C  0.725272273E+01 -0.476747722E+00 -0.101333811E+00
   H -0.382214040E+02 -0.297646433E+01  0.378672025E+01
   H  0.379081175E+02  0.378675262E+01  0.753145758E-01
     4
 # iter = 68000  time[fs]=68.00000
   C -0.782127199E+01  0.329169644E+00 -0.336674377E+00
   C  0.733461028E+01 -0.482539611E+00 -0.101931039E+00
   H -0.386236097E+02 -0.300833704E+01  0.382716789E+01
   H  0.383091168E+02  0.382737446E+01  0.764020510E-01
     4
 # iter = 68500  time[fs]=68.50000
   C -0.790883337E+01  0.333024496E+00 -0.340163555E+00
   C  0.741654996E+01 -0.488335399E+00 -0.102527745E+00
   H -0.390259233E+02 -0.304021905E+01  0.386762748E+01
   H  0.387102424E+02  0.386801186E+01  0.774900266E-01
     4
 # iter = 69000  time[fs]=69.00000
   C -0.799644723E+01  0.336882656E+00 -0.343654262E+00
   C  0.749854061E+01 -0.494135006E+00 -0.103123940E+00
   H -0.394283426E+02 -0.307211016E+01  0.390809880E+01
   H  0.391114919E+02  0.390866450E+01  0.785784922E-01
     4
 # iter = 69500  time[fs]=69.50000
   C -0.808411241E+01  0.340744054E+00 -0.347146467E+00
   C  0.758058112E+01 -0.499938353E+00 -0.103719634E+00
   H -0.398308656E+02 -0.310401021E+01  0.394858161E+01
   H  0.395128626E+02  0.394933209E+01  0.796674373E-01
     4
 # iter = 70000  time[fs]=70.00000
   C -0.817182781E+01  0.344608623E+00 -0.350640141E+00
   C  0.766267039E+01 -0.505745362E+00 -0.104314837E+00
   H -0.402334900E+02 -0.313591901E+01  0.398907568E+01
   H  0.399143521E+02  0.399001432E+01  0.807568522E-01
     4
 # iter = 70500  time[fs]=70.50000
   C -0.825959234E+01  0.348476299E+00 -0.354135253E+00
   C  0.774480738E+01 -0.511555959E+00 -0.104909560E+00
   H -0.406362141E+02 -0.316783639E+01  0.402958079E+01
   H  0.403159582E+02  0.403071091E+01  0.818467271E-01
     4
 # iter = 71000  time[fs]=71.00000
   C -0.834740496E+01  0.352347018E+00 -0.357631776E+00
   C  0.782699108E+01 -0.517370072E+00 -0.105503812E+00
   H -0.410390356E+02 -0.319976218E+01  0.407009673E+01
   H  0.407176784E+02  0.407142159E+01  0.829370527E-01
     4
 # iter = 71500  time[fs]=71.50000
   C -0.843526465E+01  0.356220720E+00 -0.361129682E+00
   C  0.790922050E+01 -0.523187631E+00 -0.106097603E+00
   H -0.414419529E+02 -0.323169624E+01  0.411062329E+01
   H  0.411195106E+02  0.411214609E+01  0.840278199E-01
     4
 # iter = 72000  time[fs]=72.00000
   C -0.852317045E+01  0.360097344E+00 -0.364628945E+00
   C  0.799149468E+01 -0.529008567E+00 -0.106690942E+00
   H -0.418449639E+02 -0.326363839E+01  0.415116026E+01
   H  0.415214526E+02  0.415288415E+01  0.851190200E-01
     4
 # iter = 72500  time[fs]=72.50000
   C -0.861112139E+01  0.363976834E+00 -0.368129538E+00
   C  0.807381271E+01 -0.534832816E+00 -0.107283837E+00
   H -0.422480671E+02 -0.329558850E+01  0.419170746E+01
   H  0.419235023E+02  0.419363551E+01  0.862106444E-01
     4
 # iter = 73000  time[fs]=73.00000
   C -0.869911656E+01  0.367859134E+00 -0.371631437E+00
   C  0.815617368E+01 -0.540660311E+00 -0.107876297E+00
   H -0.426512605E+02 -0.332754640E+01  0.423226469E+01
   H  0.423256576E+02  0.423439992E+01  0.873026849E-01
     4
 # iter = 73500  time[fs]=73.50000
   C -0.878715506E+01  0.371744189E+00 -0.375134616E+00
   C  0.823857673E+01 -0.546490992E+00 -0.108468331E+00
   H -0.430545425E+02 -0.335951196E+01  0.427283176E+01
   H  0.427279167E+02  0.427517715E+01  0.883951333E-01
     4
 # iter = 74000  time[fs]=74.00000
   C -0.887523603E+01  0.375631946E+00 -0.378639053E+00
   C  0.832102101E+01 -0.552324797E+00 -0.109059947E+00
   H -0.434579115E+02 -0.339148504E+01  0.431340850E+01
   H  0.431302775E+02  0.431596696E+01  0.894879818E-01
     4
 # iter = 74500  time[fs]=74.50000
   C -0.896335861E+01  0.379522355E+00 -0.382144723E+00
   C  0.840350570E+01 -0.558161668E+00 -0.109651152E+00
   H -0.438613658E+02 -0.342346550E+01  0.435399473E+01
   H  0.435327382E+02  0.435676912E+01  0.905812228E-01
     4
 # iter = 75000  time[fs]=75.00000
   C -0.905152200E+01  0.383415365E+00 -0.385651604E+00
   C  0.848603001E+01 -0.564001547E+00 -0.110241954E+00
   H -0.442649040E+02 -0.345545321E+01  0.439459027E+01
   H  0.439352969E+02  0.439758342E+01  0.916748490E-01
     4
 # iter = 75500  time[fs]=75.50000
   C -0.913972539E+01  0.387310928E+00 -0.389159675E+00
   C  0.856859315E+01 -0.569844379E+00 -0.110832362E+00
   H -0.446685244E+02 -0.348744804E+01  0.443519497E+01
   H  0.443379520E+02  0.443840963E+01  0.927688531E-01
     4
 # iter = 76000  time[fs]=76.00000
   C -0.922796802E+01  0.391208997E+00 -0.392668914E+00
   C  0.865119439E+01 -0.575690109E+00 -0.111422381E+00
   H -0.450722257E+02 -0.351944986E+01  0.447580865E+01
   H  0.447407015E+02  0.447924755E+01  0.938632282E-01
     4
 # iter = 76500  time[fs]=76.50000
   C -0.931624914E+01  0.395109525E+00 -0.396179300E+00
   C  0.873383299E+01 -0.581538685E+00 -0.112012020E+00
   H -0.454760063E+02 -0.355145856E+01  0.451643117E+01
   H  0.451435440E+02  0.452009697E+01  0.949579674E-01
     4
 # iter = 77000  time[fs]=77.00000
   C -0.940456801E+01  0.399012469E+00 -0.399690813E+00
   C  0.881650824E+01 -0.587390055E+00 -0.112601284E+00
   H -0.458798650E+02 -0.358347401E+01  0.455706236E+01
   H  0.455464777E+02  0.456095770E+01  0.960530642E-01
     4
 # iter = 77500  time[fs]=77.50000
   C -0.949292393E+01  0.402917784E+00 -0.403203432E+00
   C  0.889921945E+01 -0.593244170E+00 -0.113190182E+00
   H -0.462838002E+02 -0.361549610E+01  0.459770208E+01
   H  0.459495010E+02  0.460182954E+01  0.971485121E-01
     4
 # iter = 78000  time[fs]=78.00000
   C -0.958131620E+01  0.406825429E+00 -0.406717140E+00
   C  0.898196595E+01 -0.599100980E+00 -0.113778718E+00
   H -0.466878108E+02 -0.364752471E+01  0.463835019E+01
   H  0.463526124E+02  0.464271230E+01  0.982443048E-01
     4
 # iter = 78500  time[fs]=78.50000
   C -0.966974416E+01  0.410735362E+00 -0.410231917E+00
   C  0.906474709E+01 -0.604960439E+00 -0.114366901E+00
   H -0.470918954E+02 -0.367955974E+01  0.467900653E+01
   H  0.467558104E+02  0.468360580E+01  0.993404362E-01
     4
 # iter = 79000  time[fs]=79.00000
   C -0.975820715E+01  0.414647543E+00 -0.413747746E+00
   C  0.914756223E+01 -0.610822501E+00 -0.114954735E+00
   H -0.474960527E+02 -0.371160108E+01  0.471967098E+01
   H  0.471590935E+02  0.472450985E+01  0.100436900E+00
     4
 # iter = 79500  time[fs]=79.50000
   C -0.984670454E+01  0.418561933E+00 -0.417264607E+00
   C  0.923041076E+01 -0.616687119E+00 -0.115542228E+00
   H -0.479002815E+02 -0.374364861E+01  0.476034339E+01
   H  0.475624602E+02  0.476542429E+01  0.101533692E+00
     4
 # iter = 80000  time[fs]=80.00000
   C -0.993523571E+01  0.422478494E+00 -0.420782484E+00
   C  0.931329208E+01 -0.622554251E+00 -0.116129384E+00
   H -0.483045807E+02 -0.377570225E+01  0.480102364E+01
   H  0.479659092E+02  0.480634894E+01  0.102630804E+00
