     4
 # iter = 25000  time[fs]=25.00000
   C -0.978938708E+00  0.275882753E-01 -0.118154334E-01
   C  0.105155210E+01 -0.287626735E-02  0.133219190E-01
   H -0.528404192E+01 -0.443067424E+00 -0.259432198E+00
   H  0.540247252E+01  0.565042810E-01  0.497053080E+00
     4
 # iter = 25500  time[fs]=25.50000
   C -0.102608691E+01  0.289665235E-01 -0.129280861E-01
   C  0.109628475E+01 -0.440812306E-02  0.105858317E-01
   H -0.562542151E+01 -0.477509875E+00 -0.285587623E+00
   H  0.571825428E+01  0.529934394E-01  0.518086467E+00
     4
 # iter = 26000  time[fs]=26.00000
   C -0.107673566E+01  0.293209734E-01 -0.151429561E-01
   C  0.114255365E+01 -0.686382606E-02  0.697811958E-02
   H -0.597483495E+01 -0.517596496E+00 -0.317292024E+00
   H  0.603125439E+01  0.441115301E-01  0.533967953E+00
     4
 # iter = 26500  time[fs]=26.50000
   C -0.112747314E+01  0.318567529E-01 -0.152466107E-01
   C  0.119279617E+01 -0.759853972E-02  0.513826784E-02
   H -0.631589554E+01 -0.547216960E+00 -0.338447558E+00
   H  0.635729764E+01  0.459502942E-01  0.560766317E+00
     4
 # iter = 27000  time[fs]=27.00000
   C -0.117795378E+01  0.367294547E-01 -0.130762083E-01
   C  0.124695553E+01 -0.648007973E-02  0.519372542E-02
   H -0.664755978E+01 -0.565552418E+00 -0.348245210E+00
   H  0.669694042E+01  0.593029025E-01  0.599254407E+00
     4
 # iter = 27500  time[fs]=27.50000
   C -0.123039409E+01  0.415490739E-01 -0.110154241E-01
   C  0.130289521E+01 -0.547371974E-02  0.517504940E-02
   H -0.698158965E+01 -0.584548901E+00 -0.358638842E+00
   H  0.703799368E+01  0.721914405E-01  0.637436212E+00
     4
 # iter = 28000  time[fs]=28.00000
   C -0.128632780E+01  0.446238719E-01 -0.107504302E-01
   C  0.135906903E+01 -0.596951638E-02  0.368845841E-02
   H -0.732627577E+01 -0.612655853E+00 -0.378084526E+00
   H  0.737180084E+01  0.761406337E-01  0.666820984E+00
     4
 # iter = 28500  time[fs]=28.50000
   C -0.134493149E+01  0.466337072E-01 -0.115964500E-01
   C  0.141589802E+01 -0.740370427E-02  0.129436271E-02
   H -0.767804015E+01 -0.646437394E+00 -0.403152230E+00
   H  0.770163211E+01  0.745728826E-01  0.690818216E+00
     4
 # iter = 29000  time[fs]=29.00000
   C -0.140440317E+01  0.492503965E-01 -0.118773235E-01
   C  0.147463326E+01 -0.839538850E-02 -0.629342228E-03
   H -0.802835100E+01 -0.677487832E+00 -0.425441387E+00
   H  0.803575563E+01  0.758866172E-01  0.717815338E+00
     4
 # iter = 29500  time[fs]=29.50000
   C -0.146404924E+01  0.530498307E-01 -0.110133338E-01
   C  0.153563547E+01 -0.846669027E-02 -0.160742706E-02
   H -0.837418965E+01 -0.702897725E+00 -0.442046924E+00
   H  0.837695508E+01  0.829812108E-01  0.750701971E+00
     4
 # iter = 30000  time[fs]=30.00000
   C -0.152457628E+01  0.572190877E-01 -0.981402867E-02
   C  0.159813266E+01 -0.828406423E-02 -0.230867910E-02
   H -0.871951663E+01 -0.726721830E+00 -0.457027307E+00
   H  0.872105708E+01  0.917875427E-01  0.785400207E+00
     4
 # iter = 30500  time[fs]=30.50000
   C -0.158679449E+01  0.608517986E-01 -0.918278929E-02
   C  0.166128587E+01 -0.859116114E-02 -0.347881609E-02
   H -0.906877411E+01 -0.753485224E+00 -0.474910838E+00
   H  0.906343017E+01  0.977670775E-01  0.817363683E+00
     4
 # iter = 31000  time[fs]=31.00000
   C -0.165063128E+01  0.639335296E-01 -0.913139222E-02
   C  0.172499962E+01 -0.939705575E-02 -0.512875747E-02
   H -0.942194313E+01 -0.783243402E+00 -0.495755883E+00
   H  0.940392833E+01  0.100855722E+00  0.846521429E+00
     4
 # iter = 31500  time[fs]=31.50000
   C -0.171541960E+01  0.670525163E-01 -0.906923282E-02
   C  0.178968274E+01 -0.102145263E-01 -0.677293011E-02
   H -0.977599236E+01 -0.813032188E+00 -0.516600839E+00
   H  0.974543816E+01  0.104012521E+00  0.875826415E+00
     4
 # iter = 32000  time[fs]=32.00000
   C -0.178072382E+01  0.705729209E-01 -0.863003429E-02
   C  0.185556666E+01 -0.107411028E-01 -0.811033438E-02
   H -0.101290221E+02 -0.841012045E+00 -0.535608451E+00
   H  0.100897288E+02  0.109071706E+00  0.907107427E+00
     4
 # iter = 32500  time[fs]=32.50000
   C -0.184663555E+01  0.743383355E-01 -0.796831411E-02
   C  0.192246049E+01 -0.111033128E-01 -0.926880795E-02
   H -0.104817499E+02 -0.867954269E+00 -0.553552042E+00
   H  0.104359632E+02  0.115255149E+00  0.939581398E+00
     4
 # iter = 33000  time[fs]=33.00000
   C -0.191341679E+01  0.780278615E-01 -0.740327522E-02
   C  0.199004357E+01 -0.115633501E-01 -0.105117163E-01
   H -0.108357245E+02 -0.895455824E+00 -0.572030380E+00
   H  0.107824838E+02  0.120958958E+00  0.971639954E+00
     4
 # iter = 33500  time[fs]=33.50000
   C -0.198110870E+01  0.815467271E-01 -0.702816446E-02
   C  0.205818661E+01 -0.121972907E-01 -0.119161872E-01
   H -0.111913663E+02 -0.923981060E+00 -0.591509445E+00
   H  0.111287724E+02  0.125713352E+00  0.100280926E+01
     4
 # iter = 34000  time[fs]=34.00000
   C -0.204952721E+01  0.850301697E-01 -0.670636870E-02
   C  0.212695435E+01 -0.128918799E-01 -0.133699126E-01
   H -0.115479476E+02 -0.952842159E+00 -0.611302896E+00
   H  0.114754690E+02  0.130202164E+00  0.103376949E+01
     4
 # iter = 34500  time[fs]=34.50000
   C -0.211849542E+01  0.886104725E-01 -0.630436129E-02
   C  0.219641317E+01 -0.135364234E-01 -0.147630514E-01
   H -0.119047597E+02 -0.981366902E+00 -0.630739856E+00
   H  0.118232021E+02  0.135094016E+00  0.106518591E+01
     4
 # iter = 35000  time[fs]=35.00000
   C -0.218797569E+01  0.922844946E-01 -0.582415677E-02
   C  0.226652159E+01 -0.141319002E-01 -0.160973530E-01
   H -0.122617769E+02 -0.100956267E+01 -0.649828921E+00
   H  0.121719239E+02  0.140377706E+00  0.109704427E+01
     4
 # iter = 35500  time[fs]=35.50000
   C -0.225800779E+01  0.959751215E-01 -0.534184707E-02
   C  0.233718052E+01 -0.147403368E-01 -0.174355399E-01
   H -0.126193476E+02 -0.103780832E+01 -0.668950059E+00
   H  0.125212182E+02  0.145670555E+00  0.112895908E+01
     4
 # iter = 36000  time[fs]=36.00000
   C -0.232859976E+01  0.996400452E-01 -0.489880941E-02
   C  0.240832249E+01 -0.153951923E-01 -0.188117029E-01
   H -0.129776488E+02 -0.106630881E+01 -0.688309233E+00
   H  0.128708456E+02  0.150764230E+00  0.116071943E+01
     4
 # iter = 36500  time[fs]=36.50000
   C -0.239970276E+01  0.103296633E+00 -0.447682710E-02
   C  0.247993184E+01 -0.160808647E-01 -0.202108137E-01
   H -0.133365613E+02 -0.109497046E+01 -0.707813698E+00
   H  0.132208686E+02  0.155749533E+00  0.119241375E+01
     4
 # iter = 37000  time[fs]=37.00000
   C -0.247125668E+01  0.106976021E+00 -0.404398943E-02
   C  0.255200666E+01 -0.167704996E-01 -0.216065402E-01
   H -0.136958991E+02 -0.112363106E+01 -0.727302097E+00
   H  0.135714206E+02  0.160786090E+00  0.122419947E+01
     4
 # iter = 37500  time[fs]=37.50000
   C -0.254322762E+01  0.110685391E+00 -0.359240270E-02
   C  0.262452750E+01 -0.174570524E-01 -0.229923144E-01
   H -0.140555987E+02 -0.115224890E+01 -0.746733521E+00
   H  0.139225165E+02  0.165913114E+00  0.125611379E+01
     4
 # iter = 38000  time[fs]=38.00000
   C -0.261560355E+01  0.114412124E+00 -0.313403295E-02
   C  0.269746054E+01 -0.181498642E-01 -0.243779128E-01
   H -0.144156978E+02 -0.118088197E+01 -0.766166658E+00
   H  0.142740735E+02  0.171070256E+00  0.128809447E+01
     4
 # iter = 38500  time[fs]=38.50000
   C -0.268837258E+01  0.118145320E+00 -0.267918188E-02
   C  0.277077516E+01 -0.188569310E-01 -0.257717300E-01
   H -0.147762273E+02 -0.120957997E+01 -0.785651902E+00
   H  0.146260188E+02  0.176205587E+00  0.132008786E+01
     4
 # iter = 39000  time[fs]=39.00000
   C -0.276151373E+01  0.121884825E+00 -0.222745067E-02
   C  0.284445121E+01 -0.195774592E-01 -0.271733383E-01
   H -0.151371660E+02 -0.123833908E+01 -0.805186052E+00
   H  0.149783349E+02  0.181320917E+00  0.135209413E+01
     4
 # iter = 39500  time[fs]=39.50000
   C -0.283500284E+01  0.125635241E+00 -0.177372575E-02
   C  0.291847390E+01 -0.203067953E-01 -0.285784200E-01
   H -0.154984703E+02 -0.126713193E+01 -0.824742318E+00
   H  0.153310292E+02  0.186441762E+00  0.138413731E+01
     4
 # iter = 40000  time[fs]=40.00000
   C -0.290881976E+01  0.129398527E+00 -0.131557895E-02
   C  0.299282763E+01 -0.210425202E-01 -0.299848654E-01
   H -0.158601112E+02 -0.129594471E+01 -0.844307418E+00
   H  0.156840969E+02  0.191580201E+00  0.141622805E+01
     4
 # iter = 40500  time[fs]=40.50000
   C -0.298294916E+01  0.133173110E+00 -0.854145810E-03
   C  0.306749507E+01 -0.217851717E-01 -0.313934975E-01
   H -0.162220787E+02 -0.132478154E+01 -0.863885982E+00
   H  0.160375165E+02  0.196730468E+00  0.144835928E+01
     4
 # iter = 41000  time[fs]=41.00000
   C -0.305737738E+01  0.136956886E+00 -0.391124972E-03
   C  0.314245959E+01 -0.225357717E-01 -0.328056013E-01
   H -0.165843667E+02 -0.135364944E+01 -0.883485505E+00
   H  0.163912647E+02  0.201883995E+00  0.148052120E+01
     4
 # iter = 41500  time[fs]=41.50000
   C -0.313209051E+01  0.140749096E+00  0.730997353E-04
   C  0.321770666E+01 -0.232942782E-01 -0.342213786E-01
   H -0.169469632E+02 -0.138254894E+01 -0.903106935E+00
   H  0.167453258E+02  0.207038838E+00  0.151271071E+01
     4
 # iter = 42000  time[fs]=42.00000
   C -0.320707468E+01  0.144549897E+00  0.539036807E-03
   C  0.329322344E+01 -0.240599324E-01 -0.356402962E-01
   H -0.173098527E+02 -0.141147612E+01 -0.922746786E+00
   H  0.170996893E+02  0.212197546E+00  0.154492928E+01
     4
 # iter = 42500  time[fs]=42.50000
   C -0.328231702E+01  0.148359341E+00  0.100706232E-02
   C  0.336899785E+01 -0.248321019E-01 -0.370619308E-01
   H -0.176730213E+02 -0.144042784E+01 -0.942402279E+00
   H  0.174543451E+02  0.217362021E+00  0.157717780E+01
     4
 # iter = 43000  time[fs]=43.00000
   C -0.335780590E+01  0.152177057E+00  0.147711136E-02
   C  0.344501825E+01 -0.256105334E-01 -0.384862238E-01
   H -0.180364577E+02 -0.146940319E+01 -0.962072881E+00
   H  0.178092814E+02  0.222531963E+00  0.160945500E+01
     4
 # iter = 43500  time[fs]=43.50000
   C -0.343353058E+01  0.156002540E+00  0.194896280E-02
   C  0.352127360E+01 -0.263951178E-01 -0.399132468E-01
   H -0.184001523E+02 -0.149840212E+01 -0.981758879E+00
   H  0.181644863E+02  0.227706304E+00  0.164175892E+01
     4
 # iter = 44000  time[fs]=44.00000
   C -0.350948091E+01  0.159835408E+00  0.242250013E-02
   C  0.359775362E+01 -0.271856742E-01 -0.413429874E-01
   H -0.187640954E+02 -0.152742411E+01 -0.100146007E+01
   H  0.185199491E+02  0.232884504E+00  0.167408817E+01
     4
 # iter = 44500  time[fs]=44.50000
   C -0.358564723E+01  0.163675407E+00  0.289771798E-02
   C  0.367444876E+01 -0.279819436E-01 -0.427753439E-01
   H -0.191282776E+02 -0.155646814E+01 -0.102117573E+01
   H  0.188756603E+02  0.238066592E+00  0.170644197E+01
     4
 # iter = 45000  time[fs]=45.00000
   C -0.366202046E+01  0.167522308E+00  0.337462200E-02
   C  0.375135003E+01 -0.287836709E-01 -0.442102078E-01
   H -0.194926895E+02 -0.158553316E+01 -0.104090511E+01
   H  0.192316109E+02  0.243252655E+00  0.173881966E+01
     4
 # iter = 45500  time[fs]=45.50000
   C -0.373859207E+01  0.171375861E+00  0.385318093E-02
   C  0.382844895E+01 -0.295906434E-01 -0.456475037E-01
   H -0.198573228E+02 -0.161461839E+01 -0.106064768E+01
   H  0.195877923E+02  0.248442603E+00  0.177122042E+01
     4
 # iter = 46000  time[fs]=46.00000
   C -0.381535408E+01  0.175235807E+00  0.433334309E-02
   C  0.390573753E+01 -0.304026765E-01 -0.470871755E-01
   H -0.202221696E+02 -0.164372315E+01 -0.108040303E+01
   H  0.199441961E+02  0.253636243E+00  0.180364339E+01
     4
 # iter = 46500  time[fs]=46.50000
   C -0.389229892E+01  0.179101907E+00  0.481506174E-02
   C  0.398320822E+01 -0.312195923E-01 -0.485291657E-01
   H -0.205872224E+02 -0.167284682E+01 -0.110017077E+01
   H  0.203008145E+02  0.258833414E+00  0.183608775E+01
     4
 # iter = 47000  time[fs]=47.00000
   C -0.396941947E+01  0.182973939E+00  0.529830029E-02
   C  0.406085391E+01 -0.320412149E-01 -0.499734112E-01
   H -0.209524740E+02 -0.170198875E+01 -0.111995046E+01
   H  0.206576400E+02  0.264034003E+00  0.186855278E+01
     4
 # iter = 47500  time[fs]=47.50000
   C -0.404670899E+01  0.186851700E+00  0.578302561E-02
   C  0.413866789E+01 -0.328673747E-01 -0.514198489E-01
   H -0.213179176E+02 -0.173114829E+01 -0.113974170E+01
   H  0.210146658E+02  0.269237920E+00  0.190103782E+01
     4
 # iter = 48000  time[fs]=48.00000
   C -0.412416109E+01  0.190734991E+00  0.626920331E-02
   C  0.421664379E+01 -0.336979124E-01 -0.528684189E-01
   H -0.216835467E+02 -0.176032485E+01 -0.115954410E+01
   H  0.213718850E+02  0.274445067E+00  0.193354221E+01
     4
 # iter = 48500  time[fs]=48.50000
   C -0.420176975E+01  0.194623624E+00  0.675679805E-02
   C  0.429477561E+01 -0.345326780E-01 -0.543190653E-01
   H -0.220493553E+02 -0.178951790E+01 -0.117935729E+01
   H  0.217292914E+02  0.279655344E+00  0.196606533E+01
     4
 # iter = 49000  time[fs]=49.00000
   C -0.427952925E+01  0.198517417E+00  0.724577524E-02
   C  0.437305764E+01 -0.353715288E-01 -0.557717338E-01
   H -0.224153374E+02 -0.181872689E+01 -0.119918094E+01
   H  0.220868789E+02  0.284868653E+00  0.199860658E+01
     4
 # iter = 49500  time[fs]=49.50000
   C -0.435743419E+01  0.202416201E+00  0.773610174E-02
   C  0.445148450E+01 -0.362143286E-01 -0.572263717E-01
   H -0.227814876E+02 -0.184795132E+01 -0.121901473E+01
   H  0.224446417E+02  0.290084903E+00  0.203116539E+01
     4
 # iter = 50000  time[fs]=50.00000
   C -0.443547940E+01  0.206319813E+00  0.822774553E-02
   C  0.453005105E+01 -0.370609473E-01 -0.586829277E-01
   H -0.231478005E+02 -0.187719072E+01 -0.123885833E+01
   H  0.228025743E+02  0.295304009E+00  0.206374122E+01
     4
 # iter = 50500  time[fs]=50.50000
   C -0.451366002E+01  0.210228097E+00  0.872067539E-02
   C  0.460875242E+01 -0.379112612E-01 -0.601413522E-01
   H -0.235142711E+02 -0.190644462E+01 -0.125871144E+01
   H  0.231606715E+02  0.300525890E+00  0.209633357E+01
     4
 # iter = 51000  time[fs]=51.00000
   C -0.459197141E+01  0.214140906E+00  0.921486087E-02
   C  0.468758400E+01 -0.387651520E-01 -0.616015977E-01
   H -0.238808945E+02 -0.193571258E+01 -0.127857379E+01
   H  0.235189283E+02  0.305750467E+00  0.212894193E+01
     4
 # iter = 51500  time[fs]=51.50000
   C -0.467040915E+01  0.218058098E+00  0.971027233E-02
   C  0.476654139E+01 -0.396225071E-01 -0.630636180E-01
   H -0.242476662E+02 -0.196499419E+01 -0.129844510E+01
   H  0.238773400E+02  0.310977664E+00  0.216156584E+01
     4
 # iter = 52000  time[fs]=52.00000
   C -0.474896904E+01  0.221979538E+00  0.102068810E-01
   C  0.484562040E+01 -0.404832190E-01 -0.645273686E-01
   H -0.246145818E+02 -0.199428905E+01 -0.131832510E+01
   H  0.242359018E+02  0.316207409E+00  0.219420484E+01
     4
 # iter = 52500  time[fs]=52.50000
   C -0.482764708E+01  0.225905097E+00  0.107046590E-01
   C  0.492481703E+01 -0.413471847E-01 -0.659928063E-01
   H -0.249816370E+02 -0.202359677E+01 -0.133821356E+01
   H  0.245946095E+02  0.321439632E+00  0.222685850E+01
     4
 # iter = 53000  time[fs]=53.00000
   C -0.490643945E+01  0.229834652E+00  0.112035791E-01
   C  0.500412751E+01 -0.422143058E-01 -0.674598897E-01
   H -0.253488278E+02 -0.205291698E+01 -0.135811022E+01
   H  0.249534589E+02  0.326674267E+00  0.225952642E+01
     4
 # iter = 53500  time[fs]=53.50000
   C -0.498534253E+01  0.233768086E+00  0.117036150E-01
   C  0.508354819E+01 -0.430844883E-01 -0.689285783E-01
   H -0.257161504E+02 -0.208224935E+01 -0.137801487E+01
   H  0.253124460E+02  0.331911251E+00  0.229220819E+01
     4
 # iter = 54000  time[fs]=54.00000
   C -0.506435285E+01  0.237705284E+00  0.122047411E-01
   C  0.516307562E+01 -0.439576420E-01 -0.703988333E-01
   H -0.260836011E+02 -0.211159352E+01 -0.139792728E+01
   H  0.256715670E+02  0.337150520E+00  0.232490344E+01
     4
 # iter = 54500  time[fs]=54.50000
   C -0.514346707E+01  0.241646138E+00  0.127069326E-01
   C  0.524270650E+01 -0.448336807E-01 -0.718706171E-01
   H -0.264511763E+02 -0.214094918E+01 -0.141784723E+01
   H  0.260308180E+02  0.342392018E+00  0.235761179E+01
     4
 # iter = 55000  time[fs]=55.00000
   C -0.522268205E+01  0.245590546E+00  0.132101655E-01
   C  0.532243767E+01 -0.457125217E-01 -0.733438933E-01
   H -0.268188726E+02 -0.217031602E+01 -0.143777454E+01
   H  0.263901957E+02  0.347635686E+00  0.239033291E+01
     4
 # iter = 55500  time[fs]=55.50000
   C -0.530199475E+01  0.249538406E+00  0.137144162E-01
   C  0.540226611E+01 -0.465940857E-01 -0.748186266E-01
   H -0.271866868E+02 -0.219969374E+01 -0.145770900E+01
   H  0.267496966E+02  0.352881470E+00  0.242306646E+01
     4
 # iter = 56000  time[fs]=56.00000
   C -0.538140227E+01  0.253489625E+00  0.142196621E-01
   C  0.548218894E+01 -0.474782967E-01 -0.762947831E-01
   H -0.275546157E+02 -0.222908205E+01 -0.147765043E+01
   H  0.271093175E+02  0.358129318E+00  0.245581210E+01
     4
 # iter = 56500  time[fs]=56.50000
   C -0.546090183E+01  0.257444110E+00  0.147258812E-01
   C  0.556220339E+01 -0.483650815E-01 -0.777723297E-01
   H -0.279226563E+02 -0.225848069E+01 -0.149759864E+01
   H  0.274690552E+02  0.363379178E+00  0.248856954E+01
     4
 # iter = 57000  time[fs]=57.00000
   C -0.554049079E+01  0.261401773E+00  0.152330520E-01
   C  0.564230681E+01 -0.492543702E-01 -0.792512346E-01
   H -0.282908058E+02 -0.228788938E+01 -0.151755348E+01
   H  0.278289068E+02  0.368631003E+00  0.252133848E+01
     4
 # iter = 57500  time[fs]=57.50000
   C -0.562016658E+01  0.265362530E+00  0.157411538E-01
   C  0.572249667E+01 -0.501460953E-01 -0.807314669E-01
   H -0.286590613E+02 -0.231730787E+01 -0.153751476E+01
   H  0.281888692E+02  0.373884744E+00  0.255411862E+01
     4
 # iter = 58000  time[fs]=58.00000
   C -0.569992678E+01  0.269326298E+00  0.162501665E-01
   C  0.580277054E+01 -0.510401921E-01 -0.822129967E-01
   H -0.290274202E+02 -0.234673592E+01 -0.155748233E+01
   H  0.285489398E+02  0.379140357E+00  0.258690968E+01
     4
 # iter = 58500  time[fs]=58.50000
   C -0.577976904E+01  0.273293001E+00  0.167600704E-01
   C  0.588312607E+01 -0.519365983E-01 -0.836957950E-01
   H -0.293958799E+02 -0.237617329E+01 -0.157745603E+01
   H  0.289091159E+02  0.384397798E+00  0.261971141E+01
     4
 # iter = 59000  time[fs]=59.00000
   C -0.585969110E+01  0.277262563E+00  0.172708466E-01
   C  0.596356102E+01 -0.528352540E-01 -0.851798338E-01
   H -0.297644378E+02 -0.240561976E+01 -0.159743572E+01
   H  0.292693948E+02  0.389657024E+00  0.265252355E+01
     4
 # iter = 59500  time[fs]=59.50000
   C -0.593969081E+01  0.281234910E+00  0.177824766E-01
   C  0.604407326E+01 -0.537361016E-01 -0.866650858E-01
   H -0.301330917E+02 -0.243507510E+01 -0.161742126E+01
   H  0.296297741E+02  0.394917995E+00  0.268534584E+01
     4
 # iter = 60000  time[fs]=60.00000
   C -0.601976608E+01  0.285209975E+00  0.182949425E-01
   C  0.612466070E+01 -0.546390856E-01 -0.881515248E-01
   H -0.305018392E+02 -0.246453911E+01 -0.163741250E+01
   H  0.299902513E+02  0.400180671E+00  0.271817806E+01
     4
 # iter = 60500  time[fs]=60.50000
   C -0.609991494E+01  0.289187688E+00  0.188082268E-01
   C  0.620532136E+01 -0.555441524E-01 -0.896391251E-01
   H -0.308706781E+02 -0.249401159E+01 -0.165740932E+01
   H  0.303508242E+02  0.405445014E+00  0.275101995E+01
     4
 # iter = 61000  time[fs]=61.00000
   C -0.618013545E+01  0.293167985E+00  0.193223127E-01
   C  0.628605332E+01 -0.564512504E-01 -0.911278622E-01
   H -0.312396062E+02 -0.252349233E+01 -0.167741157E+01
   H  0.307114906E+02  0.410710988E+00  0.278387132E+01
     4
 # iter = 61500  time[fs]=61.50000
   C -0.626042576E+01  0.297150805E+00  0.198371837E-01
   C  0.636685476E+01 -0.573603301E-01 -0.926177118E-01
   H -0.316086215E+02 -0.255298114E+01 -0.169741915E+01
   H  0.310722481E+02  0.415978556E+00  0.281673193E+01
     4
 # iter = 62000  time[fs]=62.00000
   C -0.634078411E+01  0.301136085E+00  0.203528239E-01
   C  0.644772389E+01 -0.582713434E-01 -0.941086507E-01
   H -0.319777219E+02 -0.258247785E+01 -0.171743193E+01
   H  0.314330948E+02  0.421247684E+00  0.284960158E+01
     4
 # iter = 62500  time[fs]=62.50000
   C -0.642120877E+01  0.305123769E+00  0.208692178E-01
   C  0.652865901E+01 -0.591842440E-01 -0.956006564E-01
   H -0.323469055E+02 -0.261198228E+01 -0.173744979E+01
   H  0.317940287E+02  0.426518338E+00  0.288248008E+01
     4
 # iter = 63000  time[fs]=63.00000
   C -0.650169810E+01  0.309113800E+00  0.213863502E-01
   C  0.660965847E+01 -0.600989874E-01 -0.970937068E-01
   H -0.327161706E+02 -0.264149425E+01 -0.175747262E+01
   H  0.321550477E+02  0.431790487E+00  0.291536722E+01
     4
 # iter = 63500  time[fs]=63.50000
   C -0.658225050E+01  0.313106123E+00  0.219042066E-01
   C  0.669072070E+01 -0.610155303E-01 -0.985877807E-01
   H -0.330855151E+02 -0.267101360E+01 -0.177750031E+01
   H  0.325161501E+02  0.437064099E+00  0.294826281E+01
     4
 # iter = 64000  time[fs]=64.00000
   C -0.666286445E+01  0.317100686E+00  0.224227726E-01
   C  0.677184416E+01 -0.619338311E-01 -0.100082857E+00
   H -0.334549375E+02 -0.270054017E+01 -0.179753276E+01
   H  0.328773340E+02  0.442339144E+00  0.298116669E+01
     4
 # iter = 64500  time[fs]=64.50000
   C -0.674353846E+01  0.321097439E+00  0.229420343E-01
   C  0.685302739E+01 -0.628538497E-01 -0.101578917E+00
   H -0.338244359E+02 -0.273007380E+01 -0.181756987E+01
   H  0.332385975E+02  0.447615592E+00  0.301407866E+01
     4
 # iter = 65000  time[fs]=65.00000
   C -0.682427110E+01  0.325096333E+00  0.234619785E-01
   C  0.693426895E+01 -0.637755469E-01 -0.103075939E+00
   H -0.341940089E+02 -0.275961435E+01 -0.183761153E+01
   H  0.335999391E+02  0.452893415E+00  0.304699856E+01
     4
 # iter = 65500  time[fs]=65.50000
   C -0.690506100E+01  0.329097319E+00  0.239825917E-01
   C  0.701556748E+01 -0.646988853E-01 -0.104573906E+00
   H -0.345636547E+02 -0.278916166E+01 -0.185765766E+01
   H  0.339613571E+02  0.458172585E+00  0.307992622E+01
     4
 # iter = 66000  time[fs]=66.00000
   C -0.698590682E+01  0.333100352E+00  0.245038615E-01
   C  0.709692165E+01 -0.656238283E-01 -0.106072799E+00
   H -0.349333719E+02 -0.281871561E+01 -0.187770815E+01
   H  0.343228498E+02  0.463453075E+00  0.311286148E+01
     4
 # iter = 66500  time[fs]=66.50000
   C -0.706680728E+01  0.337105388E+00  0.250257752E-01
   C  0.717833018E+01 -0.665503408E-01 -0.107572600E+00
   H -0.353031589E+02 -0.284827604E+01 -0.189776293E+01
   H  0.346844157E+02  0.468734860E+00  0.314580420E+01
     4
 # iter = 67000  time[fs]=67.00000
   C -0.714776113E+01  0.341112383E+00  0.255483209E-01
   C  0.725979182E+01 -0.674783886E-01 -0.109073291E+00
   H -0.356730144E+02 -0.287784284E+01 -0.191782190E+01
   H  0.350460533E+02  0.474017913E+00  0.317875420E+01
     4
 # iter = 67500  time[fs]=67.50000
   C -0.722876717E+01  0.345121296E+00  0.260714867E-01
   C  0.734130539E+01 -0.684079387E-01 -0.110574856E+00
   H -0.360429369E+02 -0.290741587E+01 -0.193788498E+01
   H  0.354077612E+02  0.479302211E+00  0.321171136E+01
     4
 # iter = 68000  time[fs]=68.00000
   C -0.730982423E+01  0.349132087E+00  0.265952613E-01
   C  0.742286972E+01 -0.693389591E-01 -0.112077278E+00
   H -0.364129251E+02 -0.293699500E+01 -0.195795208E+01
   H  0.357695379E+02  0.484587730E+00  0.324467553E+01
     4
 # iter = 68500  time[fs]=68.50000
   C -0.739093120E+01  0.353144715E+00  0.271196334E-01
   C  0.750448370E+01 -0.702714188E-01 -0.113580541E+00
   H -0.367829776E+02 -0.296658012E+01 -0.197802313E+01
   H  0.361313820E+02  0.489874446E+00  0.327764657E+01
     4
 # iter = 69000  time[fs]=69.00000
   C -0.747208698E+01  0.357159145E+00  0.276445921E-01
   C  0.758614623E+01 -0.712052878E-01 -0.115084630E+00
   H -0.371530932E+02 -0.299617111E+01 -0.199809806E+01
   H  0.364932923E+02  0.495162337E+00  0.331062434E+01
     4
 # iter = 69500  time[fs]=69.50000
   C -0.755329052E+01  0.361175338E+00  0.281701270E-01
   C  0.766785627E+01 -0.721405368E-01 -0.116589529E+00
   H -0.375232707E+02 -0.302576785E+01 -0.201817678E+01
   H  0.368552673E+02  0.500451381E+00  0.334360873E+01
     4
 # iter = 70000  time[fs]=70.00000
   C -0.763454079E+01  0.365193259E+00  0.286962277E-01
   C  0.774961281E+01 -0.730771378E-01 -0.118095224E+00
   H -0.378935088E+02 -0.305537024E+01 -0.203825922E+01
   H  0.372173060E+02  0.505741557E+00  0.337659959E+01
     4
 # iter = 70500  time[fs]=70.50000
   C -0.771583681E+01  0.369212873E+00  0.292228841E-01
   C  0.783141485E+01 -0.740150631E-01 -0.119601700E+00
   H -0.382638064E+02 -0.308497816E+01 -0.205834532E+01
   H  0.375794070E+02  0.511032844E+00  0.340959682E+01
     4
 # iter = 71000  time[fs]=71.00000
   C -0.779717761E+01  0.373234146E+00  0.297500864E-01
   C  0.791326144E+01 -0.749542863E-01 -0.121108943E+00
   H -0.386341623E+02 -0.311459152E+01 -0.207843500E+01
   H  0.379415692E+02  0.516325222E+00  0.344260028E+01
     4
 # iter = 71500  time[fs]=71.50000
   C -0.787856227E+01  0.377257047E+00  0.302778251E-01
   C  0.799515165E+01 -0.758947816E-01 -0.122616940E+00
   H -0.390045754E+02 -0.314421021E+01 -0.209852820E+01
   H  0.383037914E+02  0.521618672E+00  0.347560987E+01
     4
 # iter = 72000  time[fs]=72.00000
   C -0.795998989E+01  0.381281543E+00  0.308060910E-01
   C  0.807708460E+01 -0.768365237E-01 -0.124125677E+00
   H -0.393750448E+02 -0.317383413E+01 -0.211862485E+01
   H  0.386660725E+02  0.526913174E+00  0.350862547E+01
     4
 # iter = 72500  time[fs]=72.50000
   C -0.804145958E+01  0.385307603E+00  0.313348748E-01
   C  0.815905940E+01 -0.777794885E-01 -0.125635141E+00
   H -0.397455692E+02 -0.320346319E+01 -0.213872489E+01
   H  0.390284114E+02  0.532208710E+00  0.354164697E+01
     4
 # iter = 73000  time[fs]=73.00000
   C -0.812297051E+01  0.389335199E+00  0.318641678E-01
   C  0.824107521E+01 -0.787236522E-01 -0.127145320E+00
   H -0.401161478E+02 -0.323309729E+01 -0.215882826E+01
   H  0.393908070E+02  0.537505261E+00  0.357467427E+01
     4
 # iter = 73500  time[fs]=73.50000
   C -0.820452185E+01  0.393364299E+00  0.323939613E-01
   C  0.832313122E+01 -0.796689918E-01 -0.128656202E+00
   H -0.404867795E+02 -0.326273634E+01 -0.217893490E+01
   H  0.397532584E+02  0.542802811E+00  0.360770726E+01
     4
 # iter = 74000  time[fs]=74.00000
   C -0.828611279E+01  0.397394877E+00  0.329242469E-01
   C  0.840522662E+01 -0.806154851E-01 -0.130167774E+00
   H -0.408574633E+02 -0.329238026E+01 -0.219904475E+01
   H  0.401157644E+02  0.548101342E+00  0.364074584E+01
     4
 # iter = 74500  time[fs]=74.50000
   C -0.836774257E+01  0.401426904E+00  0.334550163E-01
   C  0.848736064E+01 -0.815631102E-01 -0.131680025E+00
   H -0.412281984E+02 -0.332202895E+01 -0.221915775E+01
   H  0.404783242E+02  0.553400837E+00  0.367378991E+01
     4
 # iter = 75000  time[fs]=75.00000
   C -0.844941042E+01  0.405460355E+00  0.339862616E-01
   C  0.856953254E+01 -0.825118461E-01 -0.133192943E+00
   H -0.415989839E+02 -0.335168234E+01 -0.223927385E+01
   H  0.408409368E+02  0.558701280E+00  0.370683938E+01
     4
 # iter = 75500  time[fs]=75.50000
   C -0.853111562E+01  0.409495202E+00  0.345179749E-01
   C  0.865174158E+01 -0.834616723E-01 -0.134706518E+00
   H -0.419698187E+02 -0.338134035E+01 -0.225939300E+01
   H  0.412036013E+02  0.564002656E+00  0.373989416E+01
     4
 # iter = 76000  time[fs]=76.00000
   C -0.861285745E+01  0.413531421E+00  0.350501486E-01
   C  0.873398706E+01 -0.844125686E-01 -0.136220738E+00
   H -0.423407022E+02 -0.341100288E+01 -0.227951514E+01
   H  0.415663167E+02  0.569304948E+00  0.377295414E+01
     4
 # iter = 76500  time[fs]=76.50000
   C -0.869463522E+01  0.417568987E+00  0.355827752E-01
   C  0.881626827E+01 -0.853645158E-01 -0.137735592E+00
   H -0.427116333E+02 -0.344066988E+01 -0.229964023E+01
   H  0.419290822E+02  0.574608141E+00  0.380601925E+01
     4
 # iter = 77000  time[fs]=77.00000
   C -0.877644826E+01  0.421607876E+00  0.361158474E-01
   C  0.889858457E+01 -0.863174948E-01 -0.139251071E+00
   H -0.430826115E+02 -0.347034125E+01 -0.231976820E+01
   H  0.422918969E+02  0.579912222E+00  0.383908940E+01
     4
 # iter = 77500  time[fs]=77.50000
   C -0.885829591E+01  0.425648065E+00  0.366493580E-01
   C  0.898093528E+01 -0.872714871E-01 -0.140767164E+00
   H -0.434536357E+02 -0.350001693E+01 -0.233989902E+01
   H  0.426547601E+02  0.585217175E+00  0.387216451E+01
     4
 # iter = 78000  time[fs]=78.00000
   C -0.894017753E+01  0.429689530E+00  0.371833002E-01
   C  0.906331979E+01 -0.882264750E-01 -0.142283862E+00
   H -0.438247053E+02 -0.352969685E+01 -0.236003264E+01
   H  0.430176708E+02  0.590522986E+00  0.390524448E+01
     4
 # iter = 78500  time[fs]=78.50000
   C -0.902209251E+01  0.433732250E+00  0.377176671E-01
   C  0.914573747E+01 -0.891824408E-01 -0.143801155E+00
   H -0.441958194E+02 -0.355938093E+01 -0.238016900E+01
   H  0.433806283E+02  0.595829642E+00  0.393832925E+01
     4
 # iter = 79000  time[fs]=79.00000
   C -0.910404024E+01  0.437776204E+00  0.382524521E-01
   C  0.922818771E+01 -0.901393676E-01 -0.145319033E+00
   H -0.445669775E+02 -0.358906911E+01 -0.240030808E+01
   H  0.437436318E+02  0.601137130E+00  0.397141873E+01
     4
 # iter = 79500  time[fs]=79.50000
   C -0.918602013E+01  0.441821369E+00  0.387876487E-01
   C  0.931066995E+01 -0.910972386E-01 -0.146837487E+00
   H -0.449381786E+02 -0.361876131E+01 -0.242044981E+01
   H  0.441066805E+02  0.606445436E+00  0.400451285E+01
     4
 # iter = 80000  time[fs]=80.00000
   C -0.926803162E+01  0.445867726E+00  0.393232505E-01
   C  0.939318360E+01 -0.920560379E-01 -0.148356508E+00
   H -0.453094222E+02 -0.364845749E+01 -0.244059417E+01
   H  0.444697738E+02  0.611754547E+00  0.403761153E+01
