     4
 # iter = 25000  time[fs]=25.00000
   C -0.102336562E+01  0.556597591E-01 -0.514617489E-01
   C  0.103567141E+01 -0.297976389E-02  0.241814108E-01
   H -0.521260399E+01 -0.607145426E+00  0.625657588E+00
   H  0.537518782E+01  0.468039387E+00 -0.586681949E+00
     4
 # iter = 25500  time[fs]=25.50000
   C -0.107536954E+01  0.578369908E-01 -0.557390542E-01
   C  0.108183873E+01 -0.616872312E-02  0.251917315E-01
   H -0.555254039E+01 -0.656617154E+00  0.659758431E+00
   H  0.568717002E+01  0.490690817E+00 -0.633790872E+00
     4
 # iter = 26000  time[fs]=26.00000
   C -0.113218199E+01  0.593235268E-01 -0.610126418E-01
   C  0.113084009E+01 -0.106372157E-01  0.252149254E-01
   H -0.590052177E+01 -0.711850520E+00  0.688817963E+00
   H  0.599632429E+01  0.508179745E+00 -0.686624459E+00
     4
 # iter = 26500  time[fs]=26.50000
   C -0.119097554E+01  0.625774999E-01 -0.648020121E-01
   C  0.118574105E+01 -0.129483811E-01  0.276678185E-01
   H -0.624015718E+01 -0.756719909E+00  0.728878629E+00
   H  0.631848097E+01  0.536578014E+00 -0.729055693E+00
     4
 # iter = 27000  time[fs]=27.00000
   C -0.125129149E+01  0.677115451E-01 -0.669731167E-01
   C  0.124637326E+01 -0.129242157E-01  0.327085371E-01
   H -0.657040132E+01 -0.790396176E+00  0.780702346E+00
   H  0.665420253E+01  0.576660662E+00 -0.760260736E+00
     4
 # iter = 27500  time[fs]=27.50000
   C -0.131465502E+01  0.728806619E-01 -0.693507148E-01
   C  0.130987517E+01 -0.131073467E-01  0.377751620E-01
   H -0.690301644E+01 -0.824819131E+00  0.832294445E+00
   H  0.699130618E+01  0.616433151E+00 -0.792190658E+00
     4
 # iter = 28000  time[fs]=28.00000
   C -0.138208393E+01  0.767772987E-01 -0.732234304E-01
   C  0.137416072E+01 -0.152948088E-01  0.410525371E-01
   H -0.724629337E+01 -0.868432499E+00  0.875164050E+00
   H  0.732114060E+01  0.647405961E+00 -0.833297505E+00
     4
 # iter = 28500  time[fs]=28.50000
   C -0.145280212E+01  0.799182895E-01 -0.780568901E-01
   C  0.143970737E+01 -0.187499395E-01  0.432606482E-01
   H -0.759665305E+01 -0.917793257E+00  0.912712156E+00
   H  0.764697990E+01  0.672989833E+00 -0.880138856E+00
     4
 # iter = 29000  time[fs]=29.00000
   C -0.152529760E+01  0.835838470E-01 -0.825547399E-01
   C  0.150807909E+01 -0.216767338E-01  0.461801868E-01
   H -0.794556218E+01 -0.964488372E+00  0.953314578E+00
   H  0.797709531E+01  0.701573351E+00 -0.924298850E+00
     4
 # iter = 29500  time[fs]=29.50000
   C -0.159892441E+01  0.882119656E-01 -0.862642013E-01
   C  0.157969203E+01 -0.234510921E-01  0.504211284E-01
   H -0.829000155E+01 -0.100560283E+01  0.999854108E+00
   H  0.831427320E+01  0.736046962E+00 -0.962862729E+00
     4
 # iter = 30000  time[fs]=30.00000
   C -0.167412540E+01  0.931731664E-01 -0.898012595E-01
   C  0.165349902E+01 -0.249338050E-01  0.551096745E-01
   H -0.863393226E+01 -0.104518776E+01  0.104825180E+01
   H  0.865434266E+01  0.772333265E+00 -0.999885918E+00
     4
 # iter = 30500  time[fs]=30.50000
   C -0.175143462E+01  0.977665059E-01 -0.938545718E-01
   C  0.172837226E+01 -0.270861656E-01  0.592726450E-01
   H -0.898179717E+01 -0.108776520E+01  0.109396115E+01
   H  0.899267437E+01  0.805886277E+00 -0.103989471E+01
     4
 # iter = 31000  time[fs]=31.00000
   C -0.183071805E+01  0.101977217E+00 -0.984277349E-01
   C  0.180415448E+01 -0.299168434E-01  0.628905785E-01
   H -0.933357725E+01 -0.113338714E+01  0.113690817E+01
   H  0.932912416E+01  0.836635429E+00 -0.108294223E+01
     4
 # iter = 31500  time[fs]=31.50000
   C -0.191139395E+01  0.106254276E+00 -0.103061622E+00
   C  0.188134791E+01 -0.327909905E-01  0.665885345E-01
   H -0.968624069E+01 -0.117908563E+01  0.118004094E+01
   H  0.966658014E+01  0.867534099E+00 -0.112605957E+01
     4
 # iter = 32000  time[fs]=32.00000
   C -0.199306646E+01  0.110874720E+00 -0.107469977E+00
   C  0.196022866E+01 -0.353137634E-01  0.707524525E-01
   H -0.100378875E+02 -0.122301790E+01  0.122518442E+01
   H  0.100068128E+02  0.900411380E+00 -0.116740362E+01
     4
 # iter = 32500  time[fs]=32.50000
   C -0.207575185E+01  0.115715642E+00 -0.111767326E+00
   C  0.204052829E+01 -0.376471546E-01  0.752122257E-01
   H -0.103892354E+02 -0.126595281E+01  0.127155381E+01
   H  0.103489860E+02  0.934484388E+00 -0.120774448E+01
     4
 # iter = 33000  time[fs]=33.00000
   C -0.215960344E+01  0.120527922E+00 -0.116195171E+00
   C  0.212181294E+01 -0.401293885E-01  0.796222369E-01
   H -0.107418333E+02 -0.130948525E+01  0.131753985E+01
   H  0.106914434E+02  0.968144866E+00 -0.124867879E+01
     4
 # iter = 33500  time[fs]=33.50000
   C -0.224461013E+01  0.125236510E+00 -0.120821626E+00
   C  0.220389970E+01 -0.428574101E-01  0.838788107E-01
   H -0.110961019E+02 -0.135407751E+01  0.136266718E+01
   H  0.110336675E+02  0.100091909E+01 -0.129066965E+01
     4
 # iter = 34000  time[fs]=34.00000
   C -0.233059236E+01  0.129943400E+00 -0.125538377E+00
   C  0.228685967E+01 -0.456827011E-01  0.881243351E-01
   H -0.114513132E+02 -0.139903966E+01  0.140761382E+01
   H  0.113762990E+02  0.103348734E+01 -0.133302714E+01
     4
 # iter = 34500  time[fs]=34.50000
   C -0.241738019E+01  0.134748502E+00 -0.130239749E+00
   C  0.237076796E+01 -0.484602293E-01  0.924982475E-01
   H -0.118067585E+02 -0.144369753E+01  0.145304304E+01
   H  0.117199670E+02  0.106651498E+01 -0.137507707E+01
     4
 # iter = 35000  time[fs]=35.00000
   C -0.250491428E+01  0.139647779E+00 -0.134924508E+00
   C  0.245556133E+01 -0.511899966E-01  0.969954297E-01
   H -0.121624120E+02 -0.148805684E+01  0.149893916E+01
   H  0.120646243E+02  0.109998780E+01 -0.141682551E+01
     4
 # iter = 35500  time[fs]=35.50000
   C -0.259319791E+01  0.144580471E+00 -0.139648594E+00
   C  0.254110311E+01 -0.539513339E-01  0.101531866E+00
   H -0.125186221E+02 -0.153249498E+01  0.154491567E+01
   H  0.124098551E+02  0.113352033E+01 -0.145865044E+01
     4
 # iter = 36000  time[fs]=36.00000
   C -0.268221276E+01  0.149512709E+00 -0.144441458E+00
   C  0.262729884E+01 -0.567866152E-01  0.106060888E+00
   H -0.128755661E+02 -0.157721550E+01  0.159076059E+01
   H  0.127554204E+02  0.116690166E+01 -0.150075583E+01
     4
 # iter = 36500  time[fs]=36.50000
   C -0.277189917E+01  0.154456614E+00 -0.149286923E+00
   C  0.271412229E+01 -0.596746553E-01  0.110599738E+00
   H -0.132331245E+02 -0.162212340E+01  0.163656119E+01
   H  0.131013831E+02  0.120022022E+01 -0.154304687E+01
     4
 # iter = 37000  time[fs]=37.00000
   C -0.286219098E+01  0.159435000E+00 -0.154158447E+00
   C  0.280156592E+01 -0.625797562E-01  0.115180489E+00
   H -0.135911113E+02 -0.166705521E+01  0.168247376E+01
   H  0.134478767E+02  0.123363346E+01 -0.158536019E+01
     4
 # iter = 37500  time[fs]=37.50000
   C -0.295304410E+01  0.164452361E+00 -0.159048104E+00
   C  0.288960013E+01 -0.654920014E-01  0.119809720E+00
   H -0.139494630E+02 -0.171196807E+01  0.172853453E+01
   H  0.137949165E+02  0.126717855E+01 -0.162765310E+01
     4
 # iter = 38000  time[fs]=38.00000
   C -0.304443287E+01  0.169498055E+00 -0.163963369E+00
   C  0.297817733E+01 -0.684228033E-01  0.124472939E+00
   H -0.143082173E+02 -0.175691891E+01  0.177468040E+01
   H  0.141424198E+02  0.130079322E+01 -0.166998273E+01
     4
 # iter = 38500  time[fs]=38.50000
   C -0.313633328E+01  0.174562835E+00 -0.168910567E+00
   C  0.306725461E+01 -0.713818900E-01  0.129157573E+00
   H -0.146674051E+02 -0.180195645E+01  0.182085693E+01
   H  0.144903141E+02  0.133442379E+01 -0.171239801E+01
     4
 # iter = 39000  time[fs]=39.00000
   C -0.322871564E+01  0.179645786E+00 -0.173887907E+00
   C  0.315680309E+01 -0.743676400E-01  0.133862611E+00
   H -0.150270050E+02 -0.184707595E+01  0.186706353E+01
   H  0.148385819E+02  0.136807041E+01 -0.175489432E+01
     4
 # iter = 39500  time[fs]=39.50000
   C -0.332154900E+01  0.184749710E+00 -0.178890080E+00
   C  0.324680126E+01 -0.773734727E-01  0.138592195E+00
   H -0.153869735E+02 -0.189224915E+01  0.191332347E+01
   H  0.151872308E+02  0.140175705E+01 -0.179744352E+01
     4
 # iter = 40000  time[fs]=40.00000
   C -0.341480654E+01  0.189875435E+00 -0.183913935E+00
   C  0.333722686E+01 -0.803957513E-01  0.143347699E+00
   H -0.157472815E+02 -0.193746143E+01  0.195964673E+01
   H  0.155362562E+02  0.143549434E+01 -0.184003107E+01
     4
 # iter = 40500  time[fs]=40.50000
   C -0.350846610E+01  0.195021123E+00 -0.188959149E+00
   C  0.342805573E+01 -0.834347149E-01  0.148126781E+00
   H -0.161079191E+02 -0.198271614E+01  0.200602560E+01
   H  0.158856365E+02  0.146927515E+01 -0.188266044E+01
     4
 # iter = 41000  time[fs]=41.00000
   C -0.360250768E+01  0.200184575E+00 -0.194025911E+00
   C  0.351926482E+01 -0.864912672E-01  0.152926582E+00
   H -0.164688798E+02 -0.202801959E+01  0.205244970E+01
   H  0.162353485E+02  0.150308965E+01 -0.192533801E+01
     4
 # iter = 41500  time[fs]=41.50000
   C -0.369691180E+01  0.205364668E+00 -0.199113472E+00
   C  0.361083407E+01 -0.895649635E-01  0.157745721E+00
   H -0.168301520E+02 -0.207337160E+01  0.209891537E+01
   H  0.165853766E+02  0.153693468E+01 -0.196806372E+01
     4
 # iter = 42000  time[fs]=42.00000
   C -0.379165975E+01  0.210561022E+00 -0.204220463E+00
   C  0.370274577E+01 -0.926544587E-01  0.162583843E+00
   H -0.171917200E+02 -0.211876766E+01  0.214542354E+01
   H  0.169357105E+02  0.157081167E+01 -0.201083308E+01
     4
 # iter = 42500  time[fs]=42.50000
   C -0.388673418E+01  0.215773209E+00 -0.209345682E+00
   C  0.379498338E+01 -0.957585977E-01  0.167440514E+00
   H -0.175535696E+02 -0.216420398E+01  0.219197460E+01
   H  0.172863398E+02  0.160472146E+01 -0.205364240E+01
     4
 # iter = 43000  time[fs]=43.00000
   C -0.398211927E+01  0.221000509E+00 -0.214488320E+00
   C  0.388753104E+01 -0.988767421E-01  0.172314885E+00
   H -0.179156898E+02 -0.220967909E+01  0.223856683E+01
   H  0.176372528E+02  0.163866273E+01 -0.209649025E+01
     4
 # iter = 43500  time[fs]=43.50000
   C -0.407780040E+01  0.226242129E+00 -0.219647741E+00
   C  0.398037383E+01 -0.102008462E+00  0.177205994E+00
   H -0.182780708E+02 -0.225519242E+01  0.228519779E+01
   H  0.179884378E+02  0.167263348E+01 -0.213937611E+01
     4
 # iter = 44000  time[fs]=44.00000
   C -0.417376384E+01  0.231497396E+00 -0.224823278E+00
   C  0.407349790E+01 -0.105153255E+00  0.182113036E+00
   H -0.186407030E+02 -0.230074292E+01  0.233186570E+01
   H  0.183398839E+02  0.170663226E+01 -0.218229899E+01
     4
 # iter = 44500  time[fs]=44.50000
   C -0.426999669E+01  0.236765759E+00 -0.230014222E+00
   C  0.416689044E+01 -0.108310535E+00  0.187035373E+00
   H -0.190035766E+02 -0.234632908E+01  0.237856937E+01
   H  0.186915818E+02  0.174065824E+01 -0.222525741E+01
     4
 # iter = 45000  time[fs]=45.00000
   C -0.436648685E+01  0.242046710E+00 -0.235219898E+00
   C  0.426053945E+01 -0.111479738E+00  0.191972415E+00
   H -0.193666825E+02 -0.239194941E+01  0.242530775E+01
   H  0.190435223E+02  0.177471072E+01 -0.226824992E+01
     4
 # iter = 45500  time[fs]=45.50000
   C -0.446322303E+01  0.247339745E+00 -0.240439698E+00
   C  0.435443368E+01 -0.114660370E+00  0.196923573E+00
   H -0.197300123E+02 -0.243760267E+01  0.247207967E+01
   H  0.193956969E+02  0.180878883E+01 -0.231127531E+01
     4
 # iter = 46000  time[fs]=46.00000
   C -0.456019465E+01  0.252644374E+00 -0.245673065E+00
   C  0.444856254E+01 -0.117851988E+00  0.201888270E+00
   H -0.200935579E+02 -0.248328778E+01  0.251888393E+01
   H  0.197480971E+02  0.184289166E+01 -0.235433255E+01
     4
 # iter = 46500  time[fs]=46.50000
   C -0.465739175E+01  0.257960135E+00 -0.250919469E+00
   C  0.454291608E+01 -0.121054170E+00  0.206865963E+00
   H -0.204573119E+02 -0.252900371E+01  0.256571938E+01
   H  0.201007151E+02  0.187701835E+01 -0.239742062E+01
     4
 # iter = 47000  time[fs]=47.00000
   C -0.475480499E+01  0.263286603E+00 -0.256178407E+00
   C  0.463748498E+01 -0.124266509E+00  0.211856151E+00
   H -0.208212670E+02 -0.257474943E+01  0.261258500E+01
   H  0.204535436E+02  0.191116813E+01 -0.244053853E+01
     4
 # iter = 47500  time[fs]=47.50000
   C -0.485242556E+01  0.268623373E+00 -0.261449398E+00
   C  0.473226046E+01 -0.127488616E+00  0.216858365E+00
   H -0.211854164E+02 -0.262052396E+01  0.265947982E+01
   H  0.208065754E+02  0.194534028E+01 -0.248368529E+01
     4
 # iter = 48000  time[fs]=48.00000
   C -0.495024515E+01  0.273970066E+00 -0.266731991E+00
   C  0.482723422E+01 -0.130720127E+00  0.221872158E+00
   H -0.215497536E+02 -0.266632635E+01  0.270640292E+01
   H  0.211598038E+02  0.197953412E+01 -0.252686001E+01
     4
 # iter = 48500  time[fs]=48.50000
   C -0.504825596E+01  0.279326318E+00 -0.272025761E+00
   C  0.492239848E+01 -0.133960698E+00  0.226897104E+00
   H -0.219142724E+02 -0.271215572E+01  0.275335338E+01
   H  0.215132225E+02  0.201374898E+01 -0.257006181E+01
     4
 # iter = 49000  time[fs]=49.00000
   C -0.514645058E+01  0.284691786E+00 -0.277330303E+00
   C  0.501774585E+01 -0.137210004E+00  0.231932801E+00
   H -0.222789670E+02 -0.275801125E+01  0.280033037E+01
   H  0.218668254E+02  0.204798420E+01 -0.261328988E+01
     4
 # iter = 49500  time[fs]=49.50000
   C -0.524482204E+01  0.290066144E+00 -0.282645235E+00
   C  0.511326937E+01 -0.140467736E+00  0.236978868E+00
   H -0.226438317E+02 -0.280389211E+01  0.284733307E+01
   H  0.222206067E+02  0.208223919E+01 -0.265654342E+01
     4
 # iter = 50000  time[fs]=50.00000
   C -0.534336374E+01  0.295449084E+00 -0.287970194E+00
   C  0.520896246E+01 -0.143733600E+00  0.242034943E+00
   H -0.230088612E+02 -0.284979755E+01  0.289436071E+01
   H  0.225745608E+02  0.211651336E+01 -0.269982169E+01
     4
 # iter = 50500  time[fs]=50.50000
   C -0.544206943E+01  0.300840312E+00 -0.293304834E+00
   C  0.530481888E+01 -0.147007318E+00  0.247100684E+00
   H -0.233740504E+02 -0.289572684E+01  0.294141254E+01
   H  0.229286825E+02  0.215080616E+01 -0.274312397E+01
     4
 # iter = 51000  time[fs]=51.00000
   C -0.554093317E+01  0.306239549E+00 -0.298648827E+00
   C  0.540083273E+01 -0.150288625E+00  0.252175763E+00
   H -0.237393945E+02 -0.294167927E+01  0.298848787E+01
   H  0.232829667E+02  0.218511706E+01 -0.278644956E+01
     4
 # iter = 51500  time[fs]=51.50000
   C -0.563994936E+01  0.311646531E+00 -0.304001862E+00
   C  0.549699838E+01 -0.153577268E+00  0.257259872E+00
   H -0.241048888E+02 -0.298765418E+01  0.303558600E+01
   H  0.236374087E+02  0.221944554E+01 -0.282979780E+01
     4
 # iter = 52000  time[fs]=52.00000
   C -0.573911266E+01  0.317061004E+00 -0.309363642E+00
   C  0.559331054E+01 -0.156873008E+00  0.262352713E+00
   H -0.244705289E+02 -0.303365091E+01  0.308270631E+01
   H  0.239920038E+02  0.225379111E+01 -0.287316806E+01
     4
 # iter = 52500  time[fs]=52.50000
   C -0.583841800E+01  0.322482728E+00 -0.314733885E+00
   C  0.568976415E+01 -0.160175617E+00  0.267454006E+00
   H -0.248363106E+02 -0.307966887E+01  0.312984815E+01
   H  0.243467476E+02  0.228815332E+01 -0.291655975E+01
     4
 # iter = 53000  time[fs]=53.00000
   C -0.593786057E+01  0.327911474E+00 -0.320112319E+00
   C  0.578635440E+01 -0.163484876E+00  0.272563482E+00
   H -0.252022297E+02 -0.312570746E+01  0.317701095E+01
   H  0.247016359E+02  0.232253171E+01 -0.295997226E+01
     4
 # iter = 53500  time[fs]=53.50000
   C -0.603743579E+01  0.333347022E+00 -0.325498690E+00
   C  0.588307673E+01 -0.166800578E+00  0.277680885E+00
   H -0.255682825E+02 -0.317176612E+01  0.322419412E+01
   H  0.250566646E+02  0.235692584E+01 -0.300340506E+01
     4
 # iter = 54000  time[fs]=54.00000
   C -0.613713930E+01  0.338789164E+00 -0.330892751E+00
   C  0.597992679E+01 -0.170122523E+00  0.282805971E+00
   H -0.259344651E+02 -0.321784431E+01  0.327139713E+01
   H  0.254118299E+02  0.239133531E+01 -0.304685760E+01
     4
 # iter = 54500  time[fs]=54.50000
   C -0.623696694E+01  0.344237700E+00 -0.336294268E+00
   C  0.607690043E+01 -0.173450524E+00  0.287938507E+00
   H -0.263007740E+02 -0.326394150E+01  0.331861944E+01
   H  0.257671280E+02  0.242575971E+01 -0.309032937E+01
     4
 # iter = 55000  time[fs]=55.00000
   C -0.633691474E+01  0.349692439E+00 -0.341703017E+00
   C  0.617399371E+01 -0.176784398E+00  0.293078269E+00
   H -0.266672057E+02 -0.331005720E+01  0.336586056E+01
   H  0.261225555E+02  0.246019867E+01 -0.313381986E+01
     4
 # iter = 55500  time[fs]=55.50000
   C -0.643697894E+01  0.355153198E+00 -0.347118783E+00
   C  0.627120284E+01 -0.180123972E+00  0.298225043E+00
   H -0.270337571E+02 -0.335619093E+01  0.341311998E+01
   H  0.264781087E+02  0.249465182E+01 -0.317732862E+01
     4
 # iter = 56000  time[fs]=56.00000
   C -0.653715591E+01  0.360619802E+00 -0.352541363E+00
   C  0.636852425E+01 -0.183469080E+00  0.303378627E+00
   H -0.274004248E+02 -0.340234222E+01  0.346039726E+01
   H  0.268337846E+02  0.252911879E+01 -0.322085518E+01
     4
 # iter = 56500  time[fs]=56.50000
   C -0.663744221E+01  0.366092085E+00 -0.357970559E+00
   C  0.646595448E+01 -0.186819563E+00  0.308538824E+00
   H -0.277672059E+02 -0.344851064E+01  0.350769194E+01
   H  0.271895798E+02  0.256359925E+01 -0.326439909E+01
     4
 # iter = 57000  time[fs]=57.00000
   C -0.673783454E+01  0.371569886E+00 -0.363406183E+00
   C  0.656349026E+01 -0.190175270E+00  0.313705446E+00
   H -0.281340975E+02 -0.349469576E+01  0.355500358E+01
   H  0.275454913E+02  0.259809288E+01 -0.330795994E+01
     4
 # iter = 57500  time[fs]=57.50000
   C -0.683832975E+01  0.377053050E+00 -0.368848056E+00
   C  0.666112844E+01 -0.193536053E+00  0.318878314E+00
   H -0.285010967E+02 -0.354089716E+01  0.360233178E+01
   H  0.279015162E+02  0.263259935E+01 -0.335153731E+01
     4
 # iter = 58000  time[fs]=58.00000
   C -0.693892483E+01  0.382541430E+00 -0.374296004E+00
   C  0.675886601E+01 -0.196901774E+00  0.324057256E+00
   H -0.288682008E+02 -0.358711444E+01  0.364967612E+01
   H  0.282576517E+02  0.266711835E+01 -0.339513081E+01
     4
 # iter = 58500  time[fs]=58.50000
   C -0.703961687E+01  0.388034886E+00 -0.379749862E+00
   C  0.685670009E+01 -0.200272298E+00  0.329242107E+00
   H -0.292354073E+02 -0.363334724E+01  0.369703623E+01
   H  0.286138951E+02  0.270164960E+01 -0.343874006E+01
     4
 # iter = 59000  time[fs]=59.00000
   C -0.714040313E+01  0.393533280E+00 -0.385209469E+00
   C  0.695462792E+01 -0.203647495E+00  0.334432706E+00
   H -0.296027136E+02 -0.367959517E+01  0.374441172E+01
   H  0.289702437E+02  0.273619281E+01 -0.348236469E+01
     4
 # iter = 59500  time[fs]=59.50000
   C -0.724128093E+01  0.399036482E+00 -0.390674674E+00
   C  0.705264686E+01 -0.207027242E+00  0.339628903E+00
   H -0.299701173E+02 -0.372585789E+01  0.379180225E+01
   H  0.293266950E+02  0.277074770E+01 -0.352600435E+01
     4
 # iter = 60000  time[fs]=60.00000
   C -0.734224773E+01  0.404544366E+00 -0.396145328E+00
   C  0.715075437E+01 -0.210411419E+00  0.344830550E+00
   H -0.303376160E+02 -0.377213505E+01  0.383920745E+01
   H  0.296832466E+02  0.280531401E+01 -0.356965869E+01
     4
 # iter = 60500  time[fs]=60.50000
   C -0.744330109E+01  0.410056811E+00 -0.401621291E+00
   C  0.724894801E+01 -0.213799912E+00  0.350037506E+00
   H -0.307052076E+02 -0.381842632E+01  0.388662700E+01
   H  0.300398961E+02  0.283989149E+01 -0.361332739E+01
     4
 # iter = 61000  time[fs]=61.00000
   C -0.754443866E+01  0.415573702E+00 -0.407102427E+00
   C  0.734722544E+01 -0.217192611E+00  0.355249635E+00
   H -0.310728898E+02 -0.386473137E+01  0.393406058E+01
   H  0.303966413E+02  0.287447988E+01 -0.365701012E+01
     4
 # iter = 61500  time[fs]=61.50000
   C -0.764565818E+01  0.421094926E+00 -0.412588604E+00
   C  0.744558442E+01 -0.220589409E+00  0.360466807E+00
   H -0.314406605E+02 -0.391104991E+01  0.398150786E+01
   H  0.307534799E+02  0.290907894E+01 -0.370070657E+01
     4
 # iter = 62000  time[fs]=62.00000
   C -0.774695750E+01  0.426620375E+00 -0.418079696E+00
   C  0.754402278E+01 -0.223990204E+00  0.365688896E+00
   H -0.318085178E+02 -0.395738162E+01  0.402896855E+01
   H  0.311104099E+02  0.294368845E+01 -0.374441645E+01
     4
 # iter = 62500  time[fs]=62.50000
   C -0.784833452E+01  0.432149946E+00 -0.423575582E+00
   C  0.764253846E+01 -0.227394898E+00  0.370915781E+00
   H -0.321764597E+02 -0.400372623E+01  0.407644235E+01
   H  0.314674291E+02  0.297830817E+01 -0.378813946E+01
     4
 # iter = 63000  time[fs]=63.00000
   C -0.794978723E+01  0.437683538E+00 -0.429076144E+00
   C  0.774112945E+01 -0.230803396E+00  0.376147344E+00
   H -0.325444842E+02 -0.405008345E+01  0.412392898E+01
   H  0.318245357E+02  0.301293790E+01 -0.383187534E+01
     4
 # iter = 63500  time[fs]=63.50000
   C -0.805131372E+01  0.443221055E+00 -0.434581270E+00
   C  0.783979383E+01 -0.234215606E+00  0.381383474E+00
   H -0.329125896E+02 -0.409645302E+01  0.417142816E+01
   H  0.321817276E+02  0.304757742E+01 -0.387562379E+01
     4
 # iter = 64000  time[fs]=64.00000
   C -0.815291211E+01  0.448762403E+00 -0.440090851E+00
   C  0.793852975E+01 -0.237631440E+00  0.386624061E+00
   H -0.332807741E+02 -0.414283466E+01  0.421893963E+01
   H  0.325390031E+02  0.308222652E+01 -0.391938457E+01
     4
 # iter = 64500  time[fs]=64.50000
   C -0.825458062E+01  0.454307492E+00 -0.445604781E+00
   C  0.803733542E+01 -0.241050812E+00  0.391869001E+00
   H -0.336490359E+02 -0.418922813E+01  0.426646314E+01
   H  0.328963603E+02  0.311688502E+01 -0.396315741E+01
     4
 # iter = 65000  time[fs]=65.00000
   C -0.835631753E+01  0.459856237E+00 -0.451122960E+00
   C  0.813620913E+01 -0.244473640E+00  0.397118192E+00
   H -0.340173734E+02 -0.423563318E+01  0.431399842E+01
   H  0.332537975E+02  0.315155271E+01 -0.400694208E+01
     4
 # iter = 65500  time[fs]=65.50000
   C -0.845812116E+01  0.465408552E+00 -0.456645288E+00
   C  0.823514921E+01 -0.247899845E+00  0.402371536E+00
   H -0.343857851E+02 -0.428204957E+01  0.436154525E+01
   H  0.336113131E+02  0.318622942E+01 -0.405073832E+01
     4
 # iter = 66000  time[fs]=66.00000
   C -0.855998992E+01  0.470964356E+00 -0.462171672E+00
   C  0.833415407E+01 -0.251329349E+00  0.407628939E+00
   H -0.347542693E+02 -0.432847708E+01  0.440910338E+01
   H  0.339689054E+02  0.322091496E+01 -0.409454592E+01
     4
 # iter = 66500  time[fs]=66.50000
   C -0.866192225E+01  0.476523572E+00 -0.467702020E+00
   C  0.843322217E+01 -0.254762079E+00  0.412890310E+00
   H -0.351228246E+02 -0.437491547E+01  0.445667259E+01
   H  0.343265728E+02  0.325560915E+01 -0.413836463E+01
     4
 # iter = 67000  time[fs]=67.00000
   C -0.876391666E+01  0.482086124E+00 -0.473236243E+00
   C  0.853235201E+01 -0.258197963E+00  0.418155559E+00
   H -0.354914494E+02 -0.442136453E+01  0.450425266E+01
   H  0.346843137E+02  0.329031184E+01 -0.418219425E+01
     4
 # iter = 67500  time[fs]=67.50000
   C -0.886597170E+01  0.487651938E+00 -0.478774255E+00
   C  0.863154215E+01 -0.261636931E+00  0.423424603E+00
   H -0.358601424E+02 -0.446782405E+01  0.455184338E+01
   H  0.350421268E+02  0.332502284E+01 -0.422603457E+01
     4
 # iter = 68000  time[fs]=68.00000
   C -0.896808598E+01  0.493220943E+00 -0.484315975E+00
   C  0.873079122E+01 -0.265078916E+00  0.428697357E+00
   H -0.362289023E+02 -0.451429383E+01  0.459944453E+01
   H  0.354000106E+02  0.335974202E+01 -0.426988537E+01
     4
 # iter = 68500  time[fs]=68.50000
   C -0.907025815E+01  0.498793070E+00 -0.489861321E+00
   C  0.883009785E+01 -0.268523853E+00  0.433973743E+00
   H -0.365977276E+02 -0.456077366E+01  0.464705592E+01
   H  0.357579636E+02  0.339446920E+01 -0.431374646E+01
     4
 # iter = 69000  time[fs]=69.00000
   C -0.917248691E+01  0.504368254E+00 -0.495410216E+00
   C  0.892946077E+01 -0.271971679E+00  0.439253682E+00
   H -0.369666170E+02 -0.460726335E+01  0.469467734E+01
   H  0.361159845E+02  0.342920423E+01 -0.435761764E+01
     4
 # iter = 69500  time[fs]=69.50000
   C -0.927477099E+01  0.509946429E+00 -0.500962585E+00
   C  0.902887870E+01 -0.275422333E+00  0.444537099E+00
   H -0.373355694E+02 -0.465376272E+01  0.474230862E+01
   H  0.364740720E+02  0.346394698E+01 -0.440149872E+01
     4
 # iter = 70000  time[fs]=70.00000
   C -0.937710917E+01  0.515527534E+00 -0.506518355E+00
   C  0.912835043E+01 -0.278875755E+00  0.449823922E+00
   H -0.377045835E+02 -0.470027159E+01  0.478994956E+01
   H  0.368322248E+02  0.349869730E+01 -0.444538952E+01
     4
 # iter = 70500  time[fs]=70.50000
   C -0.947950028E+01  0.521111507E+00 -0.512077456E+00
   C  0.922787479E+01 -0.282331889E+00  0.455114079E+00
   H -0.380736582E+02 -0.474678977E+01  0.483759999E+01
   H  0.371904416E+02  0.353345504E+01 -0.448928987E+01
     4
 # iter = 71000  time[fs]=71.00000
   C -0.958194317E+01  0.526698291E+00 -0.517639818E+00
   C  0.932745065E+01 -0.285790679E+00  0.460407504E+00
   H -0.384427922E+02 -0.479331709E+01  0.488525972E+01
   H  0.375487213E+02  0.356822008E+01 -0.453319957E+01
     4
 # iter = 71500  time[fs]=71.50000
   C -0.968443673E+01  0.532287827E+00 -0.523205376E+00
   C  0.942707689E+01 -0.289252071E+00  0.465704129E+00
   H -0.388119844E+02 -0.483985339E+01  0.493292859E+01
   H  0.379070627E+02  0.360299228E+01 -0.457711848E+01
     4
 # iter = 72000  time[fs]=72.00000
   C -0.978697989E+01  0.537880062E+00 -0.528774065E+00
   C  0.952675245E+01 -0.292716013E+00  0.471003890E+00
   H -0.391812339E+02 -0.488639851E+01  0.498060644E+01
   H  0.382654647E+02  0.363777152E+01 -0.462104642E+01
     4
 # iter = 72500  time[fs]=72.50000
   C -0.988957161E+01  0.543474940E+00 -0.534345823E+00
   C  0.962647629E+01 -0.296182453E+00  0.476306725E+00
   H -0.395505394E+02 -0.493295228E+01  0.502829311E+01
   H  0.386239260E+02  0.367255767E+01 -0.466498323E+01
     4
 # iter = 73000  time[fs]=73.00000
   C -0.999221088E+01  0.549072411E+00 -0.539920590E+00
   C  0.972624742E+01 -0.299651343E+00  0.481612573E+00
   H -0.399199000E+02 -0.497951455E+01  0.507598842E+01
   H  0.389824457E+02  0.370735060E+01 -0.470892876E+01
     4
 # iter = 73500  time[fs]=73.50000
   C -0.100948967E+02  0.554672424E+00 -0.545498305E+00
   C  0.982606485E+01 -0.303122635E+00  0.486921375E+00
   H -0.402893147E+02 -0.502608517E+01  0.512369225E+01
   H  0.393410227E+02  0.374215021E+01 -0.475288286E+01
     4
 # iter = 74000  time[fs]=74.00000
   C -0.101976282E+02  0.560274930E+00 -0.551078912E+00
   C  0.992592765E+01 -0.306596282E+00  0.492233074E+00
   H -0.406587825E+02 -0.507266400E+01  0.517140443E+01
   H  0.396996560E+02  0.377695637E+01 -0.479684537E+01
     4
 # iter = 74500  time[fs]=74.50000
   C -0.103004044E+02  0.565879881E+00 -0.556662356E+00
   C  0.100258349E+02 -0.310072240E+00  0.497547615E+00
   H -0.410283025E+02 -0.511925089E+01  0.521912482E+01
   H  0.400583446E+02  0.381176898E+01 -0.484081615E+01
     4
 # iter = 75000  time[fs]=75.00000
   C -0.104032244E+02  0.571487230E+00 -0.562248582E+00
   C  0.101257857E+02 -0.313550464E+00  0.502864943E+00
   H -0.413978738E+02 -0.516584571E+01  0.526685328E+01
   H  0.404170874E+02  0.384658793E+01 -0.488479507E+01
     4
 # iter = 75500  time[fs]=75.50000
   C -0.105060873E+02  0.577096934E+00 -0.567837539E+00
   C  0.102257792E+02 -0.317030912E+00  0.508185007E+00
   H -0.417674953E+02 -0.521244831E+01  0.531458967E+01
   H  0.407758836E+02  0.388141310E+01 -0.492878198E+01
     4
 # iter = 76000  time[fs]=76.00000
   C -0.106089924E+02  0.582708947E+00 -0.573429174E+00
   C  0.103258146E+02 -0.320513542E+00  0.513507755E+00
   H -0.421371664E+02 -0.525905857E+01  0.536233386E+01
   H  0.411347323E+02  0.391624440E+01 -0.497277675E+01
     4
 # iter = 76500  time[fs]=76.50000
   C -0.107119387E+02  0.588323227E+00 -0.579023439E+00
   C  0.104258910E+02 -0.323998314E+00  0.518833138E+00
   H -0.425068861E+02 -0.530567636E+01  0.541008572E+01
   H  0.414936324E+02  0.395108172E+01 -0.501677926E+01
     4
 # iter = 77000  time[fs]=77.00000
   C -0.108149256E+02  0.593939734E+00 -0.584620285E+00
   C  0.105260077E+02 -0.327485189E+00  0.524161107E+00
   H -0.428766535E+02 -0.535230155E+01  0.545784512E+01
   H  0.418525833E+02  0.398592497E+01 -0.506078937E+01
     4
 # iter = 77500  time[fs]=77.50000
   C -0.109179522E+02  0.599558426E+00 -0.590219665E+00
   C  0.106261638E+02 -0.330974129E+00  0.529491616E+00
   H -0.432464680E+02 -0.539893402E+01  0.550561194E+01
   H  0.422115840E+02  0.402077405E+01 -0.510480696E+01
     4
 # iter = 78000  time[fs]=78.00000
   C -0.110210177E+02  0.605179265E+00 -0.595821534E+00
   C  0.107263587E+02 -0.334465096E+00  0.534824619E+00
   H -0.436163286E+02 -0.544557366E+01  0.555338606E+01
   H  0.425706336E+02  0.405562886E+01 -0.514883191E+01
     4
 # iter = 78500  time[fs]=78.50000
   C -0.111241215E+02  0.610802212E+00 -0.601425846E+00
   C  0.108265916E+02 -0.337958054E+00  0.540160071E+00
   H -0.439862347E+02 -0.549222034E+01  0.560116735E+01
   H  0.429297314E+02  0.409048931E+01 -0.519286411E+01
     4
 # iter = 79000  time[fs]=79.00000
   C -0.112272628E+02  0.616427230E+00 -0.607032560E+00
   C  0.109268619E+02 -0.341452969E+00  0.545497929E+00
   H -0.443561854E+02 -0.553887395E+01  0.564895571E+01
   H  0.432888766E+02  0.412535532E+01 -0.523690343E+01
     4
 # iter = 79500  time[fs]=79.50000
   C -0.113304410E+02  0.622054283E+00 -0.612641632E+00
   C  0.110271687E+02 -0.344949806E+00  0.550838151E+00
   H -0.447261801E+02 -0.558553439E+01  0.569675101E+01
   H  0.436480684E+02  0.416022680E+01 -0.528094976E+01
     4
 # iter = 80000  time[fs]=80.00000
   C -0.114336553E+02  0.627683336E+00 -0.618253022E+00
   C  0.111275115E+02 -0.348448531E+00  0.556180696E+00
   H -0.450962180E+02 -0.563220153E+01  0.574455316E+01
   H  0.440073061E+02  0.419510366E+01 -0.532500300E+01
