     4
 # iter = 25000  time[fs]=25.00000
   C -0.957926041E+00 -0.226749295E-01  0.299547364E-01
   C  0.106889320E+01  0.280105130E-01 -0.357468778E-02
   H -0.530821245E+01 -0.134668808E+00  0.352222938E+00
   H  0.545934692E+01 -0.820914525E-01 -0.373651456E+00
     4
 # iter = 25500  time[fs]=25.50000
   C -0.100409445E+01 -0.241329029E-01  0.283320461E-01
   C  0.111543232E+01  0.274530422E-01 -0.427056863E-02
   H -0.564939457E+01 -0.151029581E+00  0.365370629E+00
   H  0.577491675E+01 -0.965245194E-01 -0.406533058E+00
     4
 # iter = 26000  time[fs]=26.00000
   C -0.105473805E+01 -0.265678740E-01  0.258676863E-01
   C  0.116448230E+01  0.259165105E-01 -0.608798050E-02
   H -0.599859267E+01 -0.172856448E+00  0.373291843E+00
   H  0.608768043E+01 -0.116412806E+00 -0.445023795E+00
     4
 # iter = 26500  time[fs]=26.50000
   C -0.110688847E+01 -0.273126083E-01  0.252117831E-01
   C  0.121892587E+01  0.265864970E-01 -0.582323487E-02
   H -0.633942625E+01 -0.184061051E+00  0.392047532E+00
   H  0.641346692E+01 -0.125655850E+00 -0.473007808E+00
     4
 # iter = 27000  time[fs]=27.00000
   C -0.116012341E+01 -0.262275108E-01  0.264888651E-01
   C  0.127862949E+01  0.296121233E-01 -0.331141806E-02
   H -0.667085529E+01 -0.183841906E+00  0.422416873E+00
   H  0.675283759E+01 -0.123453354E+00 -0.489671203E+00
     4
 # iter = 27500  time[fs]=27.50000
   C -0.121615131E+01 -0.252830049E-01  0.277153455E-01
   C  0.134094694E+01  0.326079002E-01 -0.924337081E-03
   H -0.700464328E+01 -0.184158844E+00  0.452421732E+00
   H  0.709360877E+01 -0.121777405E+00 -0.506973990E+00
     4
 # iter = 28000  time[fs]=28.00000
   C -0.127612631E+01 -0.258720221E-01  0.274869414E-01
   C  0.140395128E+01  0.338846038E-01 -0.339418343E-03
   H -0.734908219E+01 -0.193473141E+00  0.473585060E+00
   H  0.742712823E+01 -0.129098147E+00 -0.533375891E+00
     4
 # iter = 28500  time[fs]=28.50000
   C -0.133926225E+01 -0.274237003E-01  0.263648018E-01
   C  0.146810110E+01  0.341158611E-01 -0.872886845E-03
   H -0.770059613E+01 -0.208359639E+00  0.489317957E+00
   H  0.775666908E+01 -0.141988388E+00 -0.565440875E+00
     4
 # iter = 29000  time[fs]=29.00000
   C -0.140397350E+01 -0.285462108E-01  0.257324320E-01
   C  0.153486480E+01  0.349639000E-01 -0.853789088E-03
   H -0.805065556E+01 -0.220422211E+00  0.508004102E+00
   H  0.809050149E+01 -0.152045342E+00 -0.594758536E+00
     4
 # iter = 29500  time[fs]=29.50000
   C -0.146960208E+01 -0.287562451E-01  0.260659675E-01
   C  0.160463896E+01  0.369998668E-01  0.296528918E-03
   H -0.839624345E+01 -0.226759575E+00  0.532533982E+00
   H  0.843141091E+01 -0.156365923E+00 -0.618419009E+00
     4
 # iter = 30000  time[fs]=30.00000
   C -0.153665830E+01 -0.287215659E-01  0.266914478E-01
   C  0.167645489E+01  0.394120208E-01  0.177279390E-02
   H -0.874132124E+01 -0.231433366E+00  0.558836627E+00
   H  0.877522557E+01 -0.159016148E+00 -0.640482208E+00
     4
 # iter = 30500  time[fs]=30.50000
   C -0.160574648E+01 -0.291879423E-01  0.268577538E-01
   C  0.174926716E+01  0.412958905E-01  0.267611463E-02
   H -0.909033177E+01 -0.238974666E+00  0.582372734E+00
   H  0.911731538E+01 -0.164531796E+00 -0.665478460E+00
     4
 # iter = 31000  time[fs]=31.00000
   C -0.167674734E+01 -0.301628653E-01  0.265527806E-01
   C  0.182293357E+01  0.426356883E-01  0.299553013E-02
   H -0.944325683E+01 -0.249444414E+00  0.603073981E+00
   H  0.945753543E+01 -0.172974360E+00 -0.693464424E+00
     4
 # iter = 31500  time[fs]=31.50000
   C -0.174905596E+01 -0.311550800E-01  0.262637943E-01
   C  0.189792540E+01  0.440161470E-01  0.331995901E-02
   H -0.979706582E+01 -0.259883383E+00  0.623892934E+00
   H  0.979877316E+01 -0.181382360E+00 -0.721474326E+00
     4
 # iter = 32000  time[fs]=32.00000
   C -0.182226487E+01 -0.318593190E-01  0.262925973E-01
   C  0.197450244E+01  0.457990169E-01  0.401479215E-02
   H -0.101498597E+02 -0.268456446E+00  0.646658746E+00
   H  0.101427984E+02 -0.187919391E+00 -0.747667890E+00
     4
 # iter = 32500  time[fs]=32.50000
   C -0.189640833E+01 -0.324018479E-01  0.265099010E-01
   C  0.205241634E+01  0.478277105E-01  0.492661759E-02
   H -0.105023564E+02 -0.275938789E+00  0.670590883E+00
   H  0.104887745E+02 -0.193361695E+00 -0.772817841E+00
     4
 # iter = 33000  time[fs]=33.00000
   C -0.197166619E+01 -0.330454976E-01  0.266502309E-01
   C  0.213126412E+01  0.497819410E-01  0.573792693E-02
   H -0.108561048E+02 -0.283930848E+00  0.694084094E+00
   H  0.108350444E+02 -0.199311467E+00 -0.798523179E+00
     4
 # iter = 33500  time[fs]=33.50000
   C -0.204803943E+01 -0.338660928E-01  0.266354460E-01
   C  0.221087624E+01  0.515667657E-01  0.635621635E-02
   H -0.112115257E+02 -0.292900135E+00  0.716666493E+00
   H  0.111810902E+02 -0.206236908E+00 -0.825249202E+00
     4
 # iter = 34000  time[fs]=34.00000
   C -0.212534597E+01 -0.347491995E-01  0.265779452E-01
   C  0.229131951E+01  0.533164348E-01  0.691788374E-02
   H -0.115678917E+02 -0.302161724E+00  0.739019013E+00
   H  0.115275521E+02 -0.213452702E+00 -0.852307951E+00
     4
 # iter = 34500  time[fs]=34.50000
   C -0.220341281E+01 -0.355830494E-01  0.265877024E-01
   C  0.237266428E+01  0.551623361E-01  0.755621411E-02
   H -0.119244941E+02 -0.311046036E+00  0.761807589E+00
   H  0.118750589E+02 -0.220288863E+00 -0.879027029E+00
     4
 # iter = 35000  time[fs]=35.00000
   C -0.228218494E+01 -0.363682350E-01  0.266625375E-01
   C  0.245485171E+01  0.571010375E-01  0.826945620E-02
   H -0.122813074E+02 -0.319562844E+00  0.785019117E+00
   H  0.122235628E+02 -0.226755363E+00 -0.905414194E+00
     4
 # iter = 35500  time[fs]=35.50000
   C -0.236167389E+01 -0.371667937E-01  0.267390036E-01
   C  0.253775441E+01  0.590554824E-01  0.898204683E-02
   H -0.126386800E+02 -0.328093186E+00  0.808269508E+00
   H  0.125726477E+02 -0.233233753E+00 -0.931848960E+00
     4
 # iter = 36000  time[fs]=36.00000
   C -0.244186699E+01 -0.380120936E-01  0.267824790E-01
   C  0.262128419E+01  0.609833287E-01  0.965297526E-02
   H -0.129967891E+02 -0.336844014E+00  0.831349004E+00
   H  0.129220743E+02 -0.239931324E+00 -0.958536740E+00
     4
 # iter = 36500  time[fs]=36.50000
   C -0.252270637E+01 -0.388882183E-01  0.268077614E-01
   C  0.270541638E+01  0.629017119E-01  0.103005670E-01
   H -0.133555154E+02 -0.345723500E+00  0.854346848E+00
   H  0.132719050E+02 -0.246756295E+00 -0.985384022E+00
     4
 # iter = 37000  time[fs]=37.00000
   C -0.260412646E+01 -0.397679753E-01  0.268410423E-01
   C  0.279014362E+01  0.648415124E-01  0.109567688E-01
   H -0.137146730E+02 -0.354571137E+00  0.877421157E+00
   H  0.136222731E+02 -0.253548133E+00 -0.101222867E+01
     4
 # iter = 37500  time[fs]=37.50000
   C -0.268608487E+01 -0.406441230E-01  0.268886654E-01
   C  0.287543797E+01  0.668097809E-01  0.116295900E-01
   H -0.140741984E+02 -0.363346796E+00  0.900609846E+00
   H  0.139731937E+02 -0.260266779E+00 -0.103902914E+01
     4
 # iter = 38000  time[fs]=38.00000
   C -0.276855864E+01 -0.415259220E-01  0.269405623E-01
   C  0.296125469E+01  0.687938680E-01  0.123072450E-01
   H -0.144341291E+02 -0.372109894E+00  0.923851450E+00
   H  0.143245838E+02 -0.266971803E+00 -0.106584363E+01
     4
 # iter = 38500  time[fs]=38.50000
   C -0.285152607E+01 -0.424213036E-01  0.269880734E-01
   C  0.304755335E+01  0.707828534E-01  0.129795937E-01
   H -0.147944961E+02 -0.380911497E+00  0.947092997E+00
   H  0.146763705E+02 -0.273714406E+00 -0.109272205E+01
     4
 # iter = 39000  time[fs]=39.00000
   C -0.293495900E+01 -0.433293810E-01  0.270314270E-01
   C  0.313430659E+01  0.727765377E-01  0.136471432E-01
   H -0.151552782E+02 -0.389749034E+00  0.970335286E+00
   H  0.150285361E+02 -0.280492093E+00 -0.111966071E+01
     4
 # iter = 39500  time[fs]=39.50000
   C -0.301882753E+01 -0.442454029E-01  0.270747779E-01
   C  0.322149395E+01  0.747794733E-01  0.143150870E-01
   H -0.155164316E+02 -0.398596299E+00  0.993602868E+00
   H  0.153810881E+02 -0.287278709E+00 -0.114663234E+01
     4
 # iter = 40000  time[fs]=40.00000
   C -0.310310594E+01 -0.451668784E-01  0.271200752E-01
   C  0.330909421E+01  0.767935870E-01  0.149859357E-01
   H -0.158779273E+02 -0.407440560E+00  0.101690693E+01
   H  0.157340215E+02 -0.294061574E+00 -0.117362322E+01
     4
 # iter = 40500  time[fs]=40.50000
   C -0.318777323E+01 -0.460943020E-01  0.271663315E-01
   C  0.339708441E+01  0.788173004E-01  0.156586423E-01
   H -0.162397553E+02 -0.416286957E+00  0.104024090E+01
   H  0.160873147E+02 -0.300845893E+00 -0.120063758E+01
     4
 # iter = 41000  time[fs]=41.00000
   C -0.327281049E+01 -0.470286648E-01  0.272121062E-01
   C  0.348544263E+01  0.808485133E-01  0.163315927E-01
   H -0.166019092E+02 -0.425143466E+00  0.106359543E+01
   H  0.164409443E+02 -0.307639705E+00 -0.122768253E+01
     4
 # iter = 41500  time[fs]=41.50000
   C -0.335819916E+01 -0.479698970E-01  0.272570584E-01
   C  0.357414974E+01  0.828864700E-01  0.170044760E-01
   H -0.169643772E+02 -0.434011482E+00  0.108696788E+01
   H  0.167948945E+02 -0.314444457E+00 -0.125475867E+01
     4
 # iter = 42000  time[fs]=42.00000
   C -0.344392129E+01 -0.489172152E-01  0.273015951E-01
   C  0.366318880E+01  0.849313352E-01  0.176778647E-01
   H -0.173271437E+02 -0.442887945E+00  0.111036010E+01
   H  0.171491546E+02 -0.321257130E+00 -0.128186216E+01
     4
 # iter = 42500  time[fs]=42.50000
   C -0.352996026E+01 -0.498699693E-01  0.273460217E-01
   C  0.375254398E+01  0.869831695E-01  0.183521945E-01
   H -0.176901945E+02 -0.451770471E+00  0.113377336E+01
   H  0.175037143E+02 -0.328075380E+00 -0.130898991E+01
     4
 # iter = 43000  time[fs]=43.00000
   C -0.361630089E+01 -0.508278958E-01  0.273902844E-01
   C  0.384220012E+01  0.890416201E-01  0.190274577E-01
   H -0.180535183E+02 -0.460658901E+00  0.115720677E+01
   H  0.178585617E+02 -0.334899089E+00 -0.133614108E+01
     4
 # iter = 43500  time[fs]=43.50000
   C -0.370292918E+01 -0.517908804E-01  0.274342059E-01
   C  0.393214288E+01  0.911062009E-01  0.197034866E-01
   H -0.184171055E+02 -0.469553875E+00  0.118065869E+01
   H  0.182136849E+02 -0.341728931E+00 -0.136331566E+01
     4
 # iter = 44000  time[fs]=44.00000
   C -0.378983196E+01 -0.527587405E-01  0.274776994E-01
   C  0.402235901E+01  0.931765512E-01  0.203802142E-01
   H -0.187809463E+02 -0.478455525E+00  0.120412806E+01
   H  0.185690731E+02 -0.348565070E+00 -0.139051318E+01
     4
 # iter = 44500  time[fs]=44.50000
   C -0.387699682E+01 -0.537312183E-01  0.275207744E-01
   C  0.411283618E+01  0.952524391E-01  0.210576811E-01
   H -0.191450311E+02 -0.487363439E+00  0.122761439E+01
   H  0.189247164E+02 -0.355407124E+00 -0.141773265E+01
     4
 # iter = 45000  time[fs]=45.00000
   C -0.396441213E+01 -0.547080623E-01  0.275634523E-01
   C  0.420356288E+01  0.973336609E-01  0.217359355E-01
   H -0.195093506E+02 -0.496277165E+00  0.125111730E+01
   H  0.192806060E+02 -0.362254669E+00 -0.144497308E+01
     4
 # iter = 45500  time[fs]=45.50000
   C -0.405206701E+01 -0.556890660E-01  0.276057266E-01
   C  0.429452825E+01  0.994199914E-01  0.224149863E-01
   H -0.198738963E+02 -0.505196451E+00  0.127463625E+01
   H  0.196367328E+02 -0.369107478E+00 -0.147223370E+01
     4
 # iter = 46000  time[fs]=46.00000
   C -0.413995126E+01 -0.566740533E-01  0.276475759E-01
   C  0.438572212E+01  0.101511199E+00  0.230948194E-01
   H -0.202386601E+02 -0.514121162E+00  0.129817062E+01
   H  0.199930886E+02 -0.375965438E+00 -0.149951388E+01
     4
 # iter = 46500  time[fs]=46.50000
   C -0.422805529E+01 -0.576628560E-01  0.276889846E-01
   C  0.447713490E+01  0.103607070E+00  0.237754233E-01
   H -0.206036346E+02 -0.523051151E+00  0.132171984E+01
   H  0.203496654E+02 -0.382828426E+00 -0.152681301E+01
     4
 # iter = 47000  time[fs]=47.00000
   C -0.431637008E+01 -0.586553092E-01  0.277299466E-01
   C  0.456875758E+01  0.105707412E+00  0.244567947E-01
   H -0.209688124E+02 -0.531986234E+00  0.134528343E+01
   H  0.207064556E+02 -0.389696276E+00 -0.155413046E+01
     4
 # iter = 47500  time[fs]=47.50000
   C -0.440488711E+01 -0.596512559E-01  0.277704601E-01
   C  0.466058169E+01  0.107812047E+00  0.251389315E-01
   H -0.213341868E+02 -0.540926223E+00  0.136886093E+01
   H  0.210634521E+02 -0.396568819E+00 -0.158146563E+01
     4
 # iter = 48000  time[fs]=48.00000
   C -0.449359837E+01 -0.606505497E-01  0.278105226E-01
   C  0.475259924E+01  0.109920805E+00  0.258218285E-01
   H -0.216997510E+02 -0.549870950E+00  0.139245188E+01
   H  0.214206480E+02 -0.403445903E+00 -0.160881793E+01
     4
 # iter = 48500  time[fs]=48.50000
   C -0.458249629E+01 -0.616530546E-01  0.278501317E-01
   C  0.484480268E+01  0.112033525E+00  0.265054782E-01
   H -0.220654990E+02 -0.558820261E+00  0.141605587E+01
   H  0.217780370E+02 -0.410327392E+00 -0.163618684E+01
     4
 # iter = 49000  time[fs]=49.00000
   C -0.467157373E+01 -0.626586422E-01  0.278892859E-01
   C  0.493718487E+01  0.114150053E+00  0.271898719E-01
   H -0.224314248E+02 -0.567774013E+00  0.143967248E+01
   H  0.221356129E+02 -0.417213157E+00 -0.166357184E+01
     4
 # iter = 49500  time[fs]=49.50000
   C -0.476082392E+01 -0.636671913E-01  0.279279851E-01
   C  0.502973909E+01  0.116270247E+00  0.278750011E-01
   H -0.227975228E+02 -0.576732066E+00  0.146330131E+01
   H  0.224933697E+02 -0.424103070E+00 -0.169097245E+01
     4
 # iter = 50000  time[fs]=50.00000
   C -0.485024048E+01 -0.646785871E-01  0.279662303E-01
   C  0.512245896E+01  0.118393970E+00  0.285608572E-01
   H -0.231637876E+02 -0.585694285E+00  0.148694201E+01
   H  0.228513019E+02 -0.430997010E+00 -0.171838819E+01
     4
 # iter = 50500  time[fs]=50.50000
   C -0.493981733E+01 -0.656927211E-01  0.280040231E-01
   C  0.521533842E+01  0.120521093E+00  0.292474309E-01
   H -0.235302141E+02 -0.594660541E+00  0.151059422E+01
   H  0.232094042E+02 -0.437894861E+00 -0.174581862E+01
     4
 # iter = 51000  time[fs]=51.00000
   C -0.502954873E+01 -0.667094909E-01  0.280413658E-01
   C  0.530837176E+01  0.122651496E+00  0.299347126E-01
   H -0.238967974E+02 -0.603630713E+00  0.153425759E+01
   H  0.235676714E+02 -0.444796511E+00 -0.177326331E+01
     4
 # iter = 51500  time[fs]=51.50000
   C -0.511942923E+01 -0.677287994E-01  0.280782609E-01
   C  0.540155354E+01  0.124785061E+00  0.306226925E-01
   H -0.242635328E+02 -0.612604685E+00  0.155793180E+01
   H  0.239260986E+02 -0.451701854E+00 -0.180072185E+01
     4
 # iter = 52000  time[fs]=52.00000
   C -0.520945366E+01 -0.687505548E-01  0.281147117E-01
   C  0.549487860E+01  0.126921680E+00  0.313113606E-01
   H -0.246304158E+02 -0.621582344E+00  0.158161654E+01
   H  0.242846813E+02 -0.458610789E+00 -0.182819385E+01
     4
 # iter = 52500  time[fs]=52.50000
   C -0.529961709E+01 -0.697746698E-01  0.281507217E-01
   C  0.558834203E+01  0.129061248E+00  0.320007068E-01
   H -0.249974422E+02 -0.630563584E+00  0.160531153E+01
   H  0.246434148E+02 -0.465523216E+00 -0.185567893E+01
     4
 # iter = 53000  time[fs]=53.00000
   C -0.538991485E+01 -0.708010617E-01  0.281862949E-01
   C  0.568193918E+01  0.131203666E+00  0.326907209E-01
   H -0.253646079E+02 -0.639548304E+00  0.162901646E+01
   H  0.250022949E+02 -0.472439044E+00 -0.188317674E+01
     4
 # iter = 53500  time[fs]=53.50000
   C -0.548034248E+01 -0.718296519E-01  0.282214354E-01
   C  0.577566560E+01  0.133348840E+00  0.333813926E-01
   H -0.257319090E+02 -0.648536405E+00  0.165273106E+01
   H  0.253613176E+02 -0.479358181E+00 -0.191068692E+01
     4
 # iter = 54000  time[fs]=54.00000
   C -0.557089574E+01 -0.728603656E-01  0.282561477E-01
   C  0.586951706E+01  0.135496680E+00  0.340727119E-01
   H -0.260993416E+02 -0.657527793E+00  0.167645509E+01
   H  0.257204789E+02 -0.486280541E+00 -0.193820915E+01
     4
 # iter = 54500  time[fs]=54.50000
   C -0.566157058E+01 -0.738931317E-01  0.282904365E-01
   C  0.596348955E+01  0.137647101E+00  0.347646684E-01
   H -0.264669022E+02 -0.666522380E+00  0.170018828E+01
   H  0.260797750E+02 -0.493206041E+00 -0.196574311E+01
     4
 # iter = 55000  time[fs]=55.00000
   C -0.575236316E+01 -0.749278825E-01  0.283243064E-01
   C  0.605757920E+01  0.139800021E+00  0.354572520E-01
   H -0.268345873E+02 -0.675520078E+00  0.172393039E+01
   H  0.264392023E+02 -0.500134601E+00 -0.199328849E+01
     4
 # iter = 55500  time[fs]=55.50000
   C -0.584326978E+01 -0.759645536E-01  0.283577624E-01
   C  0.615178236E+01  0.141955362E+00  0.361504525E-01
   H -0.272023936E+02 -0.684520804E+00  0.174768119E+01
   H  0.267987574E+02 -0.507066144E+00 -0.202084500E+01
     4
 # iter = 56000  time[fs]=56.00000
   C -0.593428694E+01 -0.770030835E-01  0.283908097E-01
   C  0.624609553E+01  0.144113049E+00  0.368442601E-01
   H -0.275703179E+02 -0.693524480E+00  0.177144046E+01
   H  0.271584368E+02 -0.514000596E+00 -0.204841235E+01
     4
 # iter = 56500  time[fs]=56.50000
   C -0.602541127E+01 -0.780434134E-01  0.284234532E-01
   C  0.634051534E+01  0.146273013E+00  0.375386647E-01
   H -0.279383572E+02 -0.702531028E+00  0.179520798E+01
   H  0.275182374E+02 -0.520937885E+00 -0.207599028E+01
     4
 # iter = 57000  time[fs]=57.00000
   C -0.611663956E+01 -0.790854874E-01  0.284556981E-01
   C  0.643503861E+01  0.148435185E+00  0.382336566E-01
   H -0.283065085E+02 -0.711540375E+00  0.181898355E+01
   H  0.278781561E+02 -0.527877943E+00 -0.210357852E+01
     4
 # iter = 57500  time[fs]=57.50000
   C -0.620796874E+01 -0.801292520E-01  0.284875498E-01
   C  0.652966227E+01  0.150599500E+00  0.389292261E-01
   H -0.286747689E+02 -0.720552451E+00  0.184276697E+01
   H  0.282381899E+02 -0.534820703E+00 -0.213117681E+01
     4
 # iter = 58000  time[fs]=58.00000
   C -0.629939587E+01 -0.811746559E-01  0.285190133E-01
   C  0.662438339E+01  0.152765896E+00  0.396253636E-01
   H -0.290431357E+02 -0.729567186E+00  0.186655804E+01
   H  0.285983359E+02 -0.541766102E+00 -0.215878493E+01
     4
 # iter = 58500  time[fs]=58.50000
   C -0.639091812E+01 -0.822216504E-01  0.285500941E-01
   C  0.671919917E+01  0.154934313E+00  0.403220598E-01
   H -0.294116064E+02 -0.738584517E+00  0.189035658E+01
   H  0.289585914E+02 -0.548714078E+00 -0.218640262E+01
     4
 # iter = 59000  time[fs]=59.00000
   C -0.648253279E+01 -0.832701885E-01  0.285807972E-01
   C  0.681410690E+01  0.157104695E+00  0.410193053E-01
   H -0.297801783E+02 -0.747604378E+00  0.191416242E+01
   H  0.293189538E+02 -0.555664571E+00 -0.221402967E+01
     4
 # iter = 59500  time[fs]=59.50000
   C -0.657423729E+01 -0.843202255E-01  0.286111281E-01
   C  0.690910400E+01  0.159276986E+00  0.417170910E-01
   H -0.301488490E+02 -0.756626711E+00  0.193797538E+01
   H  0.296794204E+02 -0.562617524E+00 -0.224166585E+01
     4
 # iter = 60000  time[fs]=60.00000
   C -0.666602914E+01 -0.853717183E-01  0.286410918E-01
   C  0.700418801E+01  0.161451135E+00  0.424154079E-01
   H -0.305176161E+02 -0.765651455E+00  0.196179529E+01
   H  0.300399888E+02 -0.569572881E+00 -0.226931096E+01
     4
 # iter = 60500  time[fs]=60.50000
   C -0.675790595E+01 -0.864246259E-01  0.286706936E-01
   C  0.709935654E+01  0.163627090E+00  0.431142473E-01
   H -0.308864775E+02 -0.774678554E+00  0.198562200E+01
   H  0.304006566E+02 -0.576530589E+00 -0.229696479E+01
     4
 # iter = 61000  time[fs]=61.00000
   C -0.684986542E+01 -0.874789086E-01  0.286999387E-01
   C  0.719460731E+01  0.165804804E+00  0.438136005E-01
   H -0.312554308E+02 -0.783707953E+00  0.200945535E+01
   H  0.307614215E+02 -0.583490595E+00 -0.232462715E+01
     4
 # iter = 61500  time[fs]=61.50000
   C -0.694190535E+01 -0.885345286E-01  0.287288322E-01
   C  0.728993812E+01  0.167984230E+00  0.445134589E-01
   H -0.316244740E+02 -0.792739600E+00  0.203329519E+01
   H  0.311222813E+02 -0.590452850E+00 -0.235229784E+01
     4
 # iter = 62000  time[fs]=62.00000
   C -0.703402363E+01 -0.895914494E-01  0.287573791E-01
   C  0.738534687E+01  0.170165323E+00  0.452138142E-01
   H -0.319936050E+02 -0.801773443E+00  0.205714138E+01
   H  0.314832338E+02 -0.597417305E+00 -0.237997668E+01
     4
 # iter = 62500  time[fs]=62.50000
   C -0.712621822E+01 -0.906496361E-01  0.287855844E-01
   C  0.748083153E+01  0.172348040E+00  0.459146582E-01
   H -0.323628218E+02 -0.810809433E+00  0.208099378E+01
   H  0.318442769E+02 -0.604383914E+00 -0.240766350E+01
     4
 # iter = 63000  time[fs]=63.00000
   C -0.721848715E+01 -0.917090552E-01  0.288134532E-01
   C  0.757639014E+01  0.174532340E+00  0.466159829E-01
   H -0.327321226E+02 -0.819847523E+00  0.210485224E+01
   H  0.322054087E+02 -0.611352629E+00 -0.243535811E+01
     4
 # iter = 63500  time[fs]=63.50000
   C -0.731082854E+01 -0.927696741E-01  0.288409903E-01
   C  0.767202082E+01  0.176718183E+00  0.473177804E-01
   H -0.331015055E+02 -0.828887666E+00  0.212871665E+01
   H  0.325666273E+02 -0.618323408E+00 -0.246306036E+01
     4
 # iter = 64000  time[fs]=64.00000
   C -0.740324057E+01 -0.938314619E-01  0.288682005E-01
   C  0.776772177E+01  0.178905531E+00  0.480200428E-01
   H -0.334709686E+02 -0.837929817E+00  0.215258688E+01
   H  0.329279306E+02 -0.625296208E+00 -0.249077009E+01
     4
 # iter = 64500  time[fs]=64.50000
   C -0.749572149E+01 -0.948943887E-01  0.288950886E-01
   C  0.786349123E+01  0.181094346E+00  0.487227628E-01
   H -0.338405104E+02 -0.846973934E+00  0.217646280E+01
   H  0.332893169E+02 -0.632270986E+00 -0.251848713E+01
     4
 # iter = 65000  time[fs]=65.00000
   C -0.758826961E+01 -0.959584255E-01  0.289216594E-01
   C  0.795932753E+01  0.183284594E+00  0.494259328E-01
   H -0.342101290E+02 -0.856019975E+00  0.220034429E+01
   H  0.336507845E+02 -0.639247704E+00 -0.254621134E+01
     4
 # iter = 65500  time[fs]=65.50000
   C -0.768088330E+01 -0.970235447E-01  0.289479175E-01
   C  0.805522905E+01  0.185476239E+00  0.501295455E-01
   H -0.345798229E+02 -0.865067899E+00  0.222423124E+01
   H  0.340123316E+02 -0.646226323E+00 -0.257394257E+01
     4
 # iter = 66000  time[fs]=66.00000
   C -0.777356099E+01 -0.980897194E-01  0.289738674E-01
   C  0.815119422E+01  0.187669248E+00  0.508335938E-01
   H -0.349495904E+02 -0.874117667E+00  0.224812354E+01
   H  0.343739566E+02 -0.653206803E+00 -0.260168067E+01
     4
 # iter = 66500  time[fs]=66.50000
   C -0.786630116E+01 -0.991569240E-01  0.289995137E-01
   C  0.824722153E+01  0.189863590E+00  0.515380707E-01
   H -0.353194302E+02 -0.883169241E+00  0.227202108E+01
   H  0.347356578E+02 -0.660189110E+00 -0.262942552E+01
     4
 # iter = 67000  time[fs]=67.00000
   C -0.795910235E+01 -0.100225133E+00  0.290248608E-01
   C  0.834330952E+01  0.192059234E+00  0.522429694E-01
   H -0.356893406E+02 -0.892222584E+00  0.229592375E+01
   H  0.350974338E+02 -0.667173207E+00 -0.265717697E+01
     4
 # iter = 67500  time[fs]=67.50000
   C -0.805196315E+01 -0.101294324E+00  0.290499130E-01
   C  0.843945678E+01  0.194256149E+00  0.529482832E-01
   H -0.360593203E+02 -0.901277661E+00  0.231983146E+01
   H  0.354592830E+02 -0.674159059E+00 -0.268493489E+01
     4
 # iter = 68000  time[fs]=68.00000
   C -0.814488218E+01 -0.102364472E+00  0.290746746E-01
   C  0.853566196E+01  0.196454306E+00  0.536540055E-01
   H -0.364293678E+02 -0.910334436E+00  0.234374410E+01
   H  0.358212040E+02 -0.681146633E+00 -0.271269917E+01
     4
 # iter = 68500  time[fs]=68.50000
   C -0.823785813E+01 -0.103435555E+00  0.290991499E-01
   C  0.863192373E+01  0.198653679E+00  0.543601298E-01
   H -0.367994819E+02 -0.919392876E+00  0.236766158E+01
   H  0.361831953E+02 -0.688135897E+00 -0.274046967E+01
     4
 # iter = 69000  time[fs]=69.00000
   C -0.833088971E+01 -0.104507552E+00  0.291233430E-01
   C  0.872824084E+01  0.200854240E+00  0.550666499E-01
   H -0.371696612E+02 -0.928452949E+00  0.239158380E+01
   H  0.365452555E+02 -0.695126819E+00 -0.276824627E+01
     4
 # iter = 69500  time[fs]=69.50000
   C -0.842397570E+01 -0.105580442E+00  0.291472580E-01
   C  0.882461203E+01  0.203055962E+00  0.557735595E-01
   H -0.375399044E+02 -0.937514623E+00  0.241551068E+01
   H  0.369073834E+02 -0.702119368E+00 -0.279602887E+01
     4
 # iter = 70000  time[fs]=70.00000
   C -0.851711489E+01 -0.106654204E+00  0.291708988E-01
   C  0.892103613E+01  0.205258821E+00  0.564808527E-01
   H -0.379102104E+02 -0.946577866E+00  0.243944212E+01
   H  0.372695776E+02 -0.709113514E+00 -0.282381735E+01
     4
 # iter = 70500  time[fs]=70.50000
   C -0.861030613E+01 -0.107728820E+00  0.291942695E-01
   C  0.901751199E+01  0.207462792E+00  0.571885234E-01
   H -0.382805778E+02 -0.955642649E+00  0.246337805E+01
   H  0.376318368E+02 -0.716109228E+00 -0.285161160E+01
     4
 # iter = 71000  time[fs]=71.00000
   C -0.870354830E+01 -0.108804269E+00  0.292173740E-01
   C  0.911403848E+01  0.209667851E+00  0.578965660E-01
   H -0.386510056E+02 -0.964708944E+00  0.248731837E+01
   H  0.379941599E+02 -0.723106482E+00 -0.287941152E+01
     4
 # iter = 71500  time[fs]=71.50000
   C -0.879684032E+01 -0.109880534E+00  0.292402159E-01
   C  0.921061453E+01  0.211873975E+00  0.586049747E-01
   H -0.390214926E+02 -0.973776721E+00  0.251126301E+01
   H  0.383565456E+02 -0.730105248E+00 -0.290721699E+01
     4
 # iter = 72000  time[fs]=72.00000
   C -0.889018112E+01 -0.110957598E+00  0.292627991E-01
   C  0.930723909E+01  0.214081143E+00  0.593137439E-01
   H -0.393920378E+02 -0.982845953E+00  0.253521189E+01
   H  0.387189928E+02 -0.737105499E+00 -0.293502793E+01
     4
 # iter = 72500  time[fs]=72.50000
   C -0.898356969E+01 -0.112035443E+00  0.292851271E-01
   C  0.940391114E+01  0.216289333E+00  0.600228683E-01
   H -0.397626399E+02 -0.991916614E+00  0.255916493E+01
   H  0.390815004E+02 -0.744107209E+00 -0.296284423E+01
     4
 # iter = 73000  time[fs]=73.00000
   C -0.907700505E+01 -0.113114051E+00  0.293072038E-01
   C  0.950062971E+01  0.218498523E+00  0.607323424E-01
   H -0.401332981E+02 -0.100098868E+01  0.258312206E+01
   H  0.394440672E+02 -0.751110352E+00 -0.299066579E+01
     4
 # iter = 73500  time[fs]=73.50000
   C -0.917048623E+01 -0.114193409E+00  0.293290325E-01
   C  0.959739383E+01  0.220708694E+00  0.614421611E-01
   H -0.405040113E+02 -0.101006212E+01  0.260708321E+01
   H  0.398066922E+02 -0.758114905E+00 -0.301849253E+01
     4
 # iter = 74000  time[fs]=74.00000
   C -0.926401230E+01 -0.115273498E+00  0.293506167E-01
   C  0.969420258E+01  0.222919825E+00  0.621523191E-01
   H -0.408747784E+02 -0.101913691E+01  0.263104830E+01
   H  0.401693744E+02 -0.765120842E+00 -0.304632436E+01
     4
 # iter = 74500  time[fs]=74.50000
   C -0.935758237E+01 -0.116354306E+00  0.293719599E-01
   C  0.979105507E+01  0.225131898E+00  0.628628116E-01
   H -0.412455986E+02 -0.102821303E+01  0.265501727E+01
   H  0.405321127E+02 -0.772128141E+00 -0.307416118E+01
     4
 # iter = 75000  time[fs]=75.00000
   C -0.945119555E+01 -0.117435816E+00  0.293930654E-01
   C  0.988795042E+01  0.227344894E+00  0.635736335E-01
   H -0.416164709E+02 -0.103729046E+01  0.267899004E+01
   H  0.408949061E+02 -0.779136777E+00 -0.310200291E+01
     4
 # iter = 75500  time[fs]=75.50000
   C -0.954485100E+01 -0.118518015E+00  0.294139364E-01
   C  0.998488778E+01  0.229558796E+00  0.642847801E-01
   H -0.419873945E+02 -0.104636917E+01  0.270296657E+01
   H  0.412577538E+02 -0.786146730E+00 -0.312984947E+01
     4
 # iter = 76000  time[fs]=76.00000
   C -0.963854788E+01 -0.119600889E+00  0.294345764E-01
   C  0.100818663E+02  0.231773585E+00  0.649962466E-01
   H -0.423583683E+02 -0.105544914E+01  0.272694677E+01
   H  0.416206547E+02 -0.793157976E+00 -0.315770078E+01
     4
 # iter = 76500  time[fs]=76.50000
   C -0.973228541E+01 -0.120684424E+00  0.294549883E-01
   C  0.101788853E+02  0.233989245E+00  0.657080284E-01
   H -0.427293916E+02 -0.106453035E+01  0.275093059E+01
   H  0.419836079E+02 -0.800170496E+00 -0.318555675E+01
     4
 # iter = 77000  time[fs]=77.00000
   C -0.982606279E+01 -0.121768607E+00  0.294751754E-01
   C  0.102759439E+02  0.236205759E+00  0.664201210E-01
   H -0.431004635E+02 -0.107361278E+01  0.277491797E+01
   H  0.423466127E+02 -0.807184267E+00 -0.321341732E+01
     4
 # iter = 77500  time[fs]=77.50000
   C -0.991987927E+01 -0.122853427E+00  0.294951406E-01
   C  0.103730413E+02  0.238423111E+00  0.671325199E-01
   H -0.434715832E+02 -0.108269640E+01  0.279890885E+01
   H  0.427096680E+02 -0.814199271E+00 -0.324128239E+01
     4
 # iter = 78000  time[fs]=78.00000
   C -0.100137341E+02 -0.123938869E+00  0.295148871E-01
   C  0.104701769E+02  0.240641286E+00  0.678452208E-01
   H -0.438427498E+02 -0.109178121E+01  0.282290317E+01
   H  0.430727731E+02 -0.821215486E+00 -0.326915191E+01
     4
 # iter = 78500  time[fs]=78.50000
   C -0.101076266E+02 -0.125024923E+00  0.295344176E-01
   C  0.105673499E+02  0.242860268E+00  0.685582194E-01
   H -0.442139627E+02 -0.110086717E+01  0.284690088E+01
   H  0.434359271E+02 -0.828232894E+00 -0.329702579E+01
     4
 # iter = 79000  time[fs]=79.00000
   C -0.102015561E+02 -0.126111577E+00  0.295537353E-01
   C  0.106645596E+02  0.245080043E+00  0.692715116E-01
   H -0.445852211E+02 -0.110995427E+01  0.287090192E+01
   H  0.437991292E+02 -0.835251476E+00 -0.332490398E+01
     4
 # iter = 79500  time[fs]=79.50000
   C -0.102955218E+02 -0.127198820E+00  0.295728427E-01
   C  0.107618054E+02  0.247300596E+00  0.699850931E-01
   H -0.449565241E+02 -0.111904249E+01  0.289490623E+01
   H  0.441623787E+02 -0.842271214E+00 -0.335278639E+01
     4
 # iter = 80000  time[fs]=80.00000
   C -0.103895231E+02 -0.128286640E+00  0.295917429E-01
   C  0.108590866E+02  0.249521913E+00  0.706989601E-01
   H -0.453278711E+02 -0.112813181E+01  0.291891378E+01
   H  0.445256748E+02 -0.849292089E+00 -0.338067297E+01
