     4
 # iter = 25000  time[fs]=25.00000
   C -0.102071628E+01 -0.302088402E-01  0.468750244E-01
   C  0.994282533E+00  0.341940698E-01 -0.287113494E-01
   H -0.517426219E+01  0.748014980E+00 -0.703911242E+00
   H  0.528451086E+01 -0.692934387E+00  0.616862228E+00
     4
 # iter = 25500  time[fs]=25.50000
   C -0.107081894E+01 -0.352429921E-01  0.490489374E-01
   C  0.103677543E+01  0.364965964E-01 -0.327979510E-01
   H -0.551207094E+01  0.788707887E+00 -0.760110214E+00
   H  0.558984954E+01 -0.744618365E+00  0.647257827E+00
     4
 # iter = 26000  time[fs]=26.00000
   C -0.112456371E+01 -0.414337065E-01  0.502967145E-01
   C  0.108095499E+01  0.379920205E-01 -0.379124978E-01
   H -0.585792986E+01  0.824420074E+00 -0.822124784E+00
   H  0.589236785E+01 -0.802093542E+00  0.672582098E+00
     4
 # iter = 26500  time[fs]=26.50000
   C -0.117860722E+01 -0.456541947E-01  0.537312115E-01
   C  0.112931312E+01  0.413932750E-01 -0.413301372E-01
   H -0.619544217E+01  0.871190363E+00 -0.873819100E+00
   H  0.620789542E+01 -0.849225886E+00  0.708896201E+00
     4
 # iter = 27000  time[fs]=27.00000
   C -0.123259078E+01 -0.477444470E-01  0.594991786E-01
   C  0.118177850E+01  0.468296433E-01 -0.429095230E-01
   H -0.652356049E+01  0.929774480E+00 -0.914358666E+00
   H  0.653699385E+01 -0.885184816E+00  0.756966308E+00
     4
 # iter = 27500  time[fs]=27.50000
   C -0.128865003E+01 -0.500210660E-01  0.652714779E-01
   C  0.123614285E+01  0.522738571E-01 -0.446659911E-01
   H -0.685404822E+01  0.988169374E+00 -0.955682014E+00
   H  0.686747954E+01 -0.921914941E+00  0.804790527E+00
     4
 # iter = 28000  time[fs]=28.00000
   C -0.134825862E+01 -0.541216828E-01  0.693984706E-01
   C  0.129080630E+01  0.562900504E-01 -0.480239179E-01
   H -0.719519672E+01  0.103787743E+01 -0.100623127E+01
   H  0.719070024E+01 -0.967862855E+00  0.843872987E+00
     4
 # iter = 28500  time[fs]=28.50000
   C -0.141059941E+01 -0.593772161E-01  0.725377020E-01
   C  0.134619296E+01  0.594512228E-01 -0.523994189E-01
   H -0.754342487E+01  0.108229649E+01 -0.106255922E+01
   H  0.750992889E+01 -0.101958197E+01  0.877618729E+00
     4
 # iter = 29000  time[fs]=29.00000
   C -0.147390528E+01 -0.641540101E-01  0.763118985E-01
   C  0.140358164E+01  0.631706865E-01 -0.563689159E-01
   H -0.789019634E+01  0.112980103E+01 -0.111624777E+01
   H  0.783343549E+01 -0.106865309E+01  0.914411277E+00
     4
 # iter = 29500  time[fs]=29.50000
   C -0.153748891E+01 -0.678849075E-01  0.812780353E-01
   C  0.146333672E+01  0.679336396E-01 -0.594375351E-01
   H -0.823249039E+01  0.118327154E+01 -0.116437862E+01
   H  0.816400542E+01 -0.111215834E+01  0.957136773E+00
     4
 # iter = 30000  time[fs]=30.00000
   C -0.160202643E+01 -0.713541735E-01  0.866424256E-01
   C  0.152465893E+01  0.730491028E-01 -0.622871712E-01
   H -0.857426846E+01  0.123862545E+01 -0.121100170E+01
   H  0.849746705E+01 -0.115415018E+01  0.100171419E+01
     4
 # iter = 30500  time[fs]=30.50000
   C -0.166829611E+01 -0.754374109E-01  0.915207271E-01
   C  0.158668090E+01  0.777470625E-01 -0.656793627E-01
   H -0.891997396E+01  0.129131281E+01 -0.126063827E+01
   H  0.882919044E+01 -0.119915222E+01  0.104359436E+01
     4
 # iter = 31000  time[fs]=31.00000
   C -0.173621867E+01 -0.801430072E-01  0.958964219E-01
   C  0.164930038E+01  0.820130593E-01 -0.696207037E-01
   H -0.926958749E+01  0.134125761E+01 -0.131333858E+01
   H  0.915903076E+01 -0.124721539E+01  0.108270380E+01
     4
 # iter = 31500  time[fs]=31.50000
   C -0.180513762E+01 -0.848934960E-01  0.100339426E+00
   C  0.171293424E+01  0.863432069E-01 -0.736077938E-01
   H -0.962007617E+01  0.139140688E+01 -0.136613241E+01
   H  0.948987547E+01 -0.129536894E+01  0.112199323E+01
     4
 # iter = 32000  time[fs]=32.00000
   C -0.187462249E+01 -0.893297477E-01  0.105201887E+00
   C  0.177781748E+01  0.910439944E-01 -0.773273925E-01
   H -0.996953933E+01  0.144358446E+01 -0.141717513E+01
   H  0.982349449E+01 -0.134176812E+01  0.116328936E+01
     4
 # iter = 32500  time[fs]=32.50000
   C -0.194475641E+01 -0.935993660E-01  0.110329762E+00
   C  0.184375129E+01  0.959811627E-01 -0.809075023E-01
   H -0.103186947E+02  0.149700397E+01 -0.146723456E+01
   H  0.101590514E+02 -0.138718149E+01  0.120580729E+01
     4
 # iter = 33000  time[fs]=33.00000
   C -0.201578896E+01 -0.980102931E-01  0.115409162E+00
   C  0.191040384E+01  0.100881263E+00 -0.846157793E-01
   H -0.106690916E+02  0.155005445E+01 -0.151790491E+01
   H  0.104948893E+02 -0.143320423E+01  0.124793692E+01
     4
 # iter = 33500  time[fs]=33.50000
   C -0.208775548E+01 -0.102650819E+00  0.120346300E+00
   C  0.197764037E+01  0.105662467E+00 -0.885286924E-01
   H -0.110211506E+02  0.160225933E+01 -0.156964760E+01
   H  0.108304906E+02 -0.148029822E+01  0.128920288E+01
     4
 # iter = 34000  time[fs]=34.00000
   C -0.216047276E+01 -0.107385777E+00  0.125271253E+00
   C  0.204552587E+01  0.110437853E+00 -0.925282058E-01
   H -0.113741436E+02  0.165429577E+01 -0.162177164E+01
   H  0.111664956E+02 -0.152777246E+01  0.133028390E+01
     4
 # iter = 34500  time[fs]=34.50000
   C -0.223376500E+01 -0.112083140E+00  0.130311345E+00
   C  0.211412727E+01  0.115318102E+00 -0.964990481E-01
   H -0.117273618E+02  0.170682632E+01 -0.167360187E+01
   H  0.115035334E+02 -0.157495177E+01  0.137184396E+01
     4
 # iter = 35000  time[fs]=35.00000
   C -0.230759230E+01 -0.116742847E+00  0.135462276E+00
   C  0.218340077E+01  0.120299303E+00 -0.100440877E+00
   H -0.120807794E+02  0.175983446E+01 -0.172514328E+01
   H  0.118415563E+02 -0.162184133E+01  0.141386760E+01
     4
 # iter = 35500  time[fs]=35.50000
   C -0.238199034E+01 -0.121437022E+00  0.140647892E+00
   C  0.225324351E+01  0.125314986E+00 -0.104416221E+00
   H -0.124347450E+02  0.181293285E+01 -0.177677270E+01
   H  0.121801485E+02 -0.166881828E+01  0.145596820E+01
     4
 # iter = 36000  time[fs]=36.00000
   C -0.245696431E+01 -0.126204133E+00  0.145825983E+00
   C  0.232358530E+01  0.130328236E+00 -0.108458334E+00
   H -0.127894360E+02  0.186590877E+01 -0.182869313E+01
   H  0.125190710E+02 -0.171608588E+01  0.149793385E+01
     4
 # iter = 36500  time[fs]=36.50000
   C -0.253246428E+01 -0.131024791E+00  0.151012468E+00
   C  0.239440933E+01  0.135352754E+00 -0.112550120E+00
   H -0.131447329E+02  0.191884892E+01 -0.188080900E+01
   H  0.128583863E+02 -0.176354859E+01  0.153985200E+01
     4
 # iter = 37000  time[fs]=37.00000
   C -0.260842964E+01 -0.135866386E+00  0.156236729E+00
   C  0.246571305E+01  0.140413967E+00 -0.116662992E+00
   H -0.135004500E+02  0.197190905E+01 -0.193295627E+01
   H  0.131982281E+02 -0.181104247E+01  0.158187922E+01
     4
 # iter = 37500  time[fs]=37.50000
   C -0.268482547E+01 -0.140719767E+00  0.161504920E+00
   C  0.253747592E+01  0.145517084E+00 -0.120788804E+00
   H -0.138565237E+02  0.202512489E+01 -0.198509164E+01
   H  0.135386116E+02 -0.185852427E+01  0.162405186E+01
     4
 # iter = 38000  time[fs]=38.00000
   C -0.276163829E+01 -0.145595191E+00  0.166803991E+00
   C  0.260966274E+01  0.150650603E+00 -0.124936322E+00
   H -0.142129918E+02  0.207843288E+01 -0.203727161E+01
   H  0.138794541E+02 -0.190605058E+01  0.166630695E+01
     4
 # iter = 38500  time[fs]=38.50000
   C -0.283885495E+01 -0.150501377E+00  0.172122620E+00
   C  0.268224165E+01  0.155804530E+00 -0.129112990E+00
   H -0.145698856E+02  0.213177811E+01 -0.208954453E+01
   H  0.142206829E+02 -0.195366987E+01  0.170859009E+01
     4
 # iter = 39000  time[fs]=39.00000
   C -0.291645359E+01 -0.155436718E+00  0.177459991E+00
   C  0.275519162E+01  0.160978024E+00 -0.133317267E+00
   H -0.149271837E+02  0.218515960E+01 -0.214190530E+01
   H  0.145622806E+02 -0.200137708E+01  0.175090081E+01
     4
 # iter = 39500  time[fs]=39.50000
   C -0.299440938E+01 -0.160395088E+00  0.182819958E+00
   C  0.282849719E+01  0.166174317E+00 -0.137543697E+00
   H -0.152848427E+02  0.223860027E+01 -0.219432533E+01
   H  0.149042548E+02 -0.204914367E+01  0.179326248E+01
     4
 # iter = 40000  time[fs]=40.00000
   C -0.307270152E+01 -0.165373045E+00  0.188203847E+00
   C  0.290214207E+01  0.171394443E+00 -0.141789166E+00
   H -0.156428337E+02  0.229210978E+01 -0.224678967E+01
   H  0.152466008E+02 -0.209695472E+01  0.183568520E+01
     4
 # iter = 40500  time[fs]=40.50000
   C -0.315131399E+01 -0.170370675E+00  0.193609588E+00
   C  0.297610826E+01  0.176636487E+00 -0.146053641E+00
   H -0.160011468E+02  0.234568010E+01 -0.229930140E+01
   H  0.155892972E+02 -0.214481337E+01  0.187816132E+01
     4
 # iter = 41000  time[fs]=41.00000
   C -0.323023251E+01 -0.175388670E+00  0.199034629E+00
   C  0.305037850E+01  0.181898120E+00 -0.150337627E+00
   H -0.163597760E+02  0.239930055E+01 -0.235186657E+01
   H  0.159323209E+02 -0.219272569E+01  0.192068054E+01
     4
 # iter = 41500  time[fs]=41.50000
   C -0.330944260E+01 -0.180426499E+00  0.204477760E+00
   C  0.312493772E+01  0.187178184E+00 -0.154640569E+00
   H -0.167187094E+02  0.245296720E+01 -0.240448476E+01
   H  0.162756561E+02 -0.224069130E+01  0.196323927E+01
     4
 # iter = 42000  time[fs]=42.00000
   C -0.338892994E+01 -0.185482814E+00  0.209938693E+00
   C  0.319977261E+01  0.192476330E+00 -0.158961207E+00
   H -0.170779317E+02  0.250668076E+01 -0.245715122E+01
   H  0.166192925E+02 -0.228870547E+01  0.200583851E+01
     4
 # iter = 42500  time[fs]=42.50000
   C -0.346868121E+01 -0.190556442E+00  0.215417061E+00
   C  0.327487065E+01  0.197792147E+00 -0.163298444E+00
   H -0.174374289E+02  0.256044138E+01 -0.250986196E+01
   H  0.169632199E+02 -0.233676422E+01  0.204847873E+01
     4
 # iter = 43000  time[fs]=43.00000
   C -0.354868439E+01 -0.195646685E+00  0.220912118E+00
   C  0.335021981E+01  0.203124894E+00 -0.167651596E+00
   H -0.177971899E+02  0.261424711E+01 -0.256261531E+01
   H  0.173074267E+02 -0.238486592E+01  0.209115824E+01
     4
 # iter = 43500  time[fs]=43.50000
   C -0.362892837E+01 -0.200753038E+00  0.226423005E+00
   C  0.342580867E+01  0.208473740E+00 -0.172020155E+00
   H -0.181572053E+02  0.266809535E+01 -0.261541050E+01
   H  0.176519011E+02 -0.243300981E+01  0.213387471E+01
     4
 # iter = 44000  time[fs]=44.00000
   C -0.370940264E+01 -0.205874932E+00  0.231949008E+00
   C  0.350162662E+01  0.213837981E+00 -0.176403563E+00
   H -0.185174653E+02  0.272198409E+01 -0.266824633E+01
   H  0.179966323E+02 -0.248119468E+01  0.217662636E+01
     4
 # iter = 44500  time[fs]=44.50000
   C -0.379009724E+01 -0.211011726E+00  0.237489555E+00
   C  0.357766380E+01  0.219217042E+00 -0.180801202E+00
   H -0.188779606E+02  0.277591200E+01 -0.272112112E+01
   H  0.183416111E+02 -0.252941889E+01  0.221941208E+01
     4
 # iter = 45000  time[fs]=45.00000
   C -0.387100282E+01 -0.216162805E+00  0.243044121E+00
   C  0.365391095E+01  0.224610391E+00 -0.185212480E+00
   H -0.192386821E+02  0.282987785E+01 -0.277403323E+01
   H  0.186868282E+02 -0.257768080E+01  0.226223088E+01
     4
 # iter = 45500  time[fs]=45.50000
   C -0.395211058E+01 -0.221327618E+00  0.248612172E+00
   C  0.373035933E+01  0.230017496E+00 -0.189636866E+00
   H -0.195996214E+02  0.288388033E+01 -0.282698127E+01
   H  0.190322753E+02 -0.262597902E+01  0.230508162E+01
     4
 # iter = 46000  time[fs]=46.00000
   C -0.403341230E+01 -0.226505665E+00  0.254193188E+00
   C  0.380700070E+01  0.235437835E+00 -0.194073874E+00
   H -0.199607707E+02  0.293791809E+01 -0.287996404E+01
   H  0.193779440E+02 -0.267431237E+01  0.234796315E+01
     4
 # iter = 46500  time[fs]=46.50000
   C -0.411490020E+01 -0.231696469E+00  0.259786678E+00
   C  0.388382732E+01  0.240870915E+00 -0.198523044E+00
   H -0.203221226E+02  0.299198986E+01 -0.293298038E+01
   H  0.197238265E+02 -0.272267969E+01  0.239087437E+01
     4
 # iter = 47000  time[fs]=47.00000
   C -0.419656694E+01 -0.236899568E+00  0.265392185E+00
   C  0.396083185E+01  0.246316280E+00 -0.202983930E+00
   H -0.206836700E+02  0.304609448E+01 -0.298602915E+01
   H  0.200699154E+02 -0.277107983E+01  0.243381429E+01
     4
 # iter = 47500  time[fs]=47.50000
   C -0.427840560E+01 -0.242114522E+00  0.271009279E+00
   C  0.403800742E+01  0.251773495E+00 -0.207456109E+00
   H -0.210454062E+02  0.310023087E+01 -0.303910923E+01
   H  0.204162037E+02 -0.281951169E+01  0.247678199E+01
     4
 # iter = 48000  time[fs]=48.00000
   C -0.436040962E+01 -0.247340916E+00  0.276637551E+00
   C  0.411534748E+01  0.257242150E+00 -0.211939180E+00
   H -0.214073247E+02  0.315439799E+01 -0.309221960E+01
   H  0.207626849E+02 -0.286797424E+01  0.251977657E+01
     4
 # iter = 48500  time[fs]=48.50000
   C -0.444257282E+01 -0.252578355E+00  0.282276612E+00
   C  0.419284588E+01  0.262721849E+00 -0.216432763E+00
   H -0.217694196E+02  0.320859483E+01 -0.314535928E+01
   H  0.211093525E+02 -0.291646650E+01  0.256279717E+01
     4
 # iter = 49000  time[fs]=49.00000
   C -0.452488933E+01 -0.257826466E+00  0.287926088E+00
   C  0.427049676E+01  0.268212220E+00 -0.220936500E+00
   H -0.221316850E+02  0.326282045E+01 -0.319852732E+01
   H  0.214562005E+02 -0.296498753E+01  0.260584298E+01
     4
 # iter = 49500  time[fs]=49.50000
   C -0.460735360E+01 -0.263084891E+00  0.293585629E+00
   C  0.434829460E+01  0.273712907E+00 -0.225450046E+00
   H -0.224941155E+02  0.331707394E+01 -0.325172284E+01
   H  0.218032233E+02 -0.301353645E+01  0.264891322E+01
     4
 # iter = 50000  time[fs]=50.00000
   C -0.468996036E+01 -0.268353292E+00  0.299254898E+00
   C  0.442623414E+01  0.279223570E+00 -0.229973077E+00
   H -0.228567059E+02  0.337135444E+01 -0.330494500E+01
   H  0.221504153E+02 -0.306211241E+01  0.269200714E+01
     4
 # iter = 50500  time[fs]=50.50000
   C -0.477270460E+01 -0.273631343E+00  0.304933578E+00
   C  0.450431040E+01  0.284743888E+00 -0.234505280E+00
   H -0.232194511E+02  0.342566114E+01 -0.335819298E+01
   H  0.224977713E+02 -0.311071459E+01  0.273512404E+01
     4
 # iter = 51000  time[fs]=51.00000
   C -0.485558157E+01 -0.278918738E+00  0.310621363E+00
   C  0.458251866E+01  0.290273551E+00 -0.239046360E+00
   H -0.235823463E+02  0.347999323E+01 -0.341146600E+01
   H  0.228452863E+02 -0.315934222E+01  0.277826324E+01
     4
 # iter = 51500  time[fs]=51.50000
   C -0.493858677E+01 -0.284215180E+00  0.316317964E+00
   C  0.466085441E+01  0.295812268E+00 -0.243596035E+00
   H -0.239453872E+02  0.353434997E+01 -0.346476332E+01
   H  0.231929556E+02 -0.320799455E+01  0.282142409E+01
     4
 # iter = 52000  time[fs]=52.00000
   C -0.502171588E+01 -0.289520390E+00  0.322023103E+00
   C  0.473931336E+01  0.301359756E+00 -0.248154034E+00
   H -0.243085692E+02  0.358873065E+01 -0.351808424E+01
   H  0.235407746E+02 -0.325667087E+01  0.286460597E+01
     4
 # iter = 52500  time[fs]=52.50000
   C -0.510496483E+01 -0.294834098E+00  0.327736517E+00
   C  0.481789146E+01  0.306915749E+00 -0.252720102E+00
   H -0.246718883E+02  0.364313457E+01 -0.357142808E+01
   H  0.238887390E+02 -0.330537050E+01  0.290780829E+01
     4
 # iter = 53000  time[fs]=53.00000
   C -0.518832971E+01 -0.300156047E+00  0.333457953E+00
   C  0.489658482E+01  0.312479989E+00 -0.257293990E+00
   H -0.250353405E+02  0.369756108E+01 -0.362479419E+01
   H  0.242368446E+02 -0.335409280E+01  0.295103047E+01
     4
 # iter = 53500  time[fs]=53.50000
   C -0.527180681E+01 -0.305485993E+00  0.339187170E+00
   C  0.497538973E+01  0.318052232E+00 -0.261875466E+00
   H -0.253989220E+02  0.375200955E+01 -0.367818195E+01
   H  0.245850874E+02 -0.340283713E+01  0.299427198E+01
     4
 # iter = 54000  time[fs]=54.00000
   C -0.535539259E+01 -0.310823699E+00  0.344923937E+00
   C  0.505430267E+01  0.323632243E+00 -0.266464303E+00
   H -0.257626291E+02  0.380647937E+01 -0.373159076E+01
   H  0.249334636E+02 -0.345160290E+01  0.303753228E+01
     4
 # iter = 54500  time[fs]=54.50000
   C -0.543908365E+01 -0.316168942E+00  0.350668032E+00
   C  0.513332027E+01  0.329219797E+00 -0.271060287E+00
   H -0.261264583E+02  0.386096996E+01 -0.378502005E+01
   H  0.252819694E+02 -0.350038953E+01  0.308081087E+01
     4
 # iter = 55000  time[fs]=55.00000
   C -0.552287677E+01 -0.321521505E+00  0.356419244E+00
   C  0.521243931E+01  0.334814679E+00 -0.275663212E+00
   H -0.264904064E+02  0.391548077E+01 -0.383846927E+01
   H  0.256306015E+02 -0.354919647E+01  0.312410728E+01
     4
 # iter = 55500  time[fs]=55.50000
   C -0.560676885E+01 -0.326881181E+00  0.362177370E+00
   C  0.529165671E+01  0.340416683E+00 -0.280272879E+00
   H -0.268544700E+02  0.397001125E+01 -0.389193790E+01
   H  0.259793564E+02 -0.359802318E+01  0.316742103E+01
     4
 # iter = 56000  time[fs]=56.00000
   C -0.569075695E+01 -0.332247772E+00  0.367942217E+00
   C  0.537096954E+01  0.346025609E+00 -0.284889099E+00
   H -0.272186461E+02  0.402456091E+01 -0.394542542E+01
   H  0.263282308E+02 -0.364686916E+01  0.321075169E+01
     4
 # iter = 56500  time[fs]=56.50000
   C -0.577483823E+01 -0.337621087E+00  0.373713596E+00
   C  0.545037497E+01  0.351641270E+00 -0.289511691E+00
   H -0.275829318E+02  0.407912923E+01 -0.399893136E+01
   H  0.266772217E+02 -0.369573392E+01  0.325409881E+01
     4
 # iter = 57000  time[fs]=57.00000
   C -0.585900998E+01 -0.343000945E+00  0.379491330E+00
   C  0.552987031E+01  0.357263481E+00 -0.294140480E+00
   H -0.279473241E+02  0.413371576E+01 -0.405245523E+01
   H  0.270263260E+02 -0.374461699E+01  0.329746199E+01
     4
 # iter = 57500  time[fs]=57.50000
   C -0.594326961E+01 -0.348387169E+00  0.385275245E+00
   C  0.560945298E+01  0.362892067E+00 -0.298775298E+00
   H -0.283118203E+02  0.418832003E+01 -0.410599660E+01
   H  0.273755409E+02 -0.379351790E+01  0.334084084E+01
     4
 # iter = 58000  time[fs]=58.00000
   C -0.602761462E+01 -0.353779591E+00  0.391065178E+00
   C  0.568912050E+01  0.368526860E+00 -0.303415985E+00
   H -0.286764179E+02  0.424294159E+01 -0.415955503E+01
   H  0.277248635E+02 -0.384243622E+01  0.338423496E+01
     4
 # iter = 58500  time[fs]=58.50000
   C -0.611204265E+01 -0.359178048E+00  0.396860969E+00
   C  0.576887050E+01  0.374167698E+00 -0.308062387E+00
   H -0.290411142E+02  0.429758003E+01 -0.421313010E+01
   H  0.280742913E+02 -0.389137154E+01  0.342764399E+01
     4
 # iter = 59000  time[fs]=59.00000
   C -0.619655139E+01 -0.364582384E+00  0.402662466E+00
   C  0.584870069E+01  0.379814425E+00 -0.312714353E+00
   H -0.294059069E+02  0.435223494E+01 -0.426672140E+01
   H  0.284238215E+02 -0.394032343E+01  0.347106757E+01
     4
 # iter = 59500  time[fs]=59.50000
   C -0.628113864E+01 -0.369992449E+00  0.408469521E+00
   C  0.592860890E+01  0.385466890E+00 -0.317371741E+00
   H -0.297707935E+02  0.440690593E+01 -0.432032856E+01
   H  0.287734518E+02 -0.398929151E+01  0.351450536E+01
     4
 # iter = 60000  time[fs]=60.00000
   C -0.636580230E+01 -0.375408098E+00  0.414281993E+00
   C  0.600859301E+01  0.391124949E+00 -0.322034414E+00
   H -0.301357718E+02  0.446159260E+01 -0.437395118E+01
   H  0.291231797E+02 -0.403827541E+01  0.355795702E+01
     4
 # iter = 60500  time[fs]=60.50000
   C -0.645054033E+01 -0.380829192E+00  0.420099746E+00
   C  0.608865101E+01  0.396788463E+00 -0.326702237E+00
   H -0.305008396E+02  0.451629461E+01 -0.442758892E+01
   H  0.294730030E+02 -0.408727475E+01  0.360142225E+01
     4
 # iter = 61000  time[fs]=61.00000
   C -0.653535078E+01 -0.386255597E+00  0.425922650E+00
   C  0.616878095E+01  0.402457298E+00 -0.331375085E+00
   H -0.308659948E+02  0.457101158E+01 -0.448124142E+01
   H  0.298229193E+02 -0.413628918E+01  0.364490072E+01
     4
 # iter = 61500  time[fs]=61.50000
   C -0.662023177E+01 -0.391687182E+00  0.431750576E+00
   C  0.624898098E+01  0.408131323E+00 -0.336052832E+00
   H -0.312312353E+02  0.462574319E+01 -0.453490835E+01
   H  0.301729266E+02 -0.418531836E+01  0.368839214E+01
     4
 # iter = 62000  time[fs]=62.00000
   C -0.670518150E+01 -0.397123824E+00  0.437583404E+00
   C  0.632924928E+01  0.413810415E+00 -0.340735361E+00
   H -0.315965592E+02  0.468048910E+01 -0.458858937E+01
   H  0.305230228E+02 -0.423436196E+01  0.373189622E+01
     4
 # iter = 62500  time[fs]=62.50000
   C -0.679019823E+01 -0.402565402E+00  0.443421016E+00
   C  0.640958413E+01  0.419494452E+00 -0.345422557E+00
   H -0.319619647E+02  0.473524898E+01 -0.464228419E+01
   H  0.308732058E+02 -0.428341967E+01  0.377541268E+01
     4
 # iter = 63000  time[fs]=63.00000
   C -0.687528028E+01 -0.408011798E+00  0.449263297E+00
   C  0.648998386E+01  0.425183319E+00 -0.350114308E+00
   H -0.323274497E+02  0.479002254E+01 -0.469599248E+01
   H  0.312234737E+02 -0.433249116E+01  0.381894125E+01
     4
 # iter = 63500  time[fs]=63.50000
   C -0.696042603E+01 -0.413462902E+00  0.455110140E+00
   C  0.657044687E+01  0.430876903E+00 -0.354810510E+00
   H -0.326930126E+02  0.484480948E+01 -0.474971396E+01
   H  0.315738246E+02 -0.438157615E+01  0.386248167E+01
     4
 # iter = 64000  time[fs]=64.00000
   C -0.704563393E+01 -0.418918604E+00  0.460961437E+00
   C  0.665097160E+01  0.436575095E+00 -0.359511057E+00
   H -0.330586517E+02  0.489960949E+01 -0.480344834E+01
   H  0.319242568E+02 -0.443067435E+01  0.390603368E+01
     4
 # iter = 64500  time[fs]=64.50000
   C -0.713090247E+01 -0.424378800E+00  0.466817087E+00
   C  0.673155656E+01  0.442277791E+00 -0.364215850E+00
   H -0.334243653E+02  0.495442231E+01 -0.485719534E+01
   H  0.322747684E+02 -0.447978547E+01  0.394959705E+01
     4
 # iter = 65000  time[fs]=65.00000
   C -0.721623020E+01 -0.429843388E+00  0.472676991E+00
   C  0.681220031E+01  0.447984889E+00 -0.368924794E+00
   H -0.337901517E+02  0.500924767E+01 -0.491095471E+01
   H  0.326253577E+02 -0.452890925E+01  0.399317154E+01
     4
 # iter = 65500  time[fs]=65.50000
   C -0.730161573E+01 -0.435312269E+00  0.478541053E+00
   C  0.689290146E+01  0.453696291E+00 -0.373637794E+00
   H -0.341560095E+02  0.506408530E+01 -0.496472617E+01
   H  0.329760232E+02 -0.457804542E+01  0.403675690E+01
     4
 # iter = 66000  time[fs]=66.00000
   C -0.738705771E+01 -0.440785350E+00  0.484409181E+00
   C  0.697365865E+01  0.459411903E+00 -0.378354762E+00
   H -0.345219370E+02  0.511893494E+01 -0.501850948E+01
   H  0.333267632E+02 -0.462719373E+01  0.408035293E+01
     4
 # iter = 66500  time[fs]=66.50000
   C -0.747255482E+01 -0.446262539E+00  0.490281285E+00
   C  0.705447061E+01  0.465131632E+00 -0.383075609E+00
   H -0.348879330E+02  0.517379635E+01 -0.507230440E+01
   H  0.336775761E+02 -0.467635393E+01  0.412395940E+01
     4
 # iter = 67000  time[fs]=67.00000
   C -0.755810581E+01 -0.451743746E+00  0.496157278E+00
   C  0.713533606E+01  0.470855390E+00 -0.387800251E+00
   H -0.352539958E+02  0.522866930E+01 -0.512611069E+01
   H  0.340284605E+02 -0.472552579E+01  0.416757611E+01
     4
 # iter = 67500  time[fs]=67.50000
   C -0.764370946E+01 -0.457228885E+00  0.502037078E+00
   C  0.721625380E+01  0.476583090E+00 -0.392528607E+00
   H -0.356201243E+02  0.528355355E+01 -0.517992812E+01
   H  0.343794149E+02 -0.477470906E+01  0.421120285E+01
     4
 # iter = 68000  time[fs]=68.00000
   C -0.772936459E+01 -0.462717873E+00  0.507920603E+00
   C  0.729722266E+01  0.482314649E+00 -0.397260597E+00
   H -0.359863169E+02  0.533844887E+01 -0.523375647E+01
   H  0.347304379E+02 -0.482390353E+01  0.425483943E+01
     4
 # iter = 68500  time[fs]=68.50000
   C -0.781507005E+01 -0.468210630E+00  0.513807774E+00
   C  0.737824150E+01  0.488049987E+00 -0.401996145E+00
   H -0.363525726E+02  0.539335504E+01 -0.528759553E+01
   H  0.350815281E+02 -0.487310898E+01  0.429848565E+01
     4
 # iter = 69000  time[fs]=69.00000
   C -0.790082475E+01 -0.473707077E+00  0.519698516E+00
   C  0.745930922E+01  0.493789024E+00 -0.406735177E+00
   H -0.367188899E+02  0.544827187E+01 -0.534144508E+01
   H  0.354326842E+02 -0.492232518E+01  0.434214132E+01
     4
 # iter = 69500  time[fs]=69.50000
   C -0.798662761E+01 -0.479207138E+00  0.525592753E+00
   C  0.754042476E+01  0.499531686E+00 -0.411477620E+00
   H -0.370852676E+02  0.550319913E+01 -0.539530492E+01
   H  0.357839049E+02 -0.497155195E+01  0.438580628E+01
     4
 # iter = 70000  time[fs]=70.00000
   C -0.807247760E+01 -0.484710739E+00  0.531490415E+00
   C  0.762158709E+01  0.505277898E+00 -0.416223404E+00
   H -0.374517047E+02  0.555813663E+01 -0.544917487E+01
   H  0.361351890E+02 -0.502078908E+01  0.442948033E+01
     4
 # iter = 70500  time[fs]=70.50000
   C -0.815837372E+01 -0.490217810E+00  0.537391432E+00
   C  0.770279522E+01  0.511027588E+00 -0.420972463E+00
   H -0.378182000E+02  0.561308418E+01 -0.550305471E+01
   H  0.364865352E+02 -0.507003636E+01  0.447316331E+01
     4
 # iter = 71000  time[fs]=71.00000
   C -0.824431499E+01 -0.495728280E+00  0.543295737E+00
   C  0.778404818E+01  0.516780688E+00 -0.425724730E+00
   H -0.381847522E+02  0.566804158E+01 -0.555694428E+01
   H  0.368379423E+02 -0.511929362E+01  0.451685506E+01
     4
 # iter = 71500  time[fs]=71.50000
   C -0.833030048E+01 -0.501242082E+00  0.549203265E+00
   C  0.786534503E+01  0.522537130E+00 -0.430480141E+00
   H -0.385513605E+02  0.572300866E+01 -0.561084338E+01
   H  0.371894093E+02 -0.516856067E+01  0.456055541E+01
     4
 # iter = 72000  time[fs]=72.00000
   C -0.841632927E+01 -0.506759152E+00  0.555113951E+00
   C  0.794668486E+01  0.528296849E+00 -0.435238634E+00
   H -0.389180236E+02  0.577798523E+01 -0.566475185E+01
   H  0.375409350E+02 -0.521783733E+01  0.460426420E+01
     4
 # iter = 72500  time[fs]=72.50000
   C -0.850240048E+01 -0.512279425E+00  0.561027735E+00
   C  0.802806680E+01  0.534059781E+00 -0.440000150E+00
   H -0.392847406E+02  0.583297112E+01 -0.571866951E+01
   H  0.378925183E+02 -0.526712343E+01  0.464798129E+01
     4
 # iter = 73000  time[fs]=73.00000
   C -0.858851324E+01 -0.517802840E+00  0.566944555E+00
   C  0.810948999E+01  0.539825864E+00 -0.444764630E+00
   H -0.396515105E+02  0.588796617E+01 -0.577259619E+01
   H  0.382441581E+02 -0.531641879E+01  0.469170652E+01
     4
 # iter = 73500  time[fs]=73.50000
   C -0.867466673E+01 -0.523329337E+00  0.572864355E+00
   C  0.819095361E+01  0.545595039E+00 -0.449532017E+00
   H -0.400183323E+02  0.594297020E+01 -0.582653173E+01
   H  0.385958535E+02 -0.536572325E+01  0.473543975E+01
     4
 # iter = 74000  time[fs]=74.00000
   C -0.876086012E+01 -0.528858858E+00  0.578787077E+00
   C  0.827245684E+01  0.551367246E+00 -0.454302256E+00
   H -0.403852051E+02  0.599798306E+01 -0.588047599E+01
   H  0.389476034E+02 -0.541503666E+01  0.477918084E+01
     4
 # iter = 74500  time[fs]=74.50000
   C -0.884709265E+01 -0.534391346E+00  0.584712667E+00
   C  0.835399891E+01  0.557142431E+00 -0.459075293E+00
   H -0.407521280E+02  0.605300460E+01 -0.593442879E+01
   H  0.392994068E+02 -0.546435885E+01  0.482292965E+01
     4
 # iter = 75000  time[fs]=75.00000
   C -0.893336354E+01 -0.539926745E+00  0.590641071E+00
   C  0.843557906E+01  0.562920536E+00 -0.463851076E+00
   H -0.411191000E+02  0.610803466E+01 -0.598838999E+01
   H  0.396512628E+02 -0.551368967E+01  0.486668605E+01
     4
 # iter = 75500  time[fs]=75.50000
   C -0.901967206E+01 -0.545465004E+00  0.596572236E+00
   C  0.851719655E+01  0.568701509E+00 -0.468629555E+00
   H -0.414861204E+02  0.616307309E+01 -0.604235946E+01
   H  0.400031705E+02 -0.556302897E+01  0.491044991E+01
     4
 # iter = 76000  time[fs]=76.00000
   C -0.910601748E+01 -0.551006069E+00  0.602506114E+00
   C  0.859885067E+01  0.574485298E+00 -0.473410679E+00
   H -0.418531882E+02  0.621811975E+01 -0.609633703E+01
   H  0.403551291E+02 -0.561237662E+01  0.495422109E+01
     4
 # iter = 76500  time[fs]=76.50000
   C -0.919239910E+01 -0.556549889E+00  0.608442653E+00
   C  0.868054072E+01  0.580271851E+00 -0.478194402E+00
   H -0.422203027E+02  0.627317450E+01 -0.615032259E+01
   H  0.407071375E+02 -0.566173246E+01  0.499799949E+01
     4
 # iter = 77000  time[fs]=77.00000
   C -0.927881624E+01 -0.562096416E+00  0.614381807E+00
   C  0.876226602E+01  0.586061119E+00 -0.482980676E+00
   H -0.425874630E+02  0.632823720E+01 -0.620431598E+01
   H  0.410591949E+02 -0.571109637E+01  0.504178497E+01
     4
 # iter = 77500  time[fs]=77.50000
   C -0.936526825E+01 -0.567645600E+00  0.620323528E+00
   C  0.884402592E+01  0.591853055E+00 -0.487769456E+00
   H -0.429546683E+02  0.638330773E+01 -0.625831709E+01
   H  0.414113006E+02 -0.576046820E+01  0.508557742E+01
     4
 # iter = 78000  time[fs]=78.00000
   C -0.945175447E+01 -0.573197396E+00  0.626267771E+00
   C  0.892581978E+01  0.597647610E+00 -0.492560697E+00
   H -0.433219180E+02  0.643838594E+01 -0.631232578E+01
   H  0.417634537E+02 -0.580984782E+01  0.512937672E+01
     4
 # iter = 78500  time[fs]=78.50000
   C -0.953827428E+01 -0.578751758E+00  0.632214493E+00
   C  0.900764696E+01  0.603444740E+00 -0.497354357E+00
   H -0.436892112E+02  0.649347172E+01 -0.636634193E+01
   H  0.421156535E+02 -0.585923512E+01  0.517318277E+01
     4
 # iter = 79000  time[fs]=79.00000
   C -0.962482706E+01 -0.584308641E+00  0.638163649E+00
   C  0.908950688E+01  0.609244401E+00 -0.502150393E+00
   H -0.440565472E+02  0.654856494E+01 -0.642036542E+01
   H  0.424678991E+02 -0.590862996E+01  0.521699545E+01
     4
 # iter = 79500  time[fs]=79.50000
   C -0.971141224E+01 -0.589868003E+00  0.644115198E+00
   C  0.917139893E+01  0.615046547E+00 -0.506948764E+00
   H -0.444239253E+02  0.660366548E+01 -0.647439612E+01
   H  0.428201898E+02 -0.595803222E+01  0.526081466E+01
     4
 # iter = 80000  time[fs]=80.00000
   C -0.979802922E+01 -0.595429799E+00  0.650069099E+00
   C  0.925332255E+01  0.620851138E+00 -0.511749431E+00
   H -0.447913449E+02  0.665877322E+01 -0.652843392E+01
   H  0.431725248E+02 -0.600744179E+01  0.530464029E+01
