     4
 # iter = 25000  time[fs]=25.00000
   C -0.101736195E+01 -0.157966581E-01  0.188909530E-01
   C  0.933454081E+00 -0.413990626E-01 -0.254399446E-01
   H -0.528059786E+01 -0.106281567E+00  0.316722412E+00
   H  0.522640609E+01  0.437330285E+00  0.252952714E+00
     4
 # iter = 25500  time[fs]=25.50000
   C -0.106618178E+01 -0.175870768E-01  0.174613734E-01
   C  0.971106859E+00 -0.463020421E-01 -0.280813303E-01
   H -0.562349052E+01 -0.122428618E+00  0.327730237E+00
   H  0.553091386E+01  0.455426502E+00  0.261104409E+00
     4
 # iter = 26000  time[fs]=26.00000
   C -0.111899027E+01 -0.202535404E-01  0.151613980E-01
   C  0.101079885E+01 -0.523032386E-01 -0.318430640E-01
   H -0.597725112E+01 -0.144090429E+00  0.333665811E+00
   H  0.583560810E+01  0.468653760E+00  0.264142414E+00
     4
 # iter = 26500  time[fs]=26.50000
   C -0.117280004E+01 -0.210618733E-01  0.147218620E-01
   C  0.105531280E+01 -0.563578634E-01 -0.336748913E-01
   H -0.632516237E+01 -0.155177324E+00  0.350567179E+00
   H  0.615600218E+01  0.493046978E+00  0.278127786E+00
     4
 # iter = 27000  time[fs]=27.00000
   C -0.122723742E+01 -0.198781871E-01  0.162738188E-01
   C  0.110456018E+01 -0.583108218E-01 -0.334173051E-01
   H -0.666590501E+01 -0.154883791E+00  0.379197718E+00
   H  0.649237451E+01  0.529352222E+00  0.303829788E+00
     4
 # iter = 27500  time[fs]=27.50000
   C -0.128411499E+01 -0.187390624E-01  0.177783346E-01
   C  0.115605958E+01 -0.604192227E-01 -0.333238977E-01
   H -0.701100973E+01 -0.155164023E+00  0.407568609E+00
   H  0.683228768E+01  0.565552195E+00  0.329251792E+00
     4
 # iter = 28000  time[fs]=28.00000
   C -0.134466895E+01 -0.190861218E-01  0.177919635E-01
   C  0.120800931E+01 -0.642790377E-01 -0.349878002E-01
   H -0.736856751E+01 -0.164474582E+00  0.427193409E+00
   H  0.716687078E+01  0.593137621E+00  0.345902196E+00
     4
 # iter = 28500  time[fs]=28.50000
   C -0.140813336E+01 -0.203395685E-01  0.168931754E-01
   C  0.126087184E+01 -0.692397777E-01 -0.377562049E-01
   H -0.773482457E+01 -0.179387314E+00  0.441473620E+00
   H  0.749921290E+01  0.615500975E+00  0.357188227E+00
     4
 # iter = 29000  time[fs]=29.00000
   C -0.147291449E+01 -0.210741658E-01  0.165062592E-01
   C  0.131606620E+01 -0.737115729E-01 -0.400373752E-01
   H -0.810109485E+01 -0.191503991E+00  0.458783880E+00
   H  0.783742652E+01  0.641014383E+00  0.371494575E+00
     4
 # iter = 29500  time[fs]=29.50000
   C -0.153836844E+01 -0.207988816E-01  0.171215614E-01
   C  0.137398918E+01 -0.771432182E-01 -0.412786449E-01
   H -0.846422574E+01 -0.197921290E+00  0.482007085E+00
   H  0.818415734E+01  0.672554227E+00  0.391708738E+00
     4
 # iter = 30000  time[fs]=30.00000
   C -0.160504932E+01 -0.202065159E-01  0.180457954E-01
   C  0.143373657E+01 -0.802996424E-01 -0.422438195E-01
   H -0.882806159E+01 -0.202698726E+00  0.507066096E+00
   H  0.853510813E+01  0.706031241E+00  0.413751438E+00
     4
 # iter = 30500  time[fs]=30.50000
   C -0.167360436E+01 -0.200695941E-01  0.185061231E-01
   C  0.149432890E+01 -0.840346905E-01 -0.437858795E-01
   H -0.919694246E+01 -0.210365395E+00  0.529416325E+00
   H  0.888553732E+01  0.736889106E+00  0.433075225E+00
     4
 # iter = 31000  time[fs]=31.00000
   C -0.174393306E+01 -0.204004804E-01  0.184900196E-01
   C  0.155564358E+01 -0.883575765E-01 -0.459133699E-01
   H -0.957075844E+01 -0.220980506E+00  0.548984685E+00
   H  0.923520213E+01  0.765047924E+00  0.449607978E+00
     4
 # iter = 31500  time[fs]=31.50000
   C -0.181543243E+01 -0.206978973E-01  0.184987197E-01
   C  0.161813962E+01 -0.927068973E-01 -0.480643755E-01
   H -0.994639699E+01 -0.231583350E+00  0.568719403E+00
   H  0.958690371E+01  0.793452624E+00  0.466301477E+00
     4
 # iter = 32000  time[fs]=32.00000
   C -0.188770029E+01 -0.206515436E-01  0.188425634E-01
   C  0.168207340E+01 -0.967338363E-01 -0.498896990E-01
   H -0.103218860E+02 -0.240337503E+00  0.590445737E+00
   H  0.994233476E+01  0.823924771E+00  0.484983417E+00
     4
 # iter = 32500  time[fs]=32.50000
   C -0.196078691E+01 -0.203947958E-01  0.193882715E-01
   C  0.174721681E+01 -0.100583033E+00 -0.515337082E-01
   H -0.106978786E+02 -0.248017005E+00  0.613379687E+00
   H  0.103005891E+02  0.855674825E+00  0.504869794E+00
     4
 # iter = 33000  time[fs]=33.00000
   C -0.203489058E+01 -0.202012312E-01  0.198624079E-01
   C  0.181319359E+01 -0.104555228E+00 -0.532969575E-01
   H -0.110758657E+02 -0.256221247E+00  0.635912916E+00
   H  0.106599471E+02  0.887088598E+00  0.524351430E+00
     4
 # iter = 33500  time[fs]=33.50000
   C -0.211002398E+01 -0.201517149E-01  0.201842845E-01
   C  0.187984854E+01 -0.108737191E+00 -0.552660943E-01
   H -0.114562157E+02 -0.265416761E+00  0.657570794E+00
   H  0.110198341E+02  0.917687011E+00  0.542953762E+00
     4
 # iter = 34000  time[fs]=34.00000
   C -0.218601010E+01 -0.201310830E-01  0.204692674E-01
   C  0.194725048E+01 -0.112998019E+00 -0.573101443E-01
   H -0.118381537E+02 -0.274917713E+00  0.679031790E+00
   H  0.113808396E+02  0.948145475E+00  0.561356277E+00
     4
 # iter = 34500  time[fs]=34.50000
   C -0.226268009E+01 -0.200266836E-01  0.208302278E-01
   C  0.201547086E+01 -0.117209815E+00 -0.593011798E-01
   H -0.122209283E+02 -0.284053703E+00  0.700959601E+00
   H  0.117435461E+02  0.979124940E+00  0.580223630E+00
     4
 # iter = 35000  time[fs]=35.00000
   C -0.233998551E+01 -0.198412744E-01  0.212646369E-01
   C  0.208445776E+01 -0.121373167E+00 -0.612397902E-01
   H -0.126044749E+02 -0.292833778E+00  0.723339074E+00
   H  0.121078641E+02  0.101060719E+01  0.599540982E+00
     4
 # iter = 35500  time[fs]=35.50000
   C -0.241794550E+01 -0.196406528E-01  0.217069309E-01
   C  0.215409350E+01 -0.125558916E+00 -0.631968443E-01
   H -0.129891068E+02 -0.301638318E+00  0.745784254E+00
   H  0.124733389E+02  0.104220312E+01  0.618922323E+00
     4
 # iter = 36000  time[fs]=36.00000
   C -0.249655353E+01 -0.194609498E-01  0.221212143E-01
   C  0.222429729E+01 -0.129805093E+00 -0.652104174E-01
   H -0.133749688E+02 -0.310673667E+00  0.768083691E+00
   H  0.128396964E+02  0.107369850E+01  0.638156263E+00
     4
 # iter = 36500  time[fs]=36.50000
   C -0.257575588E+01 -0.192874343E-01  0.225224531E-01
   C  0.229504836E+01 -0.134093341E+00 -0.672622132E-01
   H -0.137619121E+02 -0.319847420E+00  0.790325092E+00
   H  0.132069668E+02  0.110517875E+01  0.657330799E+00
     4
 # iter = 37000  time[fs]=37.00000
   C -0.265549033E+01 -0.190936380E-01  0.229373480E-01
   C  0.236634212E+01 -0.138392394E+00 -0.693210388E-01
   H -0.141497237E+02 -0.328998543E+00  0.812665167E+00
   H  0.135752544E+02  0.113679848E+01  0.676602964E+00
     4
 # iter = 37500  time[fs]=37.50000
   C -0.273571799E+01 -0.188734997E-01  0.233721876E-01
   C  0.243815411E+01 -0.142693805E+00 -0.713785234E-01
   H -0.145383153E+02 -0.338086424E+00  0.835140538E+00
   H  0.139445468E+02  0.116859233E+01  0.696009579E+00
     4
 # iter = 38000  time[fs]=38.00000
   C -0.281641949E+01 -0.186378292E-01  0.238163843E-01
   C  0.251044363E+01 -0.147007994E+00 -0.734451733E-01
   H -0.149277016E+02 -0.347170036E+00  0.857688546E+00
   H  0.143147365E+02  0.120049568E+01  0.715488076E+00
     4
 # iter = 38500  time[fs]=38.50000
   C -0.289757638E+01 -0.183959694E-01  0.242608108E-01
   C  0.258317393E+01 -0.151343861E+00 -0.755299764E-01
   H -0.153178925E+02 -0.356300035E+00  0.880255119E+00
   H  0.146857275E+02  0.123245266E+01  0.734984463E+00
     4
 # iter = 39000  time[fs]=39.00000
   C -0.297916317E+01 -0.181481000E-01  0.247054963E-01
   C  0.265632046E+01 -0.155700219E+00 -0.776318367E-01
   H -0.157088473E+02 -0.365473464E+00  0.902840047E+00
   H  0.150574810E+02  0.126446142E+01  0.754498643E+00
     4
 # iter = 39500  time[fs]=39.50000
   C -0.306115230E+01 -0.178903427E-01  0.251545209E-01
   C  0.272986508E+01 -0.160071462E+00 -0.797452401E-01
   H -0.161005042E+02 -0.374663761E+00  0.925466947E+00
   H  0.154299845E+02  0.129654406E+01  0.774054352E+00
     4
 # iter = 40000  time[fs]=40.00000
   C -0.314352020E+01 -0.176210715E-01  0.256097047E-01
   C  0.280378883E+01 -0.164454572E+00 -0.818672610E-01
   H -0.164928174E+02 -0.383857858E+00  0.948146143E+00
   H  0.158032150E+02  0.132870949E+01  0.793662011E+00
     4
 # iter = 40500  time[fs]=40.50000
   C -0.322624792E+01 -0.173416648E-01  0.260698566E-01
   C  0.287807092E+01 -0.168849950E+00 -0.839983905E-01
   H -0.168857615E+02 -0.393060586E+00  0.970870247E+00
   H  0.161771340E+02  0.136094898E+01  0.813314306E+00
     4
 # iter = 41000  time[fs]=41.00000
   C -0.330931844E+01 -0.170539508E-01  0.265333278E-01
   C  0.295269148E+01 -0.173258566E+00 -0.861396906E-01
   H -0.172793156E+02 -0.402279630E+00  0.993629185E+00
   H  0.165517021E+02  0.139325121E+01  0.833001220E+00
     4
 # iter = 41500  time[fs]=41.50000
   C -0.339271488E+01 -0.167586103E-01  0.269996101E-01
   C  0.302763316E+01 -0.177680182E+00 -0.882910123E-01
   H -0.176734545E+02 -0.411516118E+00  0.101641960E+01
   H  0.169268888E+02  0.142561164E+01  0.852719454E+00
     4
 # iter = 42000  time[fs]=42.00000
   C -0.347642083E+01 -0.164555386E-01  0.274689733E-01
   C  0.310288067E+01 -0.182113750E+00 -0.904513930E-01
   H -0.180681499E+02 -0.420766731E+00  0.103924271E+01
   H  0.173026698E+02  0.145803039E+01  0.872470287E+00
     4
 # iter = 42500  time[fs]=42.50000
   C -0.356042105E+01 -0.161447215E-01  0.279415903E-01
   C  0.317841964E+01 -0.186558375E+00 -0.926200247E-01
   H -0.184633761E+02 -0.430028848E+00  0.106209918E+01
   H  0.176790220E+02  0.149050709E+01  0.892254426E+00
     4
 # iter = 43000  time[fs]=43.00000
   C -0.364470168E+01 -0.158264997E-01  0.284172721E-01
   C  0.325423629E+01 -0.191013611E+00 -0.947965443E-01
   H -0.188591108E+02 -0.439302087E+00  0.108498755E+01
   H  0.180559213E+02  0.152303930E+01  0.912070453E+00
     4
 # iter = 43500  time[fs]=43.50000
   C -0.372924992E+01 -0.155013282E-01  0.288957091E-01
   C  0.333031761E+01 -0.195479189E+00 -0.969807616E-01
   H -0.192553340E+02 -0.448586877E+00  0.110790565E+01
   H  0.184333446E+02  0.155562394E+01  0.931916241E+00
     4
 # iter = 44000  time[fs]=44.00000
   C -0.381405370E+01 -0.151695553E-01  0.293766921E-01
   C  0.340665150E+01 -0.199954763E+00 -0.991724104E-01
   H -0.196520263E+02 -0.457883151E+00  0.113085192E+01
   H  0.188112705E+02  0.158825858E+01  0.951790259E+00
     4
 # iter = 44500  time[fs]=44.50000
   C -0.389910163E+01 -0.148314189E-01  0.298601166E-01
   C  0.348322674E+01 -0.204439908E+00 -0.101371141E+00
   H -0.200491690E+02 -0.467190310E+00  0.115382543E+01
   H  0.191896793E+02  0.162094147E+01  0.971691596E+00
     4
 # iter = 45000  time[fs]=45.00000
   C -0.398438302E+01 -0.144871324E-01  0.303458965E-01
   C  0.356003280E+01 -0.208934210E+00 -0.103576612E+00
   H -0.204467445E+02 -0.476507725E+00  0.117682534E+01
   H  0.195685527E+02  0.165367100E+01  0.991619455E+00
     4
 # iter = 45500  time[fs]=45.50000
   C -0.406988786E+01 -0.141369275E-01  0.308339226E-01
   C  0.363705981E+01 -0.213437311E+00 -0.105788537E+00
   H -0.208447361E+02 -0.485834979E+00  0.119985072E+01
   H  0.199478729E+02  0.168644550E+01  0.101157291E+01
     4
 # iter = 46000  time[fs]=46.00000
   C -0.415560676E+01 -0.137810406E-01  0.313240752E-01
   C  0.371429843E+01 -0.217948891E+00 -0.108006666E+00
   H -0.212431283E+02 -0.495171778E+00  0.122290055E+01
   H  0.203276234E+02  0.171926326E+01  0.103155097E+01
     4
 # iter = 46500  time[fs]=46.50000
   C -0.424153091E+01 -0.134196925E-01  0.318162457E-01
   C  0.379173989E+01 -0.222468647E+00 -0.110230758E+00
   H -0.216419065E+02 -0.504517827E+00  0.124597390E+01
   H  0.207077882E+02  0.175212270E+01  0.105155274E+01
     4
 # iter = 47000  time[fs]=47.00000
   C -0.432765195E+01 -0.130530845E-01  0.323103398E-01
   C  0.386937596E+01 -0.226996279E+00 -0.112460580E+00
   H -0.220410566E+02 -0.513872800E+00  0.126906994E+01
   H  0.210883526E+02  0.178502236E+01  0.107157737E+01
     4
 # iter = 47500  time[fs]=47.50000
   C -0.441396206E+01 -0.126814053E-01  0.328062719E-01
   C  0.394719887E+01 -0.231531503E+00 -0.114695909E+00
   H -0.224405654E+02 -0.523236374E+00  0.129218789E+01
   H  0.214693023E+02  0.181796086E+01  0.109162412E+01
     4
 # iter = 48000  time[fs]=48.00000
   C -0.450045381E+01 -0.123048354E-01  0.333039597E-01
   C  0.402520128E+01 -0.236074050E+00 -0.116936536E+00
   H -0.228404204E+02 -0.532608255E+00  0.131532701E+01
   H  0.218506239E+02  0.185093690E+01  0.111169225E+01
     4
 # iter = 48500  time[fs]=48.50000
   C -0.458712022E+01 -0.119235476E-01  0.338033249E-01
   C  0.410337627E+01 -0.240623667E+00 -0.119182263E+00
   H -0.232406097E+02 -0.541988168E+00  0.133848656E+01
   H  0.222323048E+02  0.188394921E+01  0.113178104E+01
     4
 # iter = 49000  time[fs]=49.00000
   C -0.467395467E+01 -0.115377063E-01  0.343042936E-01
   C  0.418171729E+01 -0.245180114E+00 -0.121432906E+00
   H -0.236411220E+02 -0.551375855E+00  0.136166586E+01
   H  0.226143328E+02  0.191699660E+01  0.115188981E+01
     4
 # iter = 49500  time[fs]=49.50000
   C -0.476095090E+01 -0.111474673E-01  0.348067969E-01
   C  0.426021814E+01 -0.249743161E+00 -0.123688289E+00
   H -0.240419464E+02 -0.560771067E+00  0.138486427E+01
   H  0.229966964E+02  0.195007794E+01  0.117201793E+01
     4
 # iter = 50000  time[fs]=50.00000
   C -0.484810299E+01 -0.107529784E-01  0.353107702E-01
   C  0.433887296E+01 -0.254312589E+00 -0.125948244E+00
   H -0.244430729E+02 -0.570173564E+00  0.140808117E+01
   H  0.233793847E+02  0.198319214E+01  0.119216479E+01
     4
 # iter = 50500  time[fs]=50.50000
   C -0.493540532E+01 -0.103543808E-01  0.358161524E-01
   C  0.441767618E+01 -0.258888191E+00 -0.128212612E+00
   H -0.248444916E+02 -0.579583119E+00  0.143131597E+01
   H  0.237623872E+02  0.201633817E+01  0.121232980E+01
     4
 # iter = 51000  time[fs]=51.00000
   C -0.502285255E+01 -0.995180857E-02  0.363228860E-01
   C  0.449662254E+01 -0.263469768E+00 -0.130481243E+00
   H -0.252461933E+02 -0.588999515E+00  0.145456811E+01
   H  0.241456940E+02  0.204951506E+01  0.123251241E+01
     4
 # iter = 51500  time[fs]=51.50000
   C -0.511043964E+01 -0.954538998E-02  0.368309165E-01
   C  0.457570702E+01 -0.268057131E+00 -0.132753994E+00
   H -0.256481692E+02 -0.598422546E+00  0.147783706E+01
   H  0.245292956E+02  0.208272185E+01  0.125271209E+01
     4
 # iter = 52000  time[fs]=52.00000
   C -0.519816176E+01 -0.913524716E-02  0.373401927E-01
   C  0.465492488E+01 -0.272650099E+00 -0.135030728E+00
   H -0.260504107E+02 -0.607852014E+00  0.150112230E+01
   H  0.249131829E+02  0.211595766E+01  0.127292833E+01
     4
 # iter = 52500  time[fs]=52.50000
   C -0.528601436E+01 -0.872149673E-02  0.378506659E-01
   C  0.473427157E+01 -0.277248501E+00 -0.137311316E+00
   H -0.264529098E+02 -0.617287730E+00  0.152442334E+01
   H  0.252973473E+02  0.214922162E+01  0.129316064E+01
     4
 # iter = 53000  time[fs]=53.00000
   C -0.537399307E+01 -0.830425009E-02  0.383622903E-01
   C  0.481374281E+01 -0.281852171E+00 -0.139595634E+00
   H -0.268556588E+02 -0.626729514E+00  0.154773972E+01
   H  0.256817806E+02  0.218251292E+01  0.131340856E+01
     4
 # iter = 53500  time[fs]=53.50000
   C -0.546209375E+01 -0.788361368E-02  0.388750223E-01
   C  0.489333448E+01 -0.286460952E+00 -0.141883563E+00
   H -0.272586504E+02 -0.636177192E+00  0.157107099E+01
   H  0.260664748E+02  0.221583077E+01  0.133367164E+01
     4
 # iter = 54000  time[fs]=54.00000
   C -0.555031246E+01 -0.745968932E-02  0.393888207E-01
   C  0.497304270E+01 -0.291074693E+00 -0.144174993E+00
   H -0.276618774E+02 -0.645630597E+00  0.159441673E+01
   H  0.264514223E+02  0.224917441E+01  0.135394946E+01
     4
 # iter = 54500  time[fs]=54.50000
   C -0.563864543E+01 -0.703257443E-02  0.399036463E-01
   C  0.505286372E+01 -0.295693250E+00 -0.146469816E+00
   H -0.280653331E+02 -0.655089572E+00  0.161777652E+01
   H  0.268366160E+02  0.228254313E+01  0.137424161E+01
     4
 # iter = 55000  time[fs]=55.00000
   C -0.572708906E+01 -0.660236227E-02  0.404194622E-01
   C  0.513279400E+01 -0.300316486E+00 -0.148767928E+00
   H -0.284690111E+02 -0.664553964E+00  0.164114997E+01
   H  0.272220488E+02  0.231593623E+01  0.139454769E+01
     4
 # iter = 55500  time[fs]=55.50000
   C -0.581563994E+01 -0.616914218E-02  0.409362329E-01
   C  0.521283014E+01 -0.304944266E+00 -0.151069232E+00
   H -0.288729052E+02 -0.674023625E+00  0.166453671E+01
   H  0.276077142E+02  0.234935305E+01  0.141486734E+01
     4
 # iter = 56000  time[fs]=56.00000
   C -0.590429476E+01 -0.573299981E-02  0.414539250E-01
   C  0.529296890E+01 -0.309576465E+00 -0.153373635E+00
   H -0.292770093E+02 -0.683498417E+00  0.168793637E+01
   H  0.279936056E+02  0.238279295E+01  0.143520018E+01
     4
 # iter = 56500  time[fs]=56.50000
   C -0.599305042E+01 -0.529401727E-02  0.419725066E-01
   C  0.537320719E+01 -0.314212961E+00 -0.155681046E+00
   H -0.296813179E+02 -0.692978203E+00  0.171134861E+01
   H  0.283797171E+02  0.241625532E+01  0.145554587E+01
     4
 # iter = 57000  time[fs]=57.00000
   C -0.608190389E+01 -0.485227336E-02  0.424919472E-01
   C  0.545354204E+01 -0.318853635E+00 -0.157991379E+00
   H -0.300858253E+02 -0.702462854E+00  0.173477310E+01
   H  0.287660427E+02  0.244973958E+01  0.147590408E+01
     4
 # iter = 57500  time[fs]=57.50000
   C -0.617085232E+01 -0.440784371E-02  0.430122180E-01
   C  0.553397060E+01 -0.323498377E+00 -0.160304553E+00
   H -0.304905264E+02 -0.711952244E+00  0.175820950E+01
   H  0.291525767E+02  0.248324515E+01  0.149627449E+01
     4
 # iter = 58000  time[fs]=58.00000
   C -0.625989296E+01 -0.396080097E-02  0.435332915E-01
   C  0.561449017E+01 -0.328147079E+00 -0.162620488E+00
   H -0.308954161E+02 -0.721446255E+00  0.178165753E+01
   H  0.295393138E+02  0.251677149E+01  0.151665678E+01
     4
 # iter = 58500  time[fs]=58.50000
   C -0.634902317E+01 -0.351121495E-02  0.440551412E-01
   C  0.569509814E+01 -0.332799635E+00 -0.164939108E+00
   H -0.313004895E+02 -0.730944770E+00  0.180511687E+01
   H  0.299262486E+02  0.255031809E+01  0.153705066E+01
     4
 # iter = 59000  time[fs]=59.00000
   C -0.643824042E+01 -0.305915276E-02  0.445777421E-01
   C  0.577579201E+01 -0.337455947E+00 -0.167260341E+00
   H -0.317057419E+02 -0.740447677E+00  0.182858725E+01
   H  0.303133762E+02  0.258388443E+01  0.155745585E+01
     4
 # iter = 59500  time[fs]=59.50000
   C -0.652754230E+01 -0.260467894E-02  0.451010703E-01
   C  0.585656938E+01 -0.342115919E+00 -0.169584116E+00
   H -0.321111689E+02 -0.749954870E+00  0.185206839E+01
   H  0.307006917E+02  0.261747002E+01  0.157787206E+01
     4
 # iter = 60000  time[fs]=60.00000
   C -0.661692647E+01 -0.214785560E-02  0.456251029E-01
   C  0.593742797E+01 -0.346779457E+00 -0.171910367E+00
   H -0.325167660E+02 -0.759466245E+00  0.187556002E+01
   H  0.310881905E+02  0.265107441E+01  0.159829903E+01
     4
 # iter = 60500  time[fs]=60.50000
   C -0.670639071E+01 -0.168874255E-02  0.461498179E-01
   C  0.601836555E+01 -0.351446473E+00 -0.174239030E+00
   H -0.329225291E+02 -0.768981703E+00  0.189906190E+01
   H  0.314758680E+02  0.268469713E+01  0.161873650E+01
     4
 # iter = 61000  time[fs]=61.00000
   C -0.679593286E+01 -0.122739736E-02  0.466751944E-01
   C  0.609938002E+01 -0.356116881E+00 -0.176570041E+00
   H -0.333284542E+02 -0.778501146E+00  0.192257376E+01
   H  0.318637199E+02  0.271833776E+01  0.163918423E+01
     4
 # iter = 61500  time[fs]=61.50000
   C -0.688555087E+01 -0.763875529E-03  0.472012124E-01
   C  0.618046932E+01 -0.360790598E+00 -0.178903341E+00
   H -0.337345374E+02 -0.788024483E+00  0.194609539E+01
   H  0.322517420E+02  0.275199588E+01  0.165964197E+01
     4
 # iter = 62000  time[fs]=62.00000
   C -0.697524275E+01 -0.298230539E-03  0.477278526E-01
   C  0.626163151E+01 -0.365467544E+00 -0.181238874E+00
   H -0.341407749E+02 -0.797551623E+00  0.196962655E+01
   H  0.326399304E+02  0.278567107E+01  0.168010950E+01
     4
 # iter = 62500  time[fs]=62.50000
   C -0.706500660E+01  0.169486033E-03  0.482550968E-01
   C  0.634286469E+01 -0.370147643E+00 -0.183576582E+00
   H -0.345471631E+02 -0.807082479E+00  0.199316701E+01
   H  0.330282811E+02  0.281936294E+01  0.170058659E+01
     4
 # iter = 63000  time[fs]=63.00000
   C -0.715484057E+01  0.639224427E-03  0.487829272E-01
   C  0.642416706E+01 -0.374830820E+00 -0.185916414E+00
   H -0.349536985E+02 -0.816616969E+00  0.201671657E+01
   H  0.334167903E+02  0.285307112E+01  0.172107303E+01
     4
 # iter = 63500  time[fs]=63.50000
   C -0.724474289E+01  0.111093662E-02  0.493113269E-01
   C  0.650553685E+01 -0.379517003E+00 -0.188258317E+00
   H -0.353603778E+02 -0.826155011E+00  0.204027501E+01
   H  0.338054545E+02  0.288679525E+01  0.174156861E+01
     4
 # iter = 64000  time[fs]=64.00000
   C -0.733471187E+01  0.158457626E-02  0.498402797E-01
   C  0.658697239E+01 -0.384206123E+00 -0.190602242E+00
   H -0.357671976E+02 -0.835696526E+00  0.206384215E+01
   H  0.341942701E+02  0.292053496E+01  0.176207312E+01
     4
 # iter = 64500  time[fs]=64.50000
   C -0.742474585E+01  0.206009856E-02  0.503697701E-01
   C  0.666847206E+01 -0.388898112E+00 -0.192948141E+00
   H -0.361741548E+02 -0.845241440E+00  0.208741778E+01
   H  0.345832337E+02  0.295428991E+01  0.178258637E+01
     4
 # iter = 65000  time[fs]=65.00000
   C -0.751484326E+01  0.253746026E-02  0.508997831E-01
   C  0.675003429E+01 -0.393592907E+00 -0.195295968E+00
   H -0.365812465E+02 -0.854789678E+00  0.211100172E+01
   H  0.349723420E+02  0.298805978E+01  0.180310817E+01
     4
 # iter = 65500  time[fs]=65.50000
   C -0.760500256E+01  0.301661953E-02  0.514303043E-01
   C  0.683165756E+01 -0.398290444E+00 -0.197645678E+00
   H -0.369884695E+02 -0.864341170E+00  0.213459379E+01
   H  0.353615919E+02  0.302184424E+01  0.182363835E+01
     4
 # iter = 66000  time[fs]=66.00000
   C -0.769522228E+01  0.349753596E-02  0.519613199E-01
   C  0.691334043E+01 -0.402990664E+00 -0.199997228E+00
   H -0.373958211E+02 -0.873895847E+00  0.215819381E+01
   H  0.357509803E+02  0.305564299E+01  0.184417671E+01
     4
 # iter = 66500  time[fs]=66.50000
   C -0.778550100E+01  0.398017042E-02  0.524928165E-01
   C  0.699508149E+01 -0.407693506E+00 -0.202350576E+00
   H -0.378032985E+02 -0.883453642E+00  0.218180162E+01
   H  0.361405042E+02  0.308945571E+01  0.186472310E+01
     4
 # iter = 67000  time[fs]=67.00000
   C -0.787583735E+01  0.446448510E-02  0.530247815E-01
   C  0.707687937E+01 -0.412398915E+00 -0.204705682E+00
   H -0.382108990E+02 -0.893014491E+00  0.220541706E+01
   H  0.365301608E+02  0.312328213E+01  0.188527734E+01
     4
 # iter = 67500  time[fs]=67.50000
   C -0.796622998E+01  0.495044335E-02  0.535572024E-01
   C  0.715873277E+01 -0.417106836E+00 -0.207062507E+00
   H -0.386186201E+02 -0.902578332E+00  0.222903995E+01
   H  0.369199472E+02  0.315712195E+01  0.190583928E+01
     4
 # iter = 68000  time[fs]=68.00000
   C -0.805667763E+01  0.543800972E-02  0.540900675E-01
   C  0.724064042E+01 -0.421817215E+00 -0.209421013E+00
   H -0.390264592E+02 -0.912145103E+00  0.225267016E+01
   H  0.373098608E+02  0.319097491E+01  0.192640875E+01
     4
 # iter = 68500  time[fs]=68.50000
   C -0.814717904E+01  0.592714988E-02  0.546233653E-01
   C  0.732260110E+01 -0.426530001E+00 -0.211781165E+00
   H -0.394344138E+02 -0.921714746E+00  0.227630752E+01
   H  0.376998989E+02  0.322484073E+01  0.194698561E+01
     4
 # iter = 69000  time[fs]=69.00000
   C -0.823773302E+01  0.641783054E-02  0.551570849E-01
   C  0.740461360E+01 -0.431245144E+00 -0.214142925E+00
   H -0.398424817E+02 -0.931287203E+00  0.229995190E+01
   H  0.380900590E+02  0.325871917E+01  0.196756970E+01
     4
 # iter = 69500  time[fs]=69.50000
   C -0.832833841E+01  0.691001947E-02  0.556912155E-01
   C  0.748667680E+01 -0.435962595E+00 -0.216506262E+00
   H -0.402506605E+02 -0.940862420E+00  0.232360315E+01
   H  0.384803386E+02  0.329260996E+01  0.198816089E+01
     4
 # iter = 70000  time[fs]=70.00000
   C -0.841899407E+01  0.740368541E-02  0.562257470E-01
   C  0.756878958E+01 -0.440682308E+00 -0.218871140E+00
   H -0.406589481E+02 -0.950440342E+00  0.234726115E+01
   H  0.388707354E+02  0.332651288E+01  0.200875904E+01
     4
 # iter = 70500  time[fs]=70.50000
   C -0.850969893E+01  0.789879804E-02  0.567606694E-01
   C  0.765095086E+01 -0.445404236E+00 -0.221237528E+00
   H -0.410673422E+02 -0.960020918E+00  0.237092575E+01
   H  0.392612470E+02  0.336042767E+01  0.202936401E+01
     4
 # iter = 71000  time[fs]=71.00000
   C -0.860045193E+01  0.839532797E-02  0.572959734E-01
   C  0.773315961E+01 -0.450128336E+00 -0.223605396E+00
   H -0.414758408E+02 -0.969604096E+00  0.239459683E+01
   H  0.396518711E+02  0.339435412E+01  0.204997568E+01
     4
 # iter = 71500  time[fs]=71.50000
   C -0.869125205E+01  0.889324667E-02  0.578316496E-01
   C  0.781541481E+01 -0.454854564E+00 -0.225974712E+00
   H -0.418844418E+02 -0.979189827E+00  0.241827426E+01
   H  0.400426056E+02  0.342829200E+01  0.207059391E+01
     4
 # iter = 72000  time[fs]=72.00000
   C -0.878209829E+01  0.939252644E-02  0.583676891E-01
   C  0.789771550E+01 -0.459582879E+00 -0.228345448E+00
   H -0.422931433E+02 -0.988778064E+00  0.244195792E+01
   H  0.404334484E+02  0.346224110E+01  0.209121857E+01
     4
 # iter = 72500  time[fs]=72.50000
   C -0.887298970E+01  0.989314041E-02  0.589040835E-01
   C  0.798006071E+01 -0.464313241E+00 -0.230717575E+00
   H -0.427019433E+02 -0.998368759E+00  0.246564770E+01
   H  0.408243974E+02  0.349620120E+01  0.211184957E+01
     4
 # iter = 73000  time[fs]=73.00000
   C -0.896392536E+01  0.103950625E-01  0.594408243E-01
   C  0.806244954E+01 -0.469045610E+00 -0.233091065E+00
   H -0.431108400E+02 -0.100796187E+01  0.248934348E+01
   H  0.412154505E+02  0.353017210E+01  0.213248676E+01
     4
 # iter = 73500  time[fs]=73.50000
   C -0.905490434E+01  0.108982673E-01  0.599779035E-01
   C  0.814488109E+01 -0.473779947E+00 -0.235465892E+00
   H -0.435198315E+02 -0.101755734E+01  0.251304515E+01
   H  0.416066059E+02  0.356415360E+01  0.215313005E+01
     4
 # iter = 74000  time[fs]=74.00000
   C -0.914592579E+01  0.114027302E-01  0.605153135E-01
   C  0.822735450E+01 -0.478516217E+00 -0.237842030E+00
   H -0.439289162E+02 -0.102715515E+01  0.253675260E+01
   H  0.419978616E+02  0.359814551E+01  0.217377931E+01
     4
 # iter = 74500  time[fs]=74.50000
   C -0.923698885E+01  0.119084273E-01  0.610530466E-01
   C  0.830986892E+01 -0.483254381E+00 -0.240219453E+00
   H -0.443380923E+02 -0.103675524E+01  0.256046572E+01
   H  0.423892158E+02  0.363214765E+01  0.219443445E+01
     4
 # iter = 75000  time[fs]=75.00000
   C -0.932809270E+01  0.124153352E-01  0.615910956E-01
   C  0.839242356E+01 -0.487994406E+00 -0.242598138E+00
   H -0.447473581E+02 -0.104635757E+01  0.258418442E+01
   H  0.427806666E+02  0.366615982E+01  0.221509536E+01
     4
 # iter = 75500  time[fs]=75.50000
   C -0.941923653E+01  0.129234314E-01  0.621294536E-01
   C  0.847501761E+01 -0.492736257E+00 -0.244978059E+00
   H -0.451567120E+02 -0.105596210E+01  0.260790859E+01
   H  0.431722124E+02  0.370018184E+01  0.223576193E+01
     4
 # iter = 76000  time[fs]=76.00000
   C -0.951041957E+01  0.134326939E-01  0.626681135E-01
   C  0.855765031E+01 -0.497479901E+00 -0.247359195E+00
   H -0.455661524E+02 -0.106556881E+01  0.263163813E+01
   H  0.435638515E+02  0.373421356E+01  0.225643407E+01
     4
 # iter = 76500  time[fs]=76.50000
   C -0.960164106E+01  0.139431012E-01  0.632070689E-01
   C  0.864032091E+01 -0.502225306E+00 -0.249741521E+00
   H -0.459756778E+02 -0.107517764E+01  0.265537296E+01
   H  0.439555822E+02  0.376825479E+01  0.227711168E+01
     4
 # iter = 77000  time[fs]=77.00000
   C -0.969290026E+01  0.144546325E-01  0.637463134E-01
   C  0.872302869E+01 -0.506972439E+00 -0.252125018E+00
   H -0.463852867E+02 -0.108478856E+01  0.267911298E+01
   H  0.443474028E+02  0.380230537E+01  0.229779467E+01
     4
 # iter = 77500  time[fs]=77.50000
   C -0.978419647E+01  0.149672674E-01  0.642858407E-01
   C  0.880577293E+01 -0.511721271E+00 -0.254509662E+00
   H -0.467949777E+02 -0.109440154E+01  0.270285809E+01
   H  0.447393118E+02  0.383636514E+01  0.231848294E+01
     4
 # iter = 78000  time[fs]=78.00000
   C -0.987552899E+01  0.154809864E-01  0.648256449E-01
   C  0.888855297E+01 -0.516471772E+00 -0.256895434E+00
   H -0.472047492E+02 -0.110401654E+01  0.272660822E+01
   H  0.451313077E+02  0.387043395E+01  0.233917641E+01
     4
 # iter = 78500  time[fs]=78.50000
   C -0.996689715E+01  0.159957701E-01  0.653657201E-01
   C  0.897136813E+01 -0.521223911E+00 -0.259282314E+00
   H -0.476146000E+02 -0.111363353E+01  0.275036328E+01
   H  0.455233890E+02  0.390451164E+01  0.235987498E+01
     4
 # iter = 79000  time[fs]=79.00000
   C -0.100583003E+02  0.165115998E-01  0.659060607E-01
   C  0.905421776E+01 -0.525977662E+00 -0.261670281E+00
   H -0.480245287E+02 -0.112325247E+01  0.277412318E+01
   H  0.459155543E+02  0.393859807E+01  0.238057858E+01
     4
 # iter = 79500  time[fs]=79.50000
   C -0.101497377E+02  0.170284573E-01  0.664466611E-01
   C  0.913710123E+01 -0.530732996E+00 -0.264059316E+00
   H -0.484345340E+02 -0.113287333E+01  0.279788784E+01
   H  0.463078020E+02  0.397269309E+01  0.240128711E+01
     4
 # iter = 80000  time[fs]=80.00000
   C -0.102412089E+02  0.175463249E-01  0.669875161E-01
   C  0.922001793E+01 -0.535489887E+00 -0.266449401E+00
   H -0.488446145E+02 -0.114249609E+01  0.282165718E+01
   H  0.467001309E+02  0.400679655E+01  0.242200050E+01
