     4
 # iter = 25000  time[fs]=25.00000
   C -0.102000692E+01 -0.362544838E-01  0.265154679E-01
   C  0.978867515E+00 -0.373680664E-01  0.338691086E-01
   H -0.524884580E+01  0.513143650E+00  0.481607458E+00
   H  0.529554213E+01  0.857243494E-01 -0.527861156E+00
     4
 # iter = 25500  time[fs]=25.50000
   C -0.106931643E+01 -0.408411712E-01  0.251886809E-01
   C  0.101933968E+01 -0.404279796E-01  0.350931426E-01
   H -0.559266354E+01  0.536415954E+00  0.504812714E+00
   H  0.560560184E+01  0.827908852E-01 -0.570582145E+00
     4
 # iter = 26000  time[fs]=26.00000
   C -0.112240130E+01 -0.462927467E-01  0.230012108E-01
   C  0.106158178E+01 -0.446441199E-01  0.352312203E-01
   H -0.594712611E+01  0.554852002E+00  0.523100071E+00
   H  0.591599960E+01  0.745752237E-01 -0.619397398E+00
     4
 # iter = 26500  time[fs]=26.50000
   C -0.117654444E+01 -0.501338262E-01  0.224267774E-01
   C  0.110872512E+01 -0.466362270E-01  0.376572277E-01
   H -0.629554290E+01  0.584463644E+00  0.552493202E+00
   H  0.624222069E+01  0.771543114E-01 -0.658145326E+00
     4
 # iter = 27000  time[fs]=27.00000
   C -0.123139372E+01 -0.522405052E-01  0.235879919E-01
   C  0.116070956E+01 -0.462332819E-01  0.425364593E-01
   H -0.663661502E+01  0.625990900E+00  0.593741457E+00
   H  0.658452547E+01  0.913121626E-01 -0.685967035E+00
     4
 # iter = 27500  time[fs]=27.50000
   C -0.128857520E+01 -0.544516377E-01  0.246450026E-01
   C  0.121481454E+01 -0.459431586E-01  0.473558739E-01
   H -0.698188895E+01  0.667423756E+00  0.634842274E+00
   H  0.693046597E+01  0.105065799E+00 -0.714778975E+00
     4
 # iter = 28000  time[fs]=28.00000
   C -0.134919564E+01 -0.580679473E-01  0.242963311E-01
   C  0.126907201E+01 -0.475399984E-01  0.503368019E-01
   H -0.733946945E+01  0.700257905E+00  0.667297552E+00
   H  0.727116221E+01  0.109935393E+00 -0.753003782E+00
     4
 # iter = 28500  time[fs]=28.50000
   C -0.141255336E+01 -0.625621156E-01  0.230687358E-01
   C  0.132402633E+01 -0.503038025E-01  0.521953386E-01
   H -0.770561550E+01  0.727880768E+00  0.694500050E+00
   H  0.760969303E+01  0.109337889E+00 -0.797176289E+00
     4
 # iter = 29000  time[fs]=29.00000
   C -0.147719961E+01 -0.666422951E-01  0.222536549E-01
   C  0.138128173E+01 -0.524716635E-01  0.546909710E-01
   H -0.807165260E+01  0.758655464E+00  0.724817460E+00
   H  0.795416092E+01  0.111666229E+00 -0.838862166E+00
     4
 # iter = 29500  time[fs]=29.50000
   C -0.154254517E+01 -0.698614635E-01  0.222978154E-01
   C  0.144130450E+01 -0.534340510E-01  0.584301456E-01
   H -0.843443832E+01  0.795454345E+00  0.761126000E+00
   H  0.830720371E+01  0.119815353E+00 -0.875129795E+00
     4
 # iter = 30000  time[fs]=30.00000
   C -0.160908466E+01 -0.728431923E-01  0.225774391E-01
   C  0.150311350E+01 -0.540428451E-01  0.625581730E-01
   H -0.879782602E+01  0.834190263E+00  0.799341781E+00
   H  0.866451857E+01  0.129712828E+00 -0.910018673E+00
     4
 # iter = 30500  time[fs]=30.50000
   C -0.167739746E+01 -0.762832810E-01  0.223965885E-01
   C  0.156564170E+01 -0.552486076E-01  0.661219528E-01
   H -0.916616366E+01  0.870309720E+00  0.834914111E+00
   H  0.902135941E+01  0.136817353E+00 -0.948040784E+00
     4
 # iter = 31000  time[fs]=31.00000
   C -0.174738753E+01 -0.801903084E-01  0.217466009E-01
   C  0.162877161E+01 -0.570639515E-01  0.691065971E-01
   H -0.953934826E+01  0.903732232E+00  0.867764958E+00
   H  0.937747908E+01  0.141062203E+00 -0.989237009E+00
     4
 # iter = 31500  time[fs]=31.50000
   C -0.181850506E+01 -0.841085416E-01  0.210831668E-01
   C  0.169302983E+01 -0.588677888E-01  0.721311499E-01
   H -0.991427338E+01  0.937399828E+00  0.900838517E+00
   H  0.973567451E+01  0.145403908E+00 -0.103062794E+01
     4
 # iter = 32000  time[fs]=32.00000
   C -0.189038223E+01 -0.877550648E-01  0.206891905E-01
   C  0.175871628E+01 -0.602749852E-01  0.755788890E-01
   H -0.102889725E+02  0.973132147E+00  0.935956322E+00
   H  0.100976347E+02  0.151674444E+00 -0.107036108E+01
     4
 # iter = 32500  time[fs]=32.50000
   C -0.196306057E+01 -0.912482767E-01  0.204462842E-01
   C  0.182559123E+01 -0.614482308E-01  0.792854269E-01
   H -0.106641040E+02  0.101013986E+01  0.972330713E+00
   H  0.104624506E+02  0.159093730E+00 -0.110919794E+01
     4
 # iter = 33000  time[fs]=33.00000
   C -0.203671581E+01 -0.948334876E-01  0.201091661E-01
   C  0.189324912E+01 -0.627234361E-01  0.829133006E-01
   H -0.110411634E+02  0.104680975E+01  0.100834994E+01
   H  0.108283998E+02  0.166056167E+00 -0.114872730E+01
     4
 # iter = 33500  time[fs]=33.50000
   C -0.211135612E+01 -0.985818942E-01  0.196066804E-01
   C  0.196152864E+01 -0.641988003E-01  0.863628934E-01
   H -0.114205235E+02  0.108266290E+01  0.104353639E+01
   H  0.111949056E+02  0.172090432E+00 -0.118940527E+01
     4
 # iter = 34000  time[fs]=34.00000
   C -0.218681843E+01 -0.102387572E+00  0.190448010E-01
   C  0.203051618E+01 -0.657307062E-01  0.897765268E-01
   H -0.118014129E+02  0.111837403E+01  0.107856597E+01
   H  0.115625551E+02  0.177878945E+00 -0.123053567E+01
     4
 # iter = 34500  time[fs]=34.50000
   C -0.226294728E+01 -0.106146986E+00  0.185271202E-01
   C  0.210030010E+01 -0.671787687E-01  0.932933973E-01
   H -0.121830838E+02  0.115460345E+01  0.111410004E+01
   H  0.119319292E+02  0.184089035E+00 -0.127143862E+01
     4
 # iter = 35000  time[fs]=35.00000
   C -0.233969631E+01 -0.109861061E+00  0.180527730E-01
   C  0.217083089E+01 -0.685451715E-01  0.969102272E-01
   H -0.125654748E+02  0.119133286E+01  0.115012124E+01
   H  0.123029363E+02  0.190708324E+00 -0.131211505E+01
     4
 # iter = 35500  time[fs]=35.50000
   C -0.241708040E+01 -0.113587826E+00  0.175637926E-01
   C  0.224198525E+01 -0.699100127E-01  0.100545909E+00
   H -0.129489021E+02  0.122817337E+01  0.118624155E+01
   H  0.126751205E+02  0.197353067E+00 -0.135293820E+01
     4
 # iter = 36000  time[fs]=36.00000
   C -0.249509145E+01 -0.117358585E+00  0.170289386E-01
   C  0.231368019E+01 -0.713168629E-01  0.104155941E+00
   H -0.133335133E+02  0.126491089E+01  0.122224764E+01
   H  0.130482062E+02  0.203813957E+00 -0.139410774E+01
     4
 # iter = 36500  time[fs]=36.50000
   C -0.257367879E+01 -0.121158746E+00  0.164628680E-01
   C  0.238589874E+01 -0.727465951E-01  0.107758590E+00
   H -0.137191619E+02  0.130163070E+01  0.125822551E+01
   H  0.134222225E+02  0.210180909E+00 -0.143552488E+01
     4
 # iter = 37000  time[fs]=37.00000
   C -0.265278423E+01 -0.124963186E+00  0.158907659E-01
   C  0.245864136E+01 -0.741656697E-01  0.111386596E+00
   H -0.141056374E+02  0.133848734E+01  0.129433032E+01
   H  0.137972724E+02  0.216612728E+00 -0.147702267E+01
     4
 # iter = 37500  time[fs]=37.50000
   C -0.273237082E+01 -0.128765314E+00  0.153192872E-01
   C  0.253188594E+01 -0.755658054E-01  0.115047503E+00
   H -0.144928534E+02  0.137551538E+01  0.133059724E+01
   H  0.141733427E+02  0.223147876E+00 -0.151855510E+01
     4
 # iter = 38000  time[fs]=38.00000
   C -0.281241936E+01 -0.132573863E+00  0.147397587E-01
   C  0.260559195E+01 -0.769596066E-01  0.118728019E+00
   H -0.148808267E+02  0.141265028E+01  0.136696226E+01
   H  0.145503246E+02  0.229725308E+00 -0.156017624E+01
     4
 # iter = 38500  time[fs]=38.50000
   C -0.289291159E+01 -0.136396307E+00  0.141447653E-01
   C  0.267972280E+01 -0.783579224E-01  0.122416654E+00
   H -0.152695689E+02  0.144983621E+01  0.140337004E+01
   H  0.149281216E+02  0.236292449E+00 -0.160193218E+01
     4
 # iter = 39000  time[fs]=39.00000
   C -0.297382301E+01 -0.140231900E+00  0.135351126E-01
   C  0.275425515E+01 -0.797603416E-01  0.126113224E+00
   H -0.156590411E+02  0.148707135E+01  0.143981922E+01
   H  0.153066939E+02  0.242850519E+00 -0.164381570E+01
     4
 # iter = 39500  time[fs]=39.50000
   C -0.305512730E+01 -0.144076280E+00  0.129152161E-01
   C  0.282917242E+01 -0.811614900E-01  0.129822548E+00
   H -0.160491831E+02  0.152437783E+01  0.147633234E+01
   H  0.156860285E+02  0.249424482E+00 -0.168579624E+01
     4
 # iter = 40000  time[fs]=40.00000
   C -0.313680188E+01 -0.147927177E+00  0.122873995E-01
   C  0.290445683E+01 -0.825588153E-01  0.133546656E+00
   H -0.164399506E+02  0.156176458E+01  0.151291872E+01
   H  0.160661016E+02  0.256025908E+00 -0.172785702E+01
     4
 # iter = 40500  time[fs]=40.50000
   C -0.321882839E+01 -0.151785087E+00  0.116512193E-01
   C  0.298008837E+01 -0.839535115E-01  0.137283871E+00
   H -0.168313193E+02  0.159922291E+01  0.154957002E+01
   H  0.164468739E+02  0.262648551E+00 -0.176999943E+01
     4
 # iter = 41000  time[fs]=41.00000
   C -0.330119028E+01 -0.155650956E+00  0.110057771E-01
   C  0.305604775E+01 -0.853473628E-01  0.141031950E+00
   H -0.172232700E+02  0.163674154E+01  0.158627530E+01
   H  0.168283058E+02  0.269283404E+00 -0.181222792E+01
     4
 # iter = 41500  time[fs]=41.50000
   C -0.338387125E+01 -0.159524738E+00  0.103511681E-01
   C  0.313231831E+01 -0.867407686E-01  0.144790069E+00
   H -0.176157784E+02  0.167431598E+01  0.162303036E+01
   H  0.172103661E+02  0.275928106E+00 -0.185454061E+01
     4
 # iter = 42000  time[fs]=42.00000
   C -0.346685542E+01 -0.163405713E+00  0.968815602E-02
   C  0.320888546E+01 -0.881331881E-01  0.148558366E+00
   H -0.180088174E+02  0.171194640E+01  0.165983567E+01
   H  0.175930300E+02  0.282584821E+00 -0.189693133E+01
     4
 # iter = 42500  time[fs]=42.50000
   C -0.355012807E+01 -0.167293281E+00  0.901738494E-02
   C  0.328573549E+01 -0.895242184E-01  0.152336866E+00
   H -0.184023624E+02  0.174963246E+01  0.169669115E+01
   H  0.179762738E+02  0.289255090E+00 -0.193939482E+01
     4
 # iter = 43000  time[fs]=43.00000
   C -0.363367579E+01 -0.171187195E+00  0.833914207E-02
   C  0.336285516E+01 -0.909139196E-01  0.156125155E+00
   H -0.187963921E+02  0.178737178E+01  0.173359467E+01
   H  0.183600734E+02  0.295938275E+00 -0.198192818E+01
     4
 # iter = 43500  time[fs]=43.50000
   C -0.371748612E+01 -0.175087346E+00  0.765357818E-02
   C  0.344023194E+01 -0.923025152E-01  0.159922675E+00
   H -0.191908875E+02  0.182516132E+01  0.177054343E+01
   H  0.187444049E+02  0.302632987E+00 -0.202452950E+01
     4
 # iter = 44000  time[fs]=44.00000
   C -0.380154737E+01 -0.178993554E+00  0.696090944E-02
   C  0.351785418E+01 -0.936901179E-01  0.163728996E+00
   H -0.195858300E+02  0.186299870E+01  0.180753524E+01
   H  0.191292467E+02  0.309338392E+00 -0.206719650E+01
     4
 # iter = 44500  time[fs]=44.50000
   C -0.388584847E+01 -0.182905568E+00  0.626142324E-02
   C  0.359571110E+01 -0.950767230E-01  0.167543827E+00
   H -0.199812018E+02  0.190088221E+01  0.184456862E+01
   H  0.195145789E+02  0.316054235E+00 -0.210992649E+01
     4
 # iter = 45000  time[fs]=45.00000
   C -0.397037904E+01 -0.186823140E+00  0.555540180E-02
   C  0.367379258E+01 -0.964623135E-01  0.171366901E+00
   H -0.203769859E+02  0.193881028E+01  0.188164219E+01
   H  0.199003825E+02  0.322780342E+00 -0.215271687E+01
     4
 # iter = 45500  time[fs]=45.50000
   C -0.405512935E+01 -0.190746064E+00  0.484308598E-02
   C  0.375208909E+01 -0.978469112E-01  0.175197931E+00
   H -0.207731667E+02  0.197678130E+01  0.191875450E+01
   H  0.202866398E+02  0.329516371E+00 -0.219556536E+01
     4
 # iter = 46000  time[fs]=46.00000
   C -0.414009027E+01 -0.194674157E+00  0.412468872E-02
   C  0.383059165E+01 -0.992305588E-01  0.179036622E+00
   H -0.211697291E+02  0.201479360E+01  0.195590406E+01
   H  0.206733337E+02  0.336261896E+00 -0.223846990E+01
     4
 # iter = 46500  time[fs]=46.50000
   C -0.422525320E+01 -0.198607244E+00  0.340041517E-02
   C  0.390929180E+01 -0.100613294E+00  0.182882697E+00
   H -0.215666593E+02  0.205284563E+01  0.199308948E+01
   H  0.210604482E+02  0.343016533E+00 -0.228142854E+01
     4
 # iter = 47000  time[fs]=47.00000
   C -0.431061004E+01 -0.202545152E+00  0.267046742E-02
   C  0.398818160E+01 -0.101995143E+00  0.186735903E+00
   H -0.219639438E+02  0.209093599E+01  0.203030950E+01
   H  0.214479681E+02  0.349779961E+00 -0.232443937E+01
     4
 # iter = 47500  time[fs]=47.50000
   C -0.439615312E+01 -0.206487714E+00  0.193503987E-02
   C  0.406725353E+01 -0.103376129E+00  0.190596001E+00
   H -0.223615701E+02  0.212906333E+01  0.206756294E+01
   H  0.218358791E+02  0.356551891E+00 -0.236750055E+01
     4
 # iter = 48000  time[fs]=48.00000
   C -0.448187524E+01 -0.210434774E+00  0.119431616E-02
   C  0.414650052E+01 -0.104756276E+00  0.194462763E+00
   H -0.227595261E+02  0.216722640E+01  0.210484864E+01
   H  0.222241676E+02  0.363332038E+00 -0.241061039E+01
     4
 # iter = 48500  time[fs]=48.50000
   C -0.456776955E+01 -0.214386182E+00  0.448469945E-03
   C  0.422591588E+01 -0.106135610E+00  0.198335968E+00
   H -0.231578006E+02  0.220542396E+01  0.214216552E+01
   H  0.226128205E+02  0.370120121E+00 -0.245376724E+01
     4
 # iter = 49000  time[fs]=49.00000
   C -0.465382962E+01 -0.218341798E+00 -0.302333291E-03
   C  0.430549328E+01 -0.107514155E+00  0.202215407E+00
   H -0.235563827E+02  0.224365487E+01  0.217951255E+01
   H  0.230018256E+02  0.376915876E+00 -0.249696956E+01
     4
 # iter = 49500  time[fs]=49.50000
   C -0.474004932E+01 -0.222301486E+00 -0.105793525E-02
   C  0.438522672E+01 -0.108891934E+00  0.206100881E+00
   H -0.239552623E+02  0.228191803E+01  0.221688874E+01
   H  0.233911712E+02  0.383719051E+00 -0.254021588E+01
     4
 # iter = 50000  time[fs]=50.00000
   C -0.482642287E+01 -0.226265117E+00 -0.181818463E-02
   C  0.446511052E+01 -0.110268968E+00  0.209992200E+00
   H -0.243544294E+02  0.232021239E+01  0.225429315E+01
   H  0.237808462E+02  0.390529409E+00 -0.258350479E+01
     4
 # iter = 50500  time[fs]=50.50000
   C -0.491294477E+01 -0.230232568E+00 -0.258293695E-02
   C  0.454513932E+01 -0.111645280E+00  0.213889182E+00
   H -0.247538749E+02  0.235853696E+01  0.229172489E+01
   H  0.241708399E+02  0.397346722E+00 -0.262683496E+01
     4
 # iter = 51000  time[fs]=51.00000
   C -0.499960982E+01 -0.234203721E+00 -0.335205419E-02
   C  0.462530798E+01 -0.113020890E+00  0.217791653E+00
   H -0.251535898E+02  0.239689079E+01  0.232918311E+01
   H  0.245611423E+02  0.404170775E+00 -0.267020510E+01
     4
 # iter = 51500  time[fs]=51.50000
   C -0.508641305E+01 -0.238178464E+00 -0.412540440E-02
   C  0.470561167E+01 -0.114395817E+00  0.221699448E+00
   H -0.255535659E+02  0.243527298E+01  0.236666700E+01
   H  0.249517437E+02  0.411001360E+00 -0.271361399E+01
     4
 # iter = 52000  time[fs]=52.00000
   C -0.517334976E+01 -0.242156689E+00 -0.490286129E-02
   C  0.478604577E+01 -0.115770081E+00  0.225612408E+00
   H -0.259537949E+02  0.247368267E+01  0.240417578E+01
   H  0.253426350E+02  0.417838279E+00 -0.275706048E+01
     4
 # iter = 52500  time[fs]=52.50000
   C -0.526041548E+01 -0.246138293E+00 -0.568430397E-02
   C  0.486660590E+01 -0.117143701E+00  0.229530381E+00
   H -0.263542692E+02  0.251211902E+01  0.244170871E+01
   H  0.257338073E+02  0.424681344E+00 -0.280054344E+01
     4
 # iter = 53000  time[fs]=53.00000
   C -0.534760594E+01 -0.250123178E+00 -0.646961662E-02
   C  0.494728788E+01 -0.118516693E+00  0.233453222E+00
   H -0.267549814E+02  0.255058125E+01  0.247926508E+01
   H  0.261252523E+02  0.431530374E+00 -0.284406181E+01
     4
 # iter = 53500  time[fs]=53.50000
   C -0.543491707E+01 -0.254111249E+00 -0.725868828E-02
   C  0.502808772E+01 -0.119889076E+00  0.237380791E+00
   H -0.271559246E+02  0.258906860E+01  0.251684421E+01
   H  0.265169619E+02  0.438385197E+00 -0.288761458E+01
     4
 # iter = 54000  time[fs]=54.00000
   C -0.552234502E+01 -0.258102416E+00 -0.805141252E-02
   C  0.510900165E+01 -0.121260865E+00  0.241312954E+00
   H -0.275570920E+02  0.262758036E+01  0.255444545E+01
   H  0.269089284E+02  0.445245646E+00 -0.293120076E+01
     4
 # iter = 54500  time[fs]=54.50000
   C -0.560988608E+01 -0.262096593E+00 -0.884768726E-02
   C  0.519002604E+01 -0.122632077E+00  0.245249583E+00
   H -0.279584771E+02  0.266611583E+01  0.259206818E+01
   H  0.273011445E+02  0.452111563E+00 -0.297481941E+01
     4
 # iter = 55000  time[fs]=55.00000
   C -0.569753673E+01 -0.266093694E+00 -0.964741451E-02
   C  0.527115743E+01 -0.124002726E+00  0.249190556E+00
   H -0.283600738E+02  0.270467435E+01  0.262971181E+01
   H  0.276936032E+02  0.458982796E+00 -0.301846965E+01
     4
 # iter = 55500  time[fs]=55.50000
   C -0.578529359E+01 -0.270093642E+00 -0.104505002E-01
   C  0.535239254E+01 -0.125372829E+00  0.253135753E+00
   H -0.287618762E+02  0.274325528E+01  0.266737576E+01
   H  0.280862976E+02  0.465859199E+00 -0.306215060E+01
     4
 # iter = 56000  time[fs]=56.00000
   C -0.587315346E+01 -0.274096358E+00 -0.112568539E-01
   C  0.543372821E+01 -0.126742398E+00  0.257085062E+00
   H -0.291638787E+02  0.278185800E+01  0.270505947E+01
   H  0.284792213E+02  0.472740632E+00 -0.310586145E+01
     4
 # iter = 56500  time[fs]=56.50000
   C -0.596111324E+01 -0.278101770E+00 -0.120663887E-01
   C  0.551516143E+01 -0.128111448E+00  0.261038373E+00
   H -0.295660756E+02  0.282048195E+01  0.274276243E+01
   H  0.288723681E+02  0.479626961E+00 -0.314960140E+01
     4
 # iter = 57000  time[fs]=57.00000
   C -0.604917000E+01 -0.282109806E+00 -0.128790211E-01
   C  0.559668930E+01 -0.129479993E+00  0.264995582E+00
   H -0.299684620E+02  0.285912655E+01  0.278048412E+01
   H  0.292657319E+02  0.486518056E+00 -0.319336968E+01
     4
 # iter = 57500  time[fs]=57.50000
   C -0.613732091E+01 -0.286120397E+00 -0.136946707E-01
   C  0.567830908E+01 -0.130848044E+00  0.268956587E+00
   H -0.303710326E+02  0.289779126E+01  0.281822407E+01
   H  0.296593072E+02  0.493413794E+00 -0.323716556E+01
     4
 # iter = 58000  time[fs]=58.00000
   C -0.622556327E+01 -0.290133479E+00 -0.145132601E-01
   C  0.576001810E+01 -0.132215615E+00  0.272921292E+00
   H -0.307737828E+02  0.293647557E+01  0.285598179E+01
   H  0.300530882E+02  0.500314055E+00 -0.328098833E+01
     4
 # iter = 58500  time[fs]=58.50000
   C -0.631389449E+01 -0.294148988E+00 -0.153347147E-01
   C  0.584181385E+01 -0.133582717E+00  0.276889603E+00
   H -0.311767078E+02  0.297517896E+01  0.289375684E+01
   H  0.304470698E+02  0.507218723E+00 -0.332483733E+01
     4
 # iter = 59000  time[fs]=59.00000
   C -0.640231208E+01 -0.298166863E+00 -0.161589630E-01
   C  0.592369388E+01 -0.134949362E+00  0.280861429E+00
   H -0.315798032E+02  0.301390097E+01  0.293154879E+01
   H  0.308412468E+02  0.514127689E+00 -0.336871188E+01
     4
 # iter = 59500  time[fs]=59.50000
   C -0.649081365E+01 -0.302187046E+00 -0.169859356E-01
   C  0.600565587E+01 -0.136315561E+00  0.284836685E+00
   H -0.319830647E+02  0.305264113E+01  0.296935721E+01
   H  0.312356142E+02  0.521040845E+00 -0.341261136E+01
     4
 # iter = 60000  time[fs]=60.00000
   C -0.657939692E+01 -0.306209480E+00 -0.178155658E-01
   C  0.608769757E+01 -0.137681325E+00  0.288815285E+00
   H -0.323864882E+02  0.309139899E+01  0.300718171E+01
   H  0.316301675E+02  0.527958090E+00 -0.345653517E+01
     4
 # iter = 60500  time[fs]=60.50000
   C -0.666805968E+01 -0.310234110E+00 -0.186477895E-01
   C  0.616981683E+01 -0.139046665E+00  0.292797150E+00
   H -0.327900696E+02  0.313017412E+01  0.304502189E+01
   H  0.320249019E+02  0.534879323E+00 -0.350048272E+01
     4
 # iter = 61000  time[fs]=61.00000
   C -0.675679983E+01 -0.314260883E+00 -0.194825444E-01
   C  0.625201158E+01 -0.140411590E+00  0.296782202E+00
   H -0.331938052E+02  0.316896611E+01  0.308287738E+01
   H  0.324198132E+02  0.541804450E+00 -0.354445344E+01
     4
 # iter = 61500  time[fs]=61.50000
   C -0.684561532E+01 -0.318289750E+00 -0.203197707E-01
   C  0.633427984E+01 -0.141776110E+00  0.300770365E+00
   H -0.335976913E+02  0.320777455E+01  0.312074782E+01
   H  0.328148970E+02  0.548733378E+00 -0.358844679E+01
     4
 # iter = 62000  time[fs]=62.00000
   C -0.693450421E+01 -0.322320660E+00 -0.211594106E-01
   C  0.641661969E+01 -0.143140234E+00  0.304761567E+00
   H -0.340017242E+02  0.324659907E+01  0.315863286E+01
   H  0.332101493E+02  0.555666019E+00 -0.363246224E+01
     4
 # iter = 62500  time[fs]=62.50000
   C -0.702346460E+01 -0.326353567E+00 -0.220014082E-01
   C  0.649902929E+01 -0.144503973E+00  0.308755738E+00
   H -0.344059005E+02  0.328543928E+01  0.319653216E+01
   H  0.336055661E+02  0.562602287E+00 -0.367649929E+01
     4
 # iter = 63000  time[fs]=63.00000
   C -0.711249470E+01 -0.330388425E+00 -0.228457095E-01
   C  0.658150687E+01 -0.145867334E+00  0.312752809E+00
   H -0.348102169E+02  0.332429483E+01  0.323444541E+01
   H  0.340011436E+02  0.569542098E+00 -0.372055744E+01
     4
 # iter = 63500  time[fs]=63.50000
   C -0.720159274E+01 -0.334425190E+00 -0.236922622E-01
   C  0.666405072E+01 -0.147230326E+00  0.316752715E+00
   H -0.352146702E+02  0.336316537E+01  0.327237227E+01
   H  0.343968781E+02  0.576485373E+00 -0.376463622E+01
     4
 # iter = 64000  time[fs]=64.00000
   C -0.729075706E+01 -0.338463818E+00 -0.245410160E-01
   C  0.674665920E+01 -0.148592958E+00  0.320755394E+00
   H -0.356192572E+02  0.340205056E+01  0.331031246E+01
   H  0.347927661E+02  0.583432034E+00 -0.380873517E+01
     4
 # iter = 64500  time[fs]=64.50000
   C -0.737998602E+01 -0.342504269E+00 -0.253919219E-01
   C  0.682933072E+01 -0.149955237E+00  0.324760783E+00
   H -0.360239750E+02  0.344095008E+01  0.334826567E+01
   H  0.351888041E+02  0.590382006E+00 -0.385285385E+01
     4
 # iter = 65000  time[fs]=65.00000
   C -0.746927807E+01 -0.346546502E+00 -0.262449328E-01
   C  0.691206376E+01 -0.151317172E+00  0.328768823E+00
   H -0.364288207E+02  0.347986361E+01  0.338623162E+01
   H  0.355849888E+02  0.597335216E+00 -0.389699182E+01
     4
 # iter = 65500  time[fs]=65.50000
   C -0.755863169E+01 -0.350590478E+00 -0.271000029E-01
   C  0.699485683E+01 -0.152678769E+00  0.332779458E+00
   H -0.368337914E+02  0.351879085E+01  0.342421003E+01
   H  0.359813170E+02  0.604291595E+00 -0.394114868E+01
     4
 # iter = 66000  time[fs]=66.00000
   C -0.764804543E+01 -0.354636161E+00 -0.279570880E-01
   C  0.707770852E+01 -0.154040036E+00  0.336792630E+00
   H -0.372388844E+02  0.355773150E+01  0.346220065E+01
   H  0.363777855E+02  0.611251075E+00 -0.398532401E+01
     4
 # iter = 66500  time[fs]=66.50000
   C -0.773751787E+01 -0.358683514E+00 -0.288161450E-01
   C  0.716061745E+01 -0.155400981E+00  0.340808287E+00
   H -0.376440971E+02  0.359668529E+01  0.350020321E+01
   H  0.367743914E+02  0.618213589E+00 -0.402951743E+01
     4
 # iter = 67000  time[fs]=67.00000
   C -0.782704767E+01 -0.362732501E+00 -0.296771325E-01
   C  0.724358229E+01 -0.156761610E+00  0.344826376E+00
   H -0.380494270E+02  0.363565193E+01  0.353821745E+01
   H  0.371711317E+02  0.625179075E+00 -0.407372857E+01
     4
 # iter = 67500  time[fs]=67.50000
   C -0.791663351E+01 -0.366783088E+00 -0.305400102E-01
   C  0.732660176E+01 -0.158121929E+00  0.348846847E+00
   H -0.384548715E+02  0.367463115E+01  0.357624315E+01
   H  0.375680035E+02  0.632147470E+00 -0.411795705E+01
     4
 # iter = 68000  time[fs]=68.00000
   C -0.800627412E+01 -0.370835243E+00 -0.314047390E-01
   C  0.740967462E+01 -0.159481946E+00  0.352869650E+00
   H -0.388604283E+02  0.371362270E+01  0.361428006E+01
   H  0.379650043E+02  0.639118714E+00 -0.416220252E+01
     4
 # iter = 68500  time[fs]=68.50000
   C -0.809596826E+01 -0.374888934E+00 -0.322712811E-01
   C  0.749279966E+01 -0.160841666E+00  0.356894738E+00
   H -0.392660951E+02  0.375262632E+01  0.365232795E+01
   H  0.383621312E+02  0.646092750E+00 -0.420646464E+01
     4
 # iter = 69000  time[fs]=69.00000
   C -0.818571476E+01 -0.378944128E+00 -0.331395997E-01
   C  0.757597573E+01 -0.162201095E+00  0.360922065E+00
   H -0.396718696E+02  0.379164177E+01  0.369038662E+01
   H  0.387593818E+02  0.653069521E+00 -0.425074307E+01
     4
 # iter = 69500  time[fs]=69.50000
   C -0.827551246E+01 -0.383000797E+00 -0.340096591E-01
   C  0.765920171E+01 -0.163560241E+00  0.364951586E+00
   H -0.400777497E+02  0.383066881E+01  0.372845583E+01
   H  0.391567534E+02  0.660048972E+00 -0.429503749E+01
     4
 # iter = 70000  time[fs]=70.00000
   C -0.836536025E+01 -0.387058910E+00 -0.348814248E-01
   C  0.774247651E+01 -0.164919107E+00  0.368983258E+00
   H -0.404837332E+02  0.386970722E+01  0.376653538E+01
   H  0.395542438E+02  0.667031051E+00 -0.433934759E+01
     4
 # iter = 70500  time[fs]=70.50000
   C -0.845525706E+01 -0.391118440E+00 -0.357548631E-01
   C  0.782579907E+01 -0.166277700E+00  0.373017038E+00
   H -0.408898180E+02  0.390875677E+01  0.380462508E+01
   H  0.399518505E+02  0.674015705E+00 -0.438367305E+01
     4
 # iter = 71000  time[fs]=71.00000
   C -0.854520184E+01 -0.395179358E+00 -0.366299414E-01
   C  0.790916838E+01 -0.167636025E+00  0.377052886E+00
   H -0.412960022E+02  0.394781724E+01  0.384272471E+01
   H  0.403495712E+02  0.681002886E+00 -0.442801359E+01
     4
 # iter = 71500  time[fs]=71.50000
   C -0.863519357E+01 -0.399241638E+00 -0.375066281E-01
   C  0.799258345E+01 -0.168994088E+00  0.381090760E+00
   H -0.417022839E+02  0.398688843E+01  0.388083411E+01
   H  0.407474038E+02  0.687992544E+00 -0.447236891E+01
     4
 # iter = 72000  time[fs]=72.00000
   C -0.872523128E+01 -0.403305253E+00 -0.383848922E-01
   C  0.807604332E+01 -0.170351893E+00  0.385130624E+00
   H -0.421086612E+02  0.402597013E+01  0.391895307E+01
   H  0.411453461E+02  0.694984633E+00 -0.451673873E+01
     4
 # iter = 72500  time[fs]=72.50000
   C -0.881531402E+01 -0.407370180E+00 -0.392647040E-01
   C  0.815954707E+01 -0.171709446E+00  0.389172439E+00
   H -0.425151322E+02  0.406506213E+01  0.395708142E+01
   H  0.415433959E+02  0.701979106E+00 -0.456112279E+01
     4
 # iter = 73000  time[fs]=73.00000
   C -0.890544087E+01 -0.411436391E+00 -0.401460342E-01
   C  0.824309379E+01 -0.173066751E+00  0.393216169E+00
   H -0.429216951E+02  0.410416426E+01  0.399521898E+01
   H  0.419415513E+02  0.708975918E+00 -0.460552081E+01
     4
 # iter = 73500  time[fs]=73.50000
   C -0.899561093E+01 -0.415503865E+00 -0.410288545E-01
   C  0.832668262E+01 -0.174423813E+00  0.397261777E+00
   H -0.433283483E+02  0.414327631E+01  0.403336559E+01
   H  0.423398103E+02  0.715975027E+00 -0.464993255E+01
     4
 # iter = 74000  time[fs]=74.00000
   C -0.908582334E+01 -0.419572577E+00 -0.419131375E-01
   C  0.841031269E+01 -0.175780637E+00  0.401309231E+00
   H -0.437350901E+02  0.418239812E+01  0.407152107E+01
   H  0.427381709E+02  0.722976391E+00 -0.469435774E+01
     4
 # iter = 74500  time[fs]=74.50000
   C -0.917607725E+01 -0.423642505E+00 -0.427988564E-01
   C  0.849398320E+01 -0.177137227E+00  0.405358495E+00
   H -0.441419188E+02  0.422152949E+01  0.410968528E+01
   H  0.431366313E+02  0.729979968E+00 -0.473879616E+01
     4
 # iter = 75000  time[fs]=75.00000
   C -0.926637184E+01 -0.427713627E+00 -0.436859851E-01
   C  0.857769335E+01 -0.178493588E+00  0.409409537E+00
   H -0.445488328E+02  0.426067026E+01  0.414785804E+01
   H  0.435351897E+02  0.736985718E+00 -0.478324755E+01
     4
 # iter = 75500  time[fs]=75.50000
   C -0.935670633E+01 -0.431785921E+00 -0.445744982E-01
   C  0.866144235E+01 -0.179849723E+00  0.413462325E+00
   H -0.449558307E+02  0.429982025E+01  0.418603921E+01
   H  0.439338442E+02  0.743993603E+00 -0.482771169E+01
     4
 # iter = 76000  time[fs]=76.00000
   C -0.944707993E+01 -0.435859366E+00 -0.454643710E-01
   C  0.874522946E+01 -0.181205637E+00  0.417516828E+00
   H -0.453629108E+02  0.433897932E+01  0.422422864E+01
   H  0.443325933E+02  0.751003584E+00 -0.487218835E+01
     4
 # iter = 76500  time[fs]=76.50000
   C -0.953749190E+01 -0.439933943E+00 -0.463555795E-01
   C  0.882905394E+01 -0.182561334E+00  0.421573016E+00
   H -0.457700718E+02  0.437814729E+01  0.426242618E+01
   H  0.447314351E+02  0.758015625E+00 -0.491667732E+01
     4
 # iter = 77000  time[fs]=77.00000
   C -0.962794152E+01 -0.444009630E+00 -0.472481003E-01
   C  0.891291509E+01 -0.183916817E+00  0.425630860E+00
   H -0.461773122E+02  0.441732401E+01  0.430063170E+01
   H  0.451303680E+02  0.765029690E+00 -0.496117838E+01
     4
 # iter = 77500  time[fs]=77.50000
   C -0.971842806E+01 -0.448086410E+00 -0.481419105E-01
   C  0.899681220E+01 -0.185272091E+00  0.429690331E+00
   H -0.465846307E+02  0.445650933E+01  0.433884505E+01
   H  0.455293906E+02  0.772045745E+00 -0.500569133E+01
     4
 # iter = 78000  time[fs]=78.00000
   C -0.980895085E+01 -0.452164263E+00 -0.490369878E-01
   C  0.908074462E+01 -0.186627159E+00  0.433751400E+00
   H -0.469920258E+02  0.449570310E+01  0.437706611E+01
   H  0.459285011E+02  0.779063754E+00 -0.505021595E+01
     4
 # iter = 78500  time[fs]=78.50000
   C -0.989950922E+01 -0.456243170E+00 -0.499333108E-01
   C  0.916471168E+01 -0.187982025E+00  0.437814041E+00
   H -0.473994963E+02  0.453490518E+01  0.441529473E+01
   H  0.463276981E+02  0.786083685E+00 -0.509475206E+01
     4
 # iter = 79000  time[fs]=79.00000
   C -0.999010250E+01 -0.460323114E+00 -0.508308581E-01
   C  0.924871275E+01 -0.189336692E+00  0.441878226E+00
   H -0.478070408E+02  0.457411543E+01  0.445353081E+01
   H  0.467269802E+02  0.793105505E+00 -0.513929947E+01
     4
 # iter = 79500  time[fs]=79.50000
   C -0.100807301E+02 -0.464404078E+00 -0.517296092E-01
   C  0.933274721E+01 -0.190691164E+00  0.445943931E+00
   H -0.482146582E+02  0.461333371E+01  0.449177420E+01
   H  0.471263458E+02  0.800129183E+00 -0.518385797E+01
     4
 # iter = 80000  time[fs]=80.00000
   C -0.101713913E+02 -0.468486044E+00 -0.526295440E-01
   C  0.941681446E+01 -0.192045444E+00  0.450011130E+00
   H -0.486223472E+02  0.465255988E+01  0.453002480E+01
   H  0.475257937E+02  0.807154688E+00 -0.522842740E+01
