     4
 # iter = 25000  time[fs]=25.00000
   C -0.100524586E+01 -0.449102462E-01 -0.307647842E-01
   C  0.985714667E+00 -0.199247811E-01  0.110568973E-01
   H -0.521206542E+01 -0.598765147E+00  0.483504603E+00
   H  0.531237631E+01  0.597960340E+00 -0.134789620E+00
     4
 # iter = 25500  time[fs]=25.50000
   C -0.105423369E+01 -0.457844049E-01 -0.340448739E-01
   C  0.102773852E+01 -0.248913006E-01  0.103022474E-01
   H -0.555353704E+01 -0.644074961E+00  0.507286112E+00
   H  0.561962730E+01  0.625402756E+00 -0.152949775E+00
     4
 # iter = 26000  time[fs]=26.00000
   C -0.110782540E+01 -0.475713795E-01 -0.383072124E-01
   C  0.107241096E+01 -0.309058321E-01  0.855456041E-02
   H -0.590310477E+01 -0.695109520E+00  0.525937623E+00
   H  0.592411169E+01  0.647773614E+00 -0.176602735E+00
     4
 # iter = 26500  time[fs]=26.50000
   C -0.116305817E+01 -0.476215090E-01 -0.409039026E-01
   C  0.112260215E+01 -0.347815409E-01  0.900474054E-02
   H -0.624437026E+01 -0.735747218E+00  0.555510738E+00
   H  0.624165600E+01  0.681134100E+00 -0.189644986E+00
     4
 # iter = 27000  time[fs]=27.00000
   C -0.121949787E+01 -0.457965847E-01 -0.416972525E-01
   C  0.117816525E+01 -0.363679564E-01  0.118053576E-01
   H -0.657628213E+01 -0.765161754E+00  0.596775276E+00
   H  0.657281794E+01  0.726250153E+00 -0.191273090E+00
     4
 # iter = 27500  time[fs]=27.50000
   C -0.127882721E+01 -0.440548363E-01 -0.426449981E-01
   C  0.123644067E+01 -0.380492333E-01  0.145728103E-01
   H -0.691059748E+01 -0.795294863E+00  0.637743494E+00
   H  0.690540938E+01  0.771119431E+00 -0.193455949E+00
     4
 # iter = 28000  time[fs]=28.00000
   C -0.134217943E+01 -0.437814621E-01 -0.451309629E-01
   C  0.129548927E+01 -0.415126225E-01  0.156193674E-01
   H -0.725560289E+01 -0.834592032E+00  0.669930439E+00
   H  0.723077437E+01  0.807245782E+00 -0.204660983E+00
     4
 # iter = 28500  time[fs]=28.50000
   C -0.140876194E+01 -0.444115617E-01 -0.485881816E-01
   C  0.135575932E+01 -0.460815949E-01  0.156204071E-01
   H -0.760771595E+01 -0.879612234E+00  0.696742048E+00
   H  0.755218355E+01  0.838034308E+00 -0.221458965E+00
     4
 # iter = 29000  time[fs]=29.00000
   C -0.147698940E+01 -0.445650634E-01 -0.516340765E-01
   C  0.141871031E+01 -0.500905994E-01  0.162398354E-01
   H -0.795840062E+01 -0.921944420E+00  0.726558367E+00
   H  0.787790532E+01  0.871868751E+00 -0.235445487E+00
     4
 # iter = 29500  time[fs]=29.50000
   C -0.154619893E+01 -0.437643598E-01 -0.537883065E-01
   C  0.148473067E+01 -0.529654284E-01  0.180498268E-01
   H -0.830463525E+01 -0.958675185E+00  0.762266010E+00
   H  0.821072343E+01  0.911635371E+00 -0.243715899E+00
     4
 # iter = 30000  time[fs]=30.00000
   C -0.161688909E+01 -0.426751325E-01 -0.557137195E-01
   C  0.155284413E+01 -0.555151753E-01  0.202389927E-01
   H -0.865037875E+01 -0.993856865E+00  0.799789559E+00
   H  0.854646435E+01  0.953253121E+00 -0.250334631E+00
     4
 # iter = 30500  time[fs]=30.50000
   C -0.168965281E+01 -0.420405167E-01 -0.581505802E-01
   C  0.162199860E+01 -0.586417534E-01  0.219030008E-01
   H -0.900007205E+01 -0.103201255E+01  0.834585651E+00
   H  0.888049635E+01  0.992172816E+00 -0.259836011E+00
     4
 # iter = 31000  time[fs]=31.00000
   C -0.176436526E+01 -0.418703201E-01 -0.611058352E-01
   C  0.169204630E+01 -0.623582293E-01  0.230263460E-01
   H -0.935369457E+01 -0.107319531E+01  0.866583025E+00
   H  0.921267318E+01  0.102832104E+01 -0.272280339E+00
     4
 # iter = 31500  time[fs]=31.50000
   C -0.184042005E+01 -0.416789019E-01 -0.640910403E-01
   C  0.176345384E+01 -0.660770958E-01  0.241941283E-01
   H -0.970821320E+01 -0.111443832E+01  0.898732122E+00
   H  0.954588113E+01  0.106464863E+01 -0.284705143E+00
     4
 # iter = 32000  time[fs]=32.00000
   C -0.191740766E+01 -0.411652408E-01 -0.668024687E-01
   C  0.183647694E+01 -0.694340328E-01  0.257683128E-01
   H -0.100617268E+02 -0.115389978E+01  0.932860056E+00
   H  0.988188903E+01  0.110298244E+01 -0.295273105E+00
     4
 # iter = 32500  time[fs]=32.50000
   C -0.199535783E+01 -0.404568031E-01 -0.693650035E-01
   C  0.191086354E+01 -0.725833553E-01  0.275923004E-01
   H -0.104149521E+02 -0.119234937E+01  0.968184047E+00
   H  0.102198593E+02  0.114253758E+01 -0.304759571E+00
     4
 # iter = 33000  time[fs]=33.00000
   C -0.207444550E+01 -0.398165754E-01 -0.720391778E-01
   C  0.198620738E+01 -0.758432666E-01  0.293456939E-01
   H -0.107694369E+02 -0.123138270E+01  0.100309667E+01
   H  0.105581342E+02  0.118170402E+01 -0.314765904E+00
     4
 # iter = 33500  time[fs]=33.50000
   C -0.215466838E+01 -0.393216898E-01 -0.748998009E-01
   C  0.206233615E+01 -0.793066949E-01  0.309334786E-01
   H -0.111256012E+02 -0.127146276E+01  0.103712424E+01
   H  0.108961949E+02  0.122000642E+01 -0.325759566E+00
     4
 # iter = 34000  time[fs]=34.00000
   C -0.223584279E+01 -0.388601969E-01 -0.778327315E-01
   C  0.213931429E+01 -0.828374387E-01  0.324898809E-01
   H -0.114827163E+02 -0.131190030E+01  0.107094625E+01
   H  0.112346809E+02  0.125812360E+01 -0.337054591E+00
     4
 # iter = 34500  time[fs]=34.50000
   C -0.231779438E+01 -0.383226840E-01 -0.807264948E-01
   C  0.221721010E+01 -0.863022878E-01  0.341462467E-01
   H -0.118400728E+02 -0.135202179E+01  0.110522732E+01
   H  0.115742204E+02  0.129671960E+01 -0.347980404E+00
     4
 # iter = 35000  time[fs]=35.00000
   C -0.240046634E+01 -0.377112301E-01 -0.835812352E-01
   C  0.229596292E+01 -0.897030141E-01  0.358990466E-01
   H -0.121976443E+02 -0.139183349E+01  0.113995305E+01
   H  0.119147652E+02  0.133577898E+01 -0.358546415E+00
     4
 # iter = 35500  time[fs]=35.50000
   C -0.248386815E+01 -0.370888422E-01 -0.864581467E-01
   C  0.237544373E+01 -0.931151496E-01  0.376710951E-01
   H -0.125557789E+02 -0.143171331E+01  0.117473809E+01
   H  0.122558984E+02  0.137491521E+01 -0.369133654E+00
     4
 # iter = 36000  time[fs]=36.00000
   C -0.256798556E+01 -0.364899591E-01 -0.893899696E-01
   C  0.245556293E+01 -0.965796059E-01  0.394199277E-01
   H -0.129146531E+02 -0.147186531E+01  0.120937155E+01
   H  0.125973806E+02  0.141391637E+01 -0.379948929E+00
     4
 # iter = 36500  time[fs]=36.50000
   C -0.265275952E+01 -0.358999820E-01 -0.923605151E-01
   C  0.253629462E+01 -0.100077897E+00  0.411625739E-01
   H -0.132741472E+02 -0.151219492E+01  0.124394168E+01
   H  0.129392734E+02  0.145286998E+01 -0.390900021E+00
     4
 # iter = 37000  time[fs]=37.00000
   C -0.273812359E+01 -0.352930313E-01 -0.953424150E-01
   C  0.261763038E+01 -0.103577879E+00  0.429298120E-01
   H -0.136340749E+02 -0.155253911E+01  0.127860570E+01
   H  0.132817101E+02  0.149193262E+01 -0.401825993E+00
     4
 # iter = 37500  time[fs]=37.50000
   C -0.282403448E+01 -0.346629669E-01 -0.983281359E-01
   C  0.269954131E+01 -0.107071329E+00  0.447285836E-01
   H -0.139943721E+02 -0.159285543E+01  0.131340066E+01
   H  0.136247051E+02  0.153114071E+01 -0.412686409E+00
     4
 # iter = 38000  time[fs]=38.00000
   C -0.291046830E+01 -0.340199687E-01 -0.101326554E+00
   C  0.278198183E+01 -0.110569810E+00  0.465461259E-01
   H -0.143550764E+02 -0.163320116E+01  0.134826429E+01
   H  0.139681753E+02  0.157043127E+01 -0.423540483E+00
     4
 # iter = 38500  time[fs]=38.50000
   C -0.299740255E+01 -0.333728311E-01 -0.104345241E+00
   C  0.286491075E+01 -0.114083226E+00  0.483714079E-01
   H -0.147162183E+02 -0.167362539E+01  0.138314287E+01
   H  0.143120473E+02  0.160974994E+01 -0.434439088E+00
     4
 # iter = 39000  time[fs]=39.00000
   C -0.308480842E+01 -0.327215305E-01 -0.107383030E+00
   C  0.294830008E+01 -0.117610825E+00  0.502041262E-01
   H -0.150777762E+02 -0.171412370E+01  0.141803650E+01
   H  0.146563034E+02  0.164909626E+01 -0.445379422E+00
     4
 # iter = 39500  time[fs]=39.50000
   C -0.317265543E+01 -0.320621488E-01 -0.110434928E+00
   C  0.303212874E+01 -0.121147162E+00  0.520487335E-01
   H -0.154397064E+02 -0.175466814E+01  0.145296911E+01
   H  0.150009505E+02  0.168849365E+01 -0.456335042E+00
     4
 # iter = 40000  time[fs]=40.00000
   C -0.326091737E+01 -0.313929621E-01 -0.113498207E+00
   C  0.311637501E+01 -0.124689477E+00  0.539070604E-01
   H -0.158019795E+02 -0.179524439E+01  0.148795128E+01
   H  0.153459836E+02  0.172795220E+01 -0.467293000E+00
     4
 # iter = 40500  time[fs]=40.50000
   C -0.334957276E+01 -0.307151635E-01 -0.116573114E+00
   C  0.320101546E+01 -0.128238567E+00  0.557774340E-01
   H -0.161645854E+02 -0.183585606E+01  0.152297587E+01
   H  0.156913807E+02  0.176746429E+01 -0.478258251E+00
     4
 # iter = 41000  time[fs]=41.00000
   C -0.343860224E+01 -0.300303955E-01 -0.119660403E+00
   C  0.328602776E+01 -0.131795801E+00  0.576576634E-01
   H -0.165275175E+02 -0.187650974E+01  0.155803302E+01
   H  0.160371184E+02  0.180701964E+01 -0.489238595E+00
     4
 # iter = 41500  time[fs]=41.50000
   C -0.352798690E+01 -0.293392062E-01 -0.122759789E+00
   C  0.337139239E+01 -0.135361250E+00  0.595469066E-01
   H -0.168907639E+02 -0.191720550E+01  0.159311957E+01
   H  0.163831804E+02  0.184661466E+01 -0.500235257E+00
     4
 # iter = 42000  time[fs]=42.00000
   C -0.361770843E+01 -0.286413972E-01 -0.125870288E+00
   C  0.345709210E+01 -0.138934101E+00  0.614452453E-01
   H -0.172543089E+02 -0.195793902E+01  0.162823694E+01
   H  0.167295562E+02  0.188625037E+01 -0.511245010E+00
     4
 # iter = 42500  time[fs]=42.50000
   C -0.370774992E+01 -0.279368675E-01 -0.128991060E+00
   C  0.354311075E+01 -0.142513689E+00  0.633526614E-01
   H -0.176181381E+02 -0.199870678E+01  0.166338594E+01
   H  0.170762351E+02  0.192592724E+01 -0.522265311E+00
     4
 # iter = 43000  time[fs]=43.00000
   C -0.379809593E+01 -0.272258676E-01 -0.132121658E+00
   C  0.362943290E+01 -0.146099796E+00  0.652687260E-01
   H -0.179822403E+02 -0.203950750E+01  0.169856528E+01
   H  0.174232051E+02  0.196564362E+01 -0.533295856E+00
     4
 # iter = 43500  time[fs]=43.50000
   C -0.388873219E+01 -0.265087666E-01 -0.135261795E+00
   C  0.371604400E+01 -0.149692370E+00  0.671928806E-01
   H -0.183466056E+02 -0.208034080E+01  0.173377294E+01
   H  0.177704541E+02  0.200539715E+01 -0.544337143E+00
     4
 # iter = 44000  time[fs]=44.00000
   C -0.397964532E+01 -0.257858374E-01 -0.138411124E+00
   C  0.380293056E+01 -0.153291265E+00  0.691246951E-01
   H -0.187112243E+02 -0.212120582E+01  0.176900747E+01
   H  0.181179711E+02  0.204518608E+01 -0.555389170E+00
     4
 # iter = 44500  time[fs]=44.50000
   C -0.407082270E+01 -0.250572524E-01 -0.141569231E+00
   C  0.389008006E+01 -0.156896235E+00  0.710638717E-01
   H -0.190760866E+02 -0.216210124E+01  0.180426806E+01
   H  0.184657463E+02  0.208500931E+01 -0.566451397E+00
     4
 # iter = 45000  time[fs]=45.00000
   C -0.416225252E+01 -0.243231664E-01 -0.144735717E+00
   C  0.397748080E+01 -0.160507032E+00  0.730101433E-01
   H -0.194411831E+02 -0.220302574E+01  0.183955399E+01
   H  0.188137705E+02  0.212486583E+01 -0.577523251E+00
     4
 # iter = 45500  time[fs]=45.50000
   C -0.425392373E+01 -0.235837564E-01 -0.147910236E+00
   C  0.406512179E+01 -0.164123456E+00  0.749632245E-01
   H -0.198065054E+02 -0.224397823E+01  0.187486443E+01
   H  0.191620347E+02  0.216475454E+01 -0.588604363E+00
     4
 # iter = 46000  time[fs]=46.00000
   C -0.434582599E+01 -0.228392086E-01 -0.151092477E+00
   C  0.415299268E+01 -0.167745333E+00  0.769228260E-01
   H -0.201720454E+02 -0.228495780E+01  0.191019845E+01
   H  0.195105305E+02  0.220467426E+01 -0.599694486E+00
     4
 # iter = 46500  time[fs]=46.50000
   C -0.443794957E+01 -0.220896978E-01 -0.154282146E+00
   C  0.424108376E+01 -0.171372496E+00  0.788886789E-01
   H -0.205377955E+02 -0.232596356E+01  0.194555521E+01
   H  0.198592498E+02  0.224462392E+01 -0.610793369E+00
     4
 # iter = 47000  time[fs]=47.00000
   C -0.453028531E+01 -0.213353840E-01 -0.157478957E+00
   C  0.432938591E+01 -0.175004775E+00  0.808605383E-01
   H -0.209037483E+02 -0.236699462E+01  0.198093395E+01
   H  0.202081848E+02  0.228460252E+01 -0.621900724E+00
     4
 # iter = 47500  time[fs]=47.50000
   C -0.462282460E+01 -0.205764178E-01 -0.160682637E+00
   C  0.441789055E+01 -0.178642005E+00  0.828381759E-01
   H -0.212698971E+02 -0.240805012E+01  0.201633397E+01
   H  0.205573285E+02  0.232460914E+01 -0.633016267E+00
     4
 # iter = 48000  time[fs]=48.00000
   C -0.471555931E+01 -0.198129450E-01 -0.163892930E+00
   C  0.450658957E+01 -0.182284029E+00  0.848213737E-01
   H -0.216362351E+02 -0.244912927E+01  0.205175459E+01
   H  0.209066739E+02  0.236464289E+01 -0.644139736E+00
     4
 # iter = 48500  time[fs]=48.50000
   C -0.480848178E+01 -0.190451063E-01 -0.167109595E+00
   C  0.459547535E+01 -0.185930701E+00  0.868099242E-01
   H -0.220027562E+02 -0.249023130E+01  0.208719514E+01
   H  0.212562145E+02  0.240470292E+01 -0.655270890E+00
     4
 # iter = 49000  time[fs]=49.00000
   C -0.490158478E+01 -0.182730368E-01 -0.170332405E+00
   C  0.468454068E+01 -0.189581878E+00  0.888036307E-01
   H -0.223694544E+02 -0.253135549E+01  0.212265501E+01
   H  0.216059440E+02  0.244478840E+01 -0.666409498E+00
     4
 # iter = 49500  time[fs]=49.50000
   C -0.499486146E+01 -0.174968653E-01 -0.173561142E+00
   C  0.477377873E+01 -0.193237425E+00  0.908023071E-01
   H -0.227363241E+02 -0.257250115E+01  0.215813359E+01
   H  0.219558565E+02  0.248489857E+01 -0.677555338E+00
     4
 # iter = 50000  time[fs]=50.00000
   C -0.508830536E+01 -0.167167150E-01 -0.176795600E+00
   C  0.486318306E+01 -0.196897212E+00  0.928057775E-01
   H -0.231033600E+02 -0.261366762E+01  0.219363031E+01
   H  0.223059463E+02  0.252503267E+01 -0.688708198E+00
     4
 # iter = 50500  time[fs]=50.50000
   C -0.518191035E+01 -0.159327040E-01 -0.180035585E+00
   C  0.495274757E+01 -0.200561113E+00  0.948138747E-01
   H -0.234705567E+02 -0.265485427E+01  0.222914464E+01
   H  0.226562079E+02  0.256519000E+01 -0.699867873E+00
     4
 # iter = 51000  time[fs]=51.00000
   C -0.527567061E+01 -0.151449456E-01 -0.183280909E+00
   C  0.504246647E+01 -0.204229009E+00  0.968264399E-01
   H -0.238379096E+02 -0.269606051E+01  0.226467606E+01
   H  0.230066363E+02  0.260536988E+01 -0.711034168E+00
     4
 # iter = 51500  time[fs]=51.50000
   C -0.536958065E+01 -0.143535485E-01 -0.186531397E+00
   C  0.513233428E+01 -0.207900785E+00  0.988433220E-01
   H -0.242054137E+02 -0.273728575E+01  0.230022406E+01
   H  0.233572265E+02  0.264557166E+01 -0.722206897E+00
     4
 # iter = 52000  time[fs]=52.00000
   C -0.546363524E+01 -0.135586170E-01 -0.189786879E+00
   C  0.522234579E+01 -0.211576330E+00  0.100864377E+00
   H -0.245730648E+02 -0.277852946E+01  0.233578819E+01
   H  0.237079737E+02  0.268579473E+01 -0.733385881E+00
     4
 # iter = 52500  time[fs]=52.50000
   C -0.555782940E+01 -0.127602511E-01 -0.193047196E+00
   C  0.531249604E+01 -0.215255540E+00  0.102889469E+00
   H -0.249408585E+02 -0.281979109E+01  0.237136797E+01
   H  0.240588734E+02  0.272603848E+01 -0.744570950E+00
     4
 # iter = 53000  time[fs]=53.00000
   C -0.565215841E+01 -0.119585469E-01 -0.196312194E+00
   C  0.540278034E+01 -0.218938312E+00  0.104918467E+00
   H -0.253087907E+02 -0.286107015E+01  0.240696297E+01
   H  0.244099214E+02  0.276630235E+01 -0.755761939E+00
     4
 # iter = 53500  time[fs]=53.50000
   C -0.574661778E+01 -0.111535967E-01 -0.199581728E+00
   C  0.549319420E+01 -0.222624548E+00  0.106951247E+00
   H -0.256768575E+02 -0.290236617E+01  0.244257279E+01
   H  0.247611133E+02  0.280658579E+01 -0.766958689E+00
     4
 # iter = 54000  time[fs]=54.00000
   C -0.584120322E+01 -0.103454892E-01 -0.202855659E+00
   C  0.558373337E+01 -0.226314155E+00  0.108987690E+00
   H -0.260450551E+02 -0.294367866E+01  0.247819701E+01
   H  0.251124454E+02  0.284688828E+01 -0.778161050E+00
     4
 # iter = 54500  time[fs]=54.50000
   C -0.593591066E+01 -0.953430967E-02 -0.206133853E+00
   C  0.567439379E+01 -0.230007043E+00  0.111027683E+00
   H -0.264133799E+02 -0.298500720E+01  0.251383525E+01
   H  0.254639136E+02  0.288720930E+01 -0.789368876E+00
     4
 # iter = 55000  time[fs]=55.00000
   C -0.603073621E+01 -0.872014007E-02 -0.209416182E+00
   C  0.576517158E+01 -0.233703124E+00  0.113071119E+00
   H -0.267818284E+02 -0.302635134E+01  0.254948714E+01
   H  0.258155145E+02  0.292754839E+01 -0.800582027E+00
     4
 # iter = 55500  time[fs]=55.50000
   C -0.612567616E+01 -0.790305930E-02 -0.212702527E+00
   C  0.585606305E+01 -0.237402316E+00  0.115117893E+00
   H -0.271503974E+02 -0.306771069E+01  0.258515234E+01
   H  0.261672444E+02  0.296790506E+01 -0.811800368E+00
     4
 # iter = 56000  time[fs]=56.00000
   C -0.622072696E+01 -0.708314328E-02 -0.215992768E+00
   C  0.594706467E+01 -0.241104537E+00  0.117167907E+00
   H -0.275190836E+02 -0.310908486E+01  0.262083049E+01
   H  0.265191000E+02  0.300827888E+01 -0.823023770E+00
     4
 # iter = 56500  time[fs]=56.50000
   C -0.631588523E+01 -0.626046512E-02 -0.219286797E+00
   C  0.603817307E+01 -0.244809711E+00  0.119221066E+00
   H -0.278878840E+02 -0.315047345E+01  0.265652126E+01
   H  0.268710780E+02  0.304866941E+01 -0.834252107E+00
     4
 # iter = 57000  time[fs]=57.00000
   C -0.641114774E+01 -0.543509523E-02 -0.222584504E+00
   C  0.612938503E+01 -0.248517762E+00  0.121277280E+00
   H -0.282567956E+02 -0.319187611E+01  0.269222435E+01
   H  0.272231753E+02  0.308907624E+01 -0.845485260E+00
     4
 # iter = 57500  time[fs]=57.50000
   C -0.650651138E+01 -0.460710146E-02 -0.225885788E+00
   C  0.622069746E+01 -0.252228618E+00  0.123336461E+00
   H -0.286258156E+02 -0.323329248E+01  0.272793945E+01
   H  0.275753890E+02  0.312949897E+01 -0.856723112E+00
     4
 # iter = 58000  time[fs]=58.00000
   C -0.660197319E+01 -0.377654919E-02 -0.229190551E+00
   C  0.631210743E+01 -0.255942212E+00  0.125398527E+00
   H -0.289949413E+02 -0.327472224E+01  0.276366626E+01
   H  0.279277160E+02  0.316993721E+01 -0.867965553E+00
     4
 # iter = 58500  time[fs]=58.50000
   C -0.669753033E+01 -0.294350150E-02 -0.232498698E+00
   C  0.640361210E+01 -0.259658474E+00  0.127463398E+00
   H -0.293641700E+02 -0.331616505E+01  0.279940450E+01
   H  0.282801536E+02  0.321039059E+01 -0.879212473E+00
     4
 # iter = 59000  time[fs]=59.00000
   C -0.679318009E+01 -0.210801922E-02 -0.235810138E+00
   C  0.649520876E+01 -0.263377342E+00  0.129530997E+00
   H -0.297334992E+02 -0.335762060E+01  0.283515390E+01
   H  0.286326991E+02  0.325085876E+01 -0.890463769E+00
     4
 # iter = 59500  time[fs]=59.50000
   C -0.688891986E+01 -0.127016104E-02 -0.239124785E+00
   C  0.658689482E+01 -0.267098752E+00  0.131601251E+00
   H -0.301029265E+02 -0.339908858E+01  0.287091420E+01
   H  0.289853499E+02  0.329134136E+01 -0.901719340E+00
     4
 # iter = 60000  time[fs]=60.00000
   C -0.698474713E+01 -0.429983637E-03 -0.242442553E+00
   C  0.667866780E+01 -0.270822645E+00  0.133674088E+00
   H -0.304724494E+02 -0.344056872E+01  0.290668514E+01
   H  0.293381036E+02  0.333183807E+01 -0.912979090E+00
     4
 # iter = 60500  time[fs]=60.50000
   C -0.708065950E+01  0.412458275E-03 -0.245763364E+00
   C  0.677052530E+01 -0.274548962E+00  0.135749441E+00
   H -0.308420658E+02 -0.348206071E+01  0.294246649E+01
   H  0.296909577E+02  0.337234856E+01 -0.924242924E+00
     4
 # iter = 61000  time[fs]=61.00000
   C -0.717665466E+01  0.125711184E-02 -0.249087140E+00
   C  0.686246503E+01 -0.278277647E+00  0.137827244E+00
   H -0.312117735E+02 -0.352356430E+01  0.297825799E+01
   H  0.300439098E+02  0.341287253E+01 -0.935510752E+00
     4
 # iter = 61500  time[fs]=61.50000
   C -0.727273041E+01  0.210392597E-02 -0.252413805E+00
   C  0.695448478E+01 -0.282008647E+00  0.139907435E+00
   H -0.315815703E+02 -0.356507922E+01  0.301405943E+01
   H  0.303969578E+02  0.345340967E+01 -0.946782487E+00
     4
 # iter = 62000  time[fs]=62.00000
   C -0.736888461E+01  0.295285129E-02 -0.255743288E+00
   C  0.704658243E+01 -0.285741907E+00  0.141989953E+00
   H -0.319514543E+02 -0.360660521E+01  0.304987058E+01
   H  0.307500994E+02  0.349395968E+01 -0.958058043E+00
     4
 # iter = 62500  time[fs]=62.50000
   C -0.746511521E+01  0.380384006E-02 -0.259075520E+00
   C  0.713875595E+01 -0.289477379E+00  0.144074740E+00
   H -0.323214233E+02 -0.364814204E+01  0.308569122E+01
   H  0.311033326E+02  0.353452230E+01 -0.969337338E+00
     4
 # iter = 63000  time[fs]=63.00000
   C -0.756142025E+01  0.465684610E-02 -0.262410433E+00
   C  0.723100338E+01 -0.293215013E+00  0.146161739E+00
   H -0.326914756E+02 -0.368968945E+01  0.312152116E+01
   H  0.314566553E+02  0.357509724E+01 -0.980620293E+00
     4
 # iter = 63500  time[fs]=63.50000
   C -0.765779782E+01  0.551182471E-02 -0.265747965E+00
   C  0.732332283E+01 -0.296954761E+00  0.148250896E+00
   H -0.330616092E+02 -0.373124723E+01  0.315736020E+01
   H  0.318100655E+02  0.361568424E+01 -0.991906831E+00
     4
 # iter = 64000  time[fs]=64.00000
   C -0.775424609E+01  0.636873264E-02 -0.269088051E+00
   C  0.741571249E+01 -0.300696577E+00  0.150342160E+00
   H -0.334318224E+02 -0.377281516E+01  0.319320813E+01
   H  0.321635614E+02  0.365628306E+01 -0.100319688E+01
     4
 # iter = 64500  time[fs]=64.50000
   C -0.785076332E+01  0.722752802E-02 -0.272430633E+00
   C  0.750817059E+01 -0.304440417E+00  0.152435480E+00
   H -0.338021135E+02 -0.381439300E+01  0.322906477E+01
   H  0.325171411E+02  0.369689343E+01 -0.101449036E+01
     4
 # iter = 65000  time[fs]=65.00000
   C -0.794734779E+01  0.808817029E-02 -0.275775653E+00
   C  0.760069546E+01 -0.308186237E+00  0.154530807E+00
   H -0.341724809E+02 -0.385598057E+01  0.326492995E+01
   H  0.328708029E+02  0.373751513E+01 -0.102578721E+01
     4
 # iter = 65500  time[fs]=65.50000
   C -0.804399789E+01  0.895062015E-02 -0.279123054E+00
   C  0.769328547E+01 -0.311933996E+00  0.156628094E+00
   H -0.345429227E+02 -0.389757765E+01  0.330080347E+01
   H  0.332245449E+02  0.377814792E+01 -0.103708736E+01
     4
 # iter = 66000  time[fs]=66.00000
   C -0.814071201E+01  0.981483951E-02 -0.282472783E+00
   C  0.778593905E+01 -0.315683654E+00  0.158727296E+00
   H -0.349134377E+02 -0.393918405E+01  0.333668519E+01
   H  0.335783656E+02  0.381879157E+01 -0.104839074E+01
     4
 # iter = 66500  time[fs]=66.50000
   C -0.823748865E+01  0.106807915E-01 -0.285824788E+00
   C  0.787865468E+01 -0.319435170E+00  0.160828370E+00
   H -0.352840241E+02 -0.398079958E+01  0.337257491E+01
   H  0.339322633E+02  0.385944587E+01 -0.105969728E+01
     4
 # iter = 67000  time[fs]=67.00000
   C -0.833432634E+01  0.115484402E-01 -0.289179017E+00
   C  0.797143090E+01 -0.323188507E+00  0.162931272E+00
   H -0.356546805E+02 -0.402242406E+01  0.340847250E+01
   H  0.342862365E+02  0.390011060E+01 -0.107100694E+01
     4
 # iter = 67500  time[fs]=67.50000
   C -0.843122365E+01  0.124177511E-01 -0.292535422E+00
   C  0.806426631E+01 -0.326943628E+00  0.165035962E+00
   H -0.360254056E+02 -0.406405730E+01  0.344437779E+01
   H  0.346402836E+02  0.394078556E+01 -0.108231964E+01
     4
 # iter = 68000  time[fs]=68.00000
   C -0.852817921E+01  0.132886904E-01 -0.295893955E+00
   C  0.815715953E+01 -0.330700497E+00  0.167142401E+00
   H -0.363961979E+02 -0.410569914E+01  0.348029063E+01
   H  0.349944031E+02  0.398147056E+01 -0.109363533E+01
     4
 # iter = 68500  time[fs]=68.50000
   C -0.862519170E+01  0.141612253E-01 -0.299254572E+00
   C  0.825010925E+01 -0.334459080E+00  0.169250550E+00
   H -0.367670560E+02 -0.414734941E+01  0.351621087E+01
   H  0.353485936E+02  0.402216539E+01 -0.110495395E+01
     4
 # iter = 69000  time[fs]=69.00000
   C -0.872225982E+01  0.150353243E-01 -0.302617227E+00
   C  0.834311420E+01 -0.338219342E+00  0.171360372E+00
   H -0.371379787E+02 -0.418900794E+01  0.355213838E+01
   H  0.357028537E+02  0.406286986E+01 -0.111627544E+01
     4
 # iter = 69500  time[fs]=69.50000
   C -0.881938236E+01  0.159109564E-01 -0.305981878E+00
   C  0.843617313E+01 -0.341981250E+00  0.173471831E+00
   H -0.375089648E+02 -0.423067457E+01  0.358807301E+01
   H  0.360571821E+02  0.410358381E+01 -0.112759976E+01
     4
 # iter = 70000  time[fs]=70.00000
   C -0.891655809E+01  0.167880918E-01 -0.309348482E+00
   C  0.852928486E+01 -0.345744773E+00  0.175584892E+00
   H -0.378800129E+02 -0.427234916E+01  0.362401462E+01
   H  0.364115775E+02  0.414430704E+01 -0.113892685E+01
     4
 # iter = 70500  time[fs]=70.50000
   C -0.901378587E+01  0.176667013E-01 -0.312717001E+00
   C  0.862244824E+01 -0.349509879E+00  0.177699522E+00
   H -0.382511220E+02 -0.431403155E+01  0.365996310E+01
   H  0.367660385E+02  0.418503939E+01 -0.115025665E+01
     4
 # iter = 71000  time[fs]=71.00000
   C -0.911106457E+01  0.185467567E-01 -0.316087393E+00
   C  0.871566214E+01 -0.353276540E+00  0.179815688E+00
   H -0.386222907E+02 -0.435572159E+01  0.369591831E+01
   H  0.371205640E+02  0.422578068E+01 -0.116158913E+01
     4
 # iter = 71500  time[fs]=71.50000
   C -0.920839310E+01  0.194282306E-01 -0.319459623E+00
   C  0.880892549E+01 -0.357044724E+00  0.181933359E+00
   H -0.389935181E+02 -0.439741915E+01  0.373188012E+01
   H  0.374751527E+02  0.426653076E+01 -0.117292422E+01
     4
 # iter = 72000  time[fs]=72.00000
   C -0.930577040E+01  0.203110963E-01 -0.322833652E+00
   C  0.890223724E+01 -0.360814404E+00  0.184052503E+00
   H -0.393648030E+02 -0.443912408E+01  0.376784842E+01
   H  0.378298034E+02  0.430728946E+01 -0.118426190E+01
     4
 # iter = 72500  time[fs]=72.50000
   C -0.940319545E+01  0.211953278E-01 -0.326209445E+00
   C  0.899559636E+01 -0.364585553E+00  0.186173091E+00
   H -0.397361444E+02 -0.448083626E+01  0.380382309E+01
   H  0.381845151E+02  0.434805664E+01 -0.119560210E+01
     4
 # iter = 73000  time[fs]=73.00000
   C -0.950066727E+01  0.220808998E-01 -0.329586968E+00
   C  0.908900188E+01 -0.368358142E+00  0.188295095E+00
   H -0.401075411E+02 -0.452255555E+01  0.383980402E+01
   H  0.385392866E+02  0.438883213E+01 -0.120694478E+01
     4
 # iter = 73500  time[fs]=73.50000
   C -0.959818488E+01  0.229677877E-01 -0.332966186E+00
   C  0.918245284E+01 -0.372132147E+00  0.190418485E+00
   H -0.404789923E+02 -0.456428183E+01  0.387579110E+01
   H  0.388941168E+02  0.442961580E+01 -0.121828991E+01
     4
 # iter = 74000  time[fs]=74.00000
   C -0.969574736E+01  0.238559677E-01 -0.336347067E+00
   C  0.927594832E+01 -0.375907540E+00  0.192543235E+00
   H -0.408504969E+02 -0.460601497E+01  0.391178421E+01
   H  0.392490047E+02  0.447040750E+01 -0.122963744E+01
     4
 # iter = 74500  time[fs]=74.50000
   C -0.979335381E+01  0.247454165E-01 -0.339729579E+00
   C  0.936948741E+01 -0.379684299E+00  0.194669319E+00
   H -0.412220540E+02 -0.464775485E+01  0.394778326E+01
   H  0.396039493E+02  0.451120709E+01 -0.124098733E+01
     4
 # iter = 75000  time[fs]=75.00000
   C -0.989100334E+01  0.256361114E-01 -0.343113692E+00
   C  0.946306924E+01 -0.383462397E+00  0.196796710E+00
   H -0.415936627E+02 -0.468950136E+01  0.398378813E+01
   H  0.399589495E+02  0.455201444E+01 -0.125233953E+01
     4
 # iter = 75500  time[fs]=75.50000
   C -0.998869511E+01  0.265280304E-01 -0.346499375E+00
   C  0.955669297E+01 -0.387241813E+00  0.198925384E+00
   H -0.419653220E+02 -0.473125438E+01  0.401979874E+01
   H  0.403140044E+02  0.459282941E+01 -0.126369402E+01
     4
 # iter = 76000  time[fs]=76.00000
   C -0.100864283E+02  0.274211519E-01 -0.349886599E+00
   C  0.965035777E+01 -0.391022522E+00  0.201055316E+00
   H -0.423370310E+02 -0.477301380E+01  0.405581498E+01
   H  0.406691131E+02  0.463365188E+01 -0.127505075E+01
     4
 # iter = 76500  time[fs]=76.50000
   C -0.101842021E+02  0.283154550E-01 -0.353275336E+00
   C  0.974406285E+01 -0.394804503E+00  0.203186483E+00
   H -0.427087890E+02 -0.481477951E+01  0.409183676E+01
   H  0.410242746E+02  0.467448172E+01 -0.128640968E+01
     4
 # iter = 77000  time[fs]=77.00000
   C -0.102820157E+02  0.292109194E-01 -0.356665558E+00
   C  0.983780743E+01 -0.398587734E+00  0.205318863E+00
   H -0.430805950E+02 -0.485655141E+01  0.412786399E+01
   H  0.413794880E+02  0.471531881E+01 -0.129777078E+01
     4
 # iter = 77500  time[fs]=77.50000
   C -0.103798683E+02  0.301075250E-01 -0.360057239E+00
   C  0.993159075E+01 -0.402372192E+00  0.207452432E+00
   H -0.434524483E+02 -0.489832939E+01  0.416389657E+01
   H  0.417347525E+02  0.475616303E+01 -0.130913402E+01
     4
 # iter = 78000  time[fs]=78.00000
   C -0.104777593E+02  0.310052526E-01 -0.363450351E+00
   C  0.100254121E+02 -0.406157859E+00  0.209587168E+00
   H -0.438243481E+02 -0.494011336E+01  0.419993442E+01
   H  0.420900672E+02  0.479701426E+01 -0.132049935E+01
     4
 # iter = 78500  time[fs]=78.50000
   C -0.105756879E+02  0.319040832E-01 -0.366844870E+00
   C  0.101192707E+02 -0.409944713E+00  0.211723052E+00
   H -0.441962936E+02 -0.498190321E+01  0.423597746E+01
   H  0.424454313E+02  0.483787239E+01 -0.133186676E+01
     4
 # iter = 79000  time[fs]=79.00000
   C -0.106736534E+02  0.328039984E-01 -0.370240771E+00
   C  0.102131660E+02 -0.413732735E+00  0.213860062E+00
   H -0.445682839E+02 -0.502369886E+01  0.427202559E+01
   H  0.428008439E+02  0.487873731E+01 -0.134323619E+01
     4
 # iter = 79500  time[fs]=79.50000
   C -0.107716551E+02  0.337049801E-01 -0.373638029E+00
   C  0.103070971E+02 -0.417521905E+00  0.215998178E+00
   H -0.449403185E+02 -0.506550020E+01  0.430807875E+01
   H  0.431563043E+02  0.491960890E+01 -0.135460762E+01
     4
 # iter = 80000  time[fs]=80.00000
   C -0.108696924E+02  0.346070110E-01 -0.377036622E+00
   C  0.104010636E+02 -0.421312205E+00  0.218137381E+00
   H -0.453123966E+02 -0.510730715E+01  0.434413684E+01
   H  0.435118118E+02  0.496048708E+01 -0.136598103E+01
