     4
 # iter = 25000  time[fs]=25.00000
   C -0.967748324E+00  0.279800893E-01  0.181497938E-01
   C  0.100646156E+01 -0.267045602E-01  0.319400733E-01
   H -0.531199652E+01  0.172436270E+00 -0.536703149E+00
   H  0.529684094E+01  0.425238282E+00  0.483046110E+00
     4
 # iter = 25500  time[fs]=25.50000
   C -0.101259931E+01  0.259895535E-01  0.194537885E-01
   C  0.104664223E+01 -0.313179435E-01  0.303417758E-01
   H -0.565162267E+01  0.171444783E+00 -0.578460983E+00
   H  0.560837758E+01  0.441703042E+00  0.505772316E+00
     4
 # iter = 26000  time[fs]=26.00000
   C -0.106129078E+01  0.231842244E-01  0.198806222E-01
   C  0.108870616E+01 -0.370919372E-01  0.277027751E-01
   H -0.600177457E+01  0.165193603E+00 -0.626206799E+00
   H  0.592004564E+01  0.453251281E+00  0.523619814E+00
     4
 # iter = 26500  time[fs]=26.50000
   C -0.111095143E+01  0.221941119E-01  0.220679456E-01
   C  0.113550760E+01 -0.409240258E-01  0.271109271E-01
   H -0.634577641E+01  0.169748144E+00 -0.663788924E+00
   H  0.624735767E+01  0.475922318E+00  0.552625894E+00
     4
 # iter = 27000  time[fs]=27.00000
   C -0.116122670E+01  0.231445795E-01  0.261482109E-01
   C  0.118697804E+01 -0.426512600E-01  0.287164446E-01
   H -0.668234836E+01  0.185889578E+00 -0.690356229E+00
   H  0.659059212E+01  0.510466052E+00  0.593538266E+00
     4
 # iter = 27500  time[fs]=27.50000
   C -0.121386698E+01  0.240704117E-01  0.301626537E-01
   C  0.124061278E+01 -0.445645609E-01  0.302173789E-01
   H -0.702305906E+01  0.201639170E+00 -0.717830285E+00
   H  0.693731207E+01  0.544868482E+00  0.634340686E+00
     4
 # iter = 28000  time[fs]=28.00000
   C -0.127006659E+01  0.235800347E-01  0.327253225E-01
   C  0.129459605E+01 -0.482831699E-01  0.299849402E-01
   H -0.737603062E+01  0.208519874E+00 -0.754638872E+00
   H  0.727864794E+01  0.570623278E+00  0.666524676E+00
     4
 # iter = 28500  time[fs]=28.50000
   C -0.132909045E+01  0.222297290E-01  0.343972687E-01
   C  0.134941262E+01 -0.531423413E-01  0.286755982E-01
   H -0.773753133E+01  0.209945459E+00 -0.797324195E+00
   H  0.761769079E+01  0.591125660E+00  0.693483483E+00
     4
 # iter = 29000  time[fs]=29.00000
   C -0.138940542E+01  0.213906280E-01  0.365536968E-01
   C  0.140651820E+01 -0.575225048E-01  0.279017539E-01
   H -0.809889161E+01  0.214303312E+00 -0.837459873E+00
   H  0.796255546E+01  0.614750263E+00  0.723589931E+00
     4
 # iter = 29500  time[fs]=29.50000
   C -0.145039266E+01  0.215341551E-01  0.396695710E-01
   C  0.146632709E+01 -0.608607901E-01  0.282200703E-01
   H -0.845697450E+01  0.224485877E+00 -0.872119773E+00
   H  0.831588996E+01  0.644375659E+00  0.759720899E+00
     4
 # iter = 30000  time[fs]=30.00000
   C -0.151258690E+01  0.219914865E-01  0.430791640E-01
   C  0.152792896E+01 -0.639331363E-01  0.288492292E-01
   H -0.881564016E+01  0.236422002E+00 -0.905346065E+00
   H  0.867339925E+01  0.675914468E+00  0.797787419E+00
     4
 # iter = 30500  time[fs]=30.50000
   C -0.157661211E+01  0.220171968E-01  0.460397273E-01
   C  0.159033566E+01 -0.676061926E-01  0.289179072E-01
   H -0.917924271E+01  0.245572037E+00 -0.941652968E+00
   H  0.903034392E+01  0.704812052E+00  0.833233387E+00
     4
 # iter = 31000  time[fs]=31.00000
   C -0.164237161E+01  0.215983630E-01  0.485406257E-01
   C  0.165342931E+01 -0.718878816E-01  0.284141060E-01
   H -0.954768306E+01  0.251868681E+00 -0.981084990E+00
   H  0.938648336E+01  0.730990075E+00  0.865979131E+00
     4
 # iter = 31500  time[fs]=31.50000
   C -0.170928445E+01  0.212170475E-01  0.510658772E-01
   C  0.171768264E+01 -0.762060283E-01  0.279064377E-01
   H -0.991785691E+01  0.258266399E+00 -0.102066716E+01
   H  0.974462082E+01  0.757394916E+00  0.898969810E+00
     4
 # iter = 32000  time[fs]=32.00000
   C -0.177696291E+01  0.211714584E-01  0.539153771E-01
   C  0.178336145E+01 -0.802048264E-01  0.277475874E-01
   H -0.102877997E+02  0.266595758E+00 -0.105855059E+01
   H  0.101064511E+02  0.785849440E+00  0.934027173E+00
     4
 # iter = 32500  time[fs]=32.50000
   C -0.184545495E+01  0.213324822E-01  0.569614777E-01
   C  0.185023811E+01 -0.840304486E-01  0.277886417E-01
   H -0.106581719E+02  0.276076688E+00 -0.109549901E+01
   H  0.104710698E+02  0.815565256E+00  0.970361795E+00
     4
 # iter = 33000  time[fs]=33.00000
   C -0.191495102E+01  0.214360270E-01  0.599413597E-01
   C  0.191793374E+01 -0.879879418E-01  0.277221399E-01
   H -0.110304713E+02  0.285104078E+00 -0.113310289E+01
   H  0.108367590E+02  0.844929210E+00  0.100635957E+01
     4
 # iter = 33500  time[fs]=33.50000
   C -0.198546270E+01  0.214037297E-01  0.627777615E-01
   C  0.198629377E+01 -0.921648508E-01  0.274584040E-01
   H -0.114050720E+02  0.293206549E+00 -0.117182036E+01
   H  0.112029460E+02  0.873463180E+00  0.104154150E+01
     4
 # iter = 34000  time[fs]=34.00000
   C -0.205681876E+01  0.213461394E-01  0.655821857E-01
   C  0.205539103E+01 -0.964274406E-01  0.271292776E-01
   H -0.117812040E+02  0.301065902E+00 -0.121095754E+01
   H  0.115702216E+02  0.901843462E+00  0.107658308E+01
     4
 # iter = 34500  time[fs]=34.50000
   C -0.212885578E+01  0.213714404E-01  0.684636458E-01
   C  0.212530064E+01 -0.100645110E+00  0.268636815E-01
   H -0.121581201E+02  0.309348885E+00 -0.124983674E+01
   H  0.119391699E+02  0.930731818E+00  0.111214533E+01
     4
 # iter = 35000  time[fs]=35.00000
   C -0.220152638E+01  0.214766820E-01  0.714199144E-01
   C  0.219597194E+01 -0.104817987E+00  0.266599878E-01
   H -0.125357595E+02  0.318042919E+00 -0.128846054E+01
   H  0.123097028E+02  0.960110769E+00  0.114821008E+01
     4
 # iter = 35500  time[fs]=35.50000
   C -0.227484820E+01  0.215982216E-01  0.743879821E-01
   C  0.226728713E+01 -0.109017706E+00  0.264452249E-01
   H -0.129144393E+02  0.326764276E+00 -0.132720357E+01
   H  0.126813669E+02  0.989591886E+00  0.118438827E+01
     4
 # iter = 36000  time[fs]=36.00000
   C -0.234881422E+01  0.217010302E-01  0.773333737E-01
   C  0.233916570E+01 -0.113282576E+00  0.261798823E-01
   H -0.132943075E+02  0.335303595E+00 -0.136626684E+01
   H  0.130538893E+02  0.101896157E+01  0.122046571E+01
     4
 # iter = 36500  time[fs]=36.50000
   C -0.242337192E+01  0.217991057E-01  0.802705727E-01
   C  0.241158797E+01 -0.117593605E+00  0.258818733E-01
   H -0.136752182E+02  0.343750598E+00 -0.140555297E+01
   H  0.134273015E+02  0.104830579E+01  0.125652783E+01
     4
 # iter = 37000  time[fs]=37.00000
   C -0.249846063E+01  0.219177787E-01  0.832253357E-01
   C  0.248455053E+01 -0.121918710E+00  0.255823084E-01
   H -0.140569611E+02  0.352263878E+00 -0.144489629E+01
   H  0.138017086E+02  0.107777973E+01  0.129272930E+01
     4
 # iter = 37500  time[fs]=37.50000
   C -0.257404218E+01  0.220627412E-01  0.862037298E-01
   C  0.255802964E+01 -0.126249042E+00  0.252891596E-01
   H -0.144394500E+02  0.360881759E+00 -0.148425199E+01
   H  0.141770995E+02  0.110741850E+01  0.132910477E+01
     4
 # iter = 38000  time[fs]=38.00000
   C -0.265009722E+01  0.222234509E-01  0.891955434E-01
   C  0.263198490E+01 -0.130594969E+00  0.249912623E-01
   H -0.148227020E+02  0.369543124E+00 -0.152367515E+01
   H  0.145533675E+02  0.113715795E+01  0.136558964E+01
     4
 # iter = 38500  time[fs]=38.50000
   C -0.272660729E+01  0.223907945E-01  0.921919552E-01
   C  0.270637981E+01 -0.134965336E+00  0.246790498E-01
   H -0.152067288E+02  0.378195332E+00 -0.156321286E+01
   H  0.149304175E+02  0.116694262E+01  0.140212805E+01
     4
 # iter = 39000  time[fs]=39.00000
   C -0.280354723E+01  0.225644998E-01  0.951929515E-01
   C  0.278119019E+01 -0.139358752E+00  0.243532573E-01
   H -0.155914916E+02  0.386839514E+00 -0.160285882E+01
   H  0.153082115E+02  0.119677107E+01  0.143871816E+01
     4
 # iter = 39500  time[fs]=39.50000
   C -0.288088985E+01  0.227482161E-01  0.982024100E-01
   C  0.285639829E+01 -0.143769348E+00  0.240191536E-01
   H -0.159769303E+02  0.395500546E+00 -0.164258336E+01
   H  0.156867381E+02  0.122666577E+01  0.147538211E+01
     4
 # iter = 40000  time[fs]=40.00000
   C -0.295861186E+01  0.229434331E-01  0.101222023E+00
   C  0.293198543E+01 -0.148193905E+00  0.236794110E-01
   H -0.163630006E+02  0.404189919E+00 -0.168237051E+01
   H  0.160659747E+02  0.125663598E+01  0.151212880E+01
     4
 # iter = 40500  time[fs]=40.50000
   C -0.303669444E+01  0.231487555E-01  0.104250576E+00
   C  0.300793106E+01 -0.152632694E+00  0.233332582E-01
   H -0.167496784E+02  0.412901331E+00 -0.172222241E+01
   H  0.164458836E+02  0.128667329E+01  0.154894953E+01
     4
 # iter = 41000  time[fs]=41.00000
   C -0.311512064E+01  0.233623623E-01  0.107286408E+00
   C  0.308421544E+01 -0.157086578E+00  0.229793711E-01
   H -0.171369442E+02  0.421625717E+00 -0.176214425E+01
   H  0.168264261E+02  0.131676667E+01  0.158583296E+01
     4
 # iter = 41500  time[fs]=41.50000
   C -0.319387370E+01  0.235835453E-01  0.110328954E+00
   C  0.316082140E+01 -0.161555204E+00  0.226176814E-01
   H -0.175247739E+02  0.430360667E+00 -0.180213479E+01
   H  0.172075723E+02  0.134691188E+01  0.162277457E+01
     4
 # iter = 42000  time[fs]=42.00000
   C -0.327293731E+01  0.238123586E-01  0.113378393E+00
   C  0.323773377E+01 -0.166037401E+00  0.222489700E-01
   H -0.179131404E+02  0.439108295E+00 -0.184218852E+01
   H  0.175892986E+02  0.137710930E+01  0.165977449E+01
     4
 # iter = 42500  time[fs]=42.50000
   C -0.335229632E+01  0.240487749E-01  0.116434813E+00
   C  0.331493832E+01 -0.170532168E+00  0.218738795E-01
   H -0.183020189E+02  0.447870095E+00 -0.188230074E+01
   H  0.179715823E+02  0.140735881E+01  0.169683235E+01
     4
 # iter = 43000  time[fs]=43.00000
   C -0.343193695E+01  0.242924293E-01  0.119497950E+00
   C  0.339242136E+01 -0.175038966E+00  0.214926172E-01
   H -0.186913881E+02  0.456645390E+00 -0.192246915E+01
   H  0.183543999E+02  0.143765821E+01  0.173394572E+01
     4
 # iter = 43500  time[fs]=43.50000
   C -0.351184641E+01  0.245428515E-01  0.122567424E+00
   C  0.347016995E+01 -0.179557441E+00  0.211052294E-01
   H -0.190812289E+02  0.465432756E+00 -0.196269234E+01
   H  0.187377289E+02  0.146800464E+01  0.177111153E+01
     4
 # iter = 44000  time[fs]=44.00000
   C -0.359201269E+01  0.247996771E-01  0.125642952E+00
   C  0.354817206E+01 -0.184087172E+00  0.207118534E-01
   H -0.194715227E+02  0.474231322E+00 -0.200296853E+01
   H  0.191215481E+02  0.149839587E+01  0.180832735E+01
     4
 # iter = 44500  time[fs]=44.50000
   C -0.367242441E+01  0.250626519E-01  0.128724351E+00
   C  0.362641651E+01 -0.188627659E+00  0.203127237E-01
   H -0.198622516E+02  0.483040803E+00 -0.204329552E+01
   H  0.195058386E+02  0.152883036E+01  0.184559142E+01
     4
 # iter = 45000  time[fs]=45.00000
   C -0.375307091E+01  0.253315476E-01  0.131811458E+00
   C  0.370489285E+01 -0.193178420E+00  0.199080761E-01
   H -0.202533986E+02  0.491860995E+00 -0.208367114E+01
   H  0.198905822E+02  0.155930669E+01  0.188290215E+01
     4
 # iter = 45500  time[fs]=45.50000
   C -0.383394221E+01  0.256061212E-01  0.134904088E+00
   C  0.378359121E+01 -0.197739037E+00  0.194981015E-01
   H -0.206449477E+02  0.500691530E+00 -0.212409354E+01
   H  0.202757617E+02  0.158982335E+01  0.192025786E+01
     4
 # iter = 46000  time[fs]=46.00000
   C -0.391502891E+01  0.258861274E-01  0.138002049E+00
   C  0.386250229E+01 -0.202309131E+00  0.190829627E-01
   H -0.210368842E+02  0.509531957E+00 -0.216456107E+01
   H  0.206613609E+02  0.162037881E+01  0.195765685E+01
     4
 # iter = 46500  time[fs]=46.50000
   C -0.399632220E+01  0.261713379E-01  0.141105157E+00
   C  0.394161736E+01 -0.206888346E+00  0.186628185E-01
   H -0.214291938E+02  0.518381869E+00 -0.220507214E+01
   H  0.210473644E+02  0.165097165E+01  0.199509755E+01
     4
 # iter = 47000  time[fs]=47.00000
   C -0.407781374E+01  0.264615449E-01  0.144213247E+00
   C  0.402092818E+01 -0.211476333E+00  0.182378297E-01
   H -0.218218632E+02  0.527240923E+00 -0.224562520E+01
   H  0.214337574E+02  0.168160055E+01  0.203257848E+01
     4
 # iter = 47500  time[fs]=47.50000
   C -0.415949568E+01  0.267565546E-01  0.147326163E+00
   C  0.410042700E+01 -0.216072763E+00  0.178081523E-01
   H -0.222148796E+02  0.536108811E+00 -0.228621879E+01
   H  0.218205263E+02  0.171226429E+01  0.207009828E+01
     4
 # iter = 48000  time[fs]=48.00000
   C -0.424136060E+01  0.270561823E-01  0.150443754E+00
   C  0.418010649E+01 -0.220677323E+00  0.173739340E-01
   H -0.226082310E+02  0.544985228E+00 -0.232685149E+01
   H  0.222076580E+02  0.174296168E+01  0.210765563E+01
     4
 # iter = 48500  time[fs]=48.50000
   C -0.432340150E+01  0.273602521E-01  0.153565873E+00
   C  0.425995973E+01 -0.225289720E+00  0.169353143E-01
   H -0.230019059E+02  0.553869879E+00 -0.236752201E+01
   H  0.225951400E+02  0.177369160E+01  0.214524929E+01
     4
 # iter = 49000  time[fs]=49.00000
   C -0.440561176E+01  0.276685972E-01  0.156692380E+00
   C  0.433998017E+01 -0.229909678E+00  0.164924267E-01
   H -0.233958935E+02  0.562762481E+00 -0.240822909E+01
   H  0.229829605E+02  0.180445298E+01  0.218287805E+01
     4
 # iter = 49500  time[fs]=49.50000
   C -0.448798510E+01  0.279810604E-01  0.159823143E+00
   C  0.442016161E+01 -0.234536931E+00  0.160453994E-01
   H -0.237901834E+02  0.571662769E+00 -0.244897153E+01
   H  0.233711083E+02  0.183524479E+01  0.222054079E+01
     4
 # iter = 50000  time[fs]=50.00000
   C -0.457051558E+01  0.282974928E-01  0.162958034E+00
   C  0.450049818E+01 -0.239171228E+00  0.155943557E-01
   H -0.241847657E+02  0.580570490E+00 -0.248974820E+01
   H  0.237595726E+02  0.186606607E+01  0.225823641E+01
     4
 # iter = 50500  time[fs]=50.50000
   C -0.465319756E+01  0.286177530E-01  0.166096930E+00
   C  0.458098432E+01 -0.243812331E+00  0.151394135E-01
   H -0.245796311E+02  0.589485405E+00 -0.253055803E+01
   H  0.241483434E+02  0.189691590E+01  0.229596390E+01
     4
 # iter = 51000  time[fs]=51.00000
   C -0.473602571E+01  0.289417069E-01  0.169239716E+00
   C  0.466161473E+01 -0.248460014E+00  0.146806861E-01
   H -0.249747707E+02  0.598407286E+00 -0.257139996E+01
   H  0.245374109E+02  0.192779339E+01  0.233372227E+01
     4
 # iter = 51500  time[fs]=51.50000
   C -0.481899494E+01  0.292692268E-01  0.172386277E+00
   C  0.474238441E+01 -0.253114060E+00  0.142182818E-01
   H -0.253701759E+02  0.607335913E+00 -0.261227304E+01
   H  0.249267657E+02  0.195869770E+01  0.237151058E+01
     4
 # iter = 52000  time[fs]=52.00000
   C -0.490210042E+01  0.296001915E-01  0.175536507E+00
   C  0.482328858E+01 -0.257774263E+00  0.137523047E-01
   H -0.257658386E+02  0.616271079E+00 -0.265317630E+01
   H  0.253163993E+02  0.198962803E+01  0.240932793E+01
     4
 # iter = 52500  time[fs]=52.50000
   C -0.498533757E+01  0.299344857E-01  0.178690302E+00
   C  0.490432272E+01 -0.262440428E+00  0.132828547E-01
   H -0.261617510E+02  0.625212584E+00 -0.269410885E+01
   H  0.257063029E+02  0.202058360E+01  0.244717346E+01
     4
 # iter = 53000  time[fs]=53.00000
   C -0.506870201E+01  0.302719995E-01  0.181847563E+00
   C  0.498548249E+01 -0.267112367E+00  0.128100280E-01
   H -0.265579057E+02  0.634160239E+00 -0.273506984E+01
   H  0.260964687E+02  0.205156368E+01  0.248504636E+01
     4
 # iter = 53500  time[fs]=53.50000
   C -0.515218958E+01  0.306126282E-01  0.185008194E+00
   C  0.506676379E+01 -0.271789903E+00  0.123339168E-01
   H -0.269542955E+02  0.643113862E+00 -0.277605844E+01
   H  0.264868889E+02  0.208256756E+01  0.252294584E+01
     4
 # iter = 54000  time[fs]=54.00000
   C -0.523579631E+01  0.309562720E-01  0.188172104E+00
   C  0.514816270E+01 -0.276472864E+00  0.118546097E-01
   H -0.273509137E+02  0.652073278E+00 -0.281707386E+01
   H  0.268775560E+02  0.211359458E+01  0.256087114E+01
     4
 # iter = 54500  time[fs]=54.50000
   C -0.531951842E+01  0.313028358E-01  0.191339205E+00
   C  0.522967548E+01 -0.281161087E+00  0.113721920E-01
   H -0.277477538E+02  0.661038322E+00 -0.285811534E+01
   H  0.272684631E+02  0.214464408E+01  0.259882155E+01
     4
 # iter = 55000  time[fs]=55.00000
   C -0.540335229E+01  0.316522286E-01  0.194509412E+00
   C  0.531129857E+01 -0.285854418E+00  0.108867458E-01
   H -0.281448094E+02  0.670008835E+00 -0.289918217E+01
   H  0.276596034E+02  0.217571544E+01  0.263679637E+01
     4
 # iter = 55500  time[fs]=55.50000
   C -0.548729448E+01  0.320043635E-01  0.197682643E+00
   C  0.539302854E+01 -0.290552705E+00  0.103983500E-01
   H -0.285420747E+02  0.678984662E+00 -0.294027365E+01
   H  0.280509703E+02  0.220680807E+01  0.267479494E+01
     4
 # iter = 56000  time[fs]=56.00000
   C -0.557134168E+01  0.323591576E-01  0.200858821E+00
   C  0.547486215E+01 -0.295255807E+00  0.990708075E-02
   H -0.289395439E+02  0.687965658E+00 -0.298138912E+01
   H  0.284425577E+02  0.223792140E+01  0.271281663E+01
     4
 # iter = 56500  time[fs]=56.50000
   C -0.565549074E+01  0.327165313E-01  0.204037869E+00
   C  0.555679628E+01 -0.299963587E+00  0.941301117E-02
   H -0.293372114E+02  0.696951682E+00 -0.302252793E+01
   H  0.288343595E+02  0.226905488E+01  0.275086081E+01
     4
 # iter = 57000  time[fs]=57.00000
   C -0.573973865E+01  0.330764088E-01  0.207219715E+00
   C  0.563882795E+01 -0.304675914E+00  0.891621185E-02
   H -0.297350720E+02  0.705942599E+00 -0.306368946E+01
   H  0.292263701E+02  0.230020798E+01  0.278892691E+01
     4
 # iter = 57500  time[fs]=57.50000
   C -0.582408251E+01  0.334387171E-01  0.210404289E+00
   C  0.572095430E+01 -0.309392661E+00  0.841675083E-02
   H -0.301331205E+02  0.714938280E+00 -0.310487314E+01
   H  0.296185838E+02  0.233138019E+01  0.282701435E+01
     4
 # iter = 58000  time[fs]=58.00000
   C -0.590851957E+01  0.338033867E-01  0.213591523E+00
   C  0.580317261E+01 -0.314113708E+00  0.791469369E-02
   H -0.305313522E+02  0.723938599E+00 -0.314607838E+01
   H  0.300109955E+02  0.236257103E+01  0.286512259E+01
     4
 # iter = 58500  time[fs]=58.50000
   C -0.599304715E+01  0.341703505E-01  0.216781352E+00
   C  0.588548026E+01 -0.318838939E+00  0.741010370E-02
   H -0.309297622E+02  0.732943436E+00 -0.318730465E+01
   H  0.304035999E+02  0.239378002E+01  0.290325111E+01
     4
 # iter = 59000  time[fs]=59.00000
   C -0.607766273E+01  0.345395446E-01  0.219973713E+00
   C  0.596787472E+01 -0.323568243E+00  0.690304193E-02
   H -0.313283461E+02  0.741952677E+00 -0.322855142E+01
   H  0.307963923E+02  0.242500672E+01  0.294139941E+01
     4
 # iter = 59500  time[fs]=59.50000
   C -0.616236386E+01  0.349109072E-01  0.223168545E+00
   C  0.605035360E+01 -0.328301511E+00  0.639356730E-02
   H -0.317270995E+02  0.750966210E+00 -0.326981817E+01
   H  0.311893678E+02  0.245625069E+01  0.297956699E+01
     4
 # iter = 60000  time[fs]=60.00000
   C -0.624714819E+01  0.352843794E-01  0.226365790E+00
   C  0.613291457E+01 -0.333038643E+00  0.588173674E-02
   H -0.321260183E+02  0.759983928E+00 -0.331110443E+01
   H  0.315825220E+02  0.248751151E+01  0.301775339E+01
     4
 # iter = 60500  time[fs]=60.50000
   C -0.633201348E+01  0.356599043E-01  0.229565392E+00
   C  0.621555542E+01 -0.337779537E+00  0.536760523E-02
   H -0.325250982E+02  0.769005729E+00 -0.335240972E+01
   H  0.319758504E+02  0.251878877E+01  0.305595816E+01
     4
 # iter = 61000  time[fs]=61.00000
   C -0.641695757E+01  0.360374274E-01  0.232767295E+00
   C  0.629827401E+01 -0.342524100E+00  0.485122592E-02
   H -0.329243356E+02  0.778031513E+00 -0.339373358E+01
   H  0.323693488E+02  0.255008209E+01  0.309418086E+01
     4
 # iter = 61500  time[fs]=61.50000
   C -0.650197837E+01  0.364168963E-01  0.235971446E+00
   C  0.638106829E+01 -0.347272239E+00  0.433265016E-02
   H -0.333237265E+02  0.787061184E+00 -0.343507558E+01
   H  0.327630131E+02  0.258139108E+01  0.313242107E+01
     4
 # iter = 62000  time[fs]=62.00000
   C -0.658707388E+01  0.367982603E-01  0.239177796E+00
   C  0.646393627E+01 -0.352023865E+00  0.381192762E-02
   H -0.337232674E+02  0.796094650E+00 -0.347643530E+01
   H  0.331568394E+02  0.261271539E+01  0.317067839E+01
     4
 # iter = 62500  time[fs]=62.50000
   C -0.667224218E+01  0.371814711E-01  0.242386293E+00
   C  0.654687607E+01 -0.356778894E+00  0.328910635E-02
   H -0.341229548E+02  0.805131822E+00 -0.351781232E+01
   H  0.335508240E+02  0.264405466E+01  0.320895242E+01
     4
 # iter = 63000  time[fs]=63.00000
   C -0.675748142E+01  0.375664817E-01  0.245596891E+00
   C  0.662988585E+01 -0.361537243E+00  0.276423284E-02
   H -0.345227852E+02  0.814172614E+00 -0.355920626E+01
   H  0.339449631E+02  0.267540855E+01  0.324724278E+01
     4
 # iter = 63500  time[fs]=63.50000
   C -0.684278982E+01  0.379532471E-01  0.248809543E+00
   C  0.671296385E+01 -0.366298832E+00  0.223735210E-02
   H -0.349227555E+02  0.823216943E+00 -0.360061672E+01
   H  0.343392531E+02  0.270677674E+01  0.328554911E+01
     4
 # iter = 64000  time[fs]=64.00000
   C -0.692816564E+01  0.383417239E-01  0.252024205E+00
   C  0.679610838E+01 -0.371063586E+00  0.170850769E-02
   H -0.353228625E+02  0.832264727E+00 -0.364204335E+01
   H  0.347336908E+02  0.273815891E+01  0.332387105E+01
     4
 # iter = 64500  time[fs]=64.50000
   C -0.701360724E+01  0.387318701E-01  0.255240832E+00
   C  0.687931779E+01 -0.375831430E+00  0.117774181E-02
   H -0.357231030E+02  0.841315891E+00 -0.368348579E+01
   H  0.351282728E+02  0.276955474E+01  0.336220827E+01
     4
 # iter = 65000  time[fs]=65.00000
   C -0.709911302E+01  0.391236455E-01  0.258459384E+00
   C  0.696259051E+01 -0.380602293E+00  0.645095348E-03
   H -0.361234742E+02  0.850370358E+00 -0.372494368E+01
   H  0.355229958E+02  0.280096396E+01  0.340056042E+01
     4
 # iter = 65500  time[fs]=65.50000
   C -0.718468143E+01  0.395170111E-01  0.261679819E+00
   C  0.704592501E+01 -0.385376106E+00  0.110607932E-03
   H -0.365239732E+02  0.859428057E+00 -0.376641671E+01
   H  0.359178568E+02  0.283238625E+01  0.343892720E+01
     4
 # iter = 66000  time[fs]=66.00000
   C -0.727031099E+01  0.399119291E-01  0.264902098E+00
   C  0.712931983E+01 -0.390152803E+00 -0.425682030E-03
   H -0.369245972E+02  0.868488916E+00 -0.380790453E+01
   H  0.363128528E+02  0.286382136E+01  0.347730828E+01
     4
 # iter = 66500  time[fs]=66.50000
   C -0.735600026E+01  0.403083634E-01  0.268126182E+00
   C  0.721277355E+01 -0.394932318E+00 -0.963737292E-03
   H -0.373253436E+02  0.877552868E+00 -0.384940685E+01
   H  0.367079809E+02  0.289526900E+01  0.351570337E+01
     4
 # iter = 67000  time[fs]=67.00000
   C -0.744174785E+01  0.407062787E-01  0.271352035E+00
   C  0.729628479E+01 -0.399714589E+00 -0.150352172E-02
   H -0.377262097E+02  0.886619847E+00 -0.389092335E+01
   H  0.371032383E+02  0.292672892E+01  0.355411217E+01
     4
 # iter = 67500  time[fs]=67.50000
   C -0.752755242E+01  0.411056413E-01  0.274579620E+00
   C  0.737985224E+01 -0.404499557E+00 -0.204500027E-02
   H -0.381271931E+02  0.895689789E+00 -0.393245375E+01
   H  0.374986222E+02  0.295820087E+01  0.359253440E+01
     4
 # iter = 68000  time[fs]=68.00000
   C -0.761341267E+01  0.415064182E-01  0.277808904E+00
   C  0.746347461E+01 -0.409287162E+00 -0.258813893E-02
   H -0.385282913E+02  0.904762633E+00 -0.397399776E+01
   H  0.378941301E+02  0.298968460E+01  0.363096980E+01
     4
 # iter = 68500  time[fs]=68.50000
   C -0.769932735E+01  0.419085779E-01  0.281039850E+00
   C  0.754715066E+01 -0.414077349E+00 -0.313290465E-02
   H -0.389295020E+02  0.913838318E+00 -0.401555510E+01
   H  0.382897594E+02  0.302117986E+01  0.366941808E+01
     4
 # iter = 69000  time[fs]=69.00000
   C -0.778529524E+01  0.423120896E-01  0.284272428E+00
   C  0.763087921E+01 -0.418870062E+00 -0.367926539E-02
   H -0.393308229E+02  0.922916786E+00 -0.405712550E+01
   H  0.386855075E+02  0.305268644E+01  0.370787900E+01
     4
 # iter = 69500  time[fs]=69.50000
   C -0.787131518E+01  0.427169237E-01  0.287506605E+00
   C  0.771465909E+01 -0.423665249E+00 -0.422718999E-02
   H -0.397322516E+02  0.931997982E+00 -0.409870871E+01
   H  0.390813722E+02  0.308420410E+01  0.374635231E+01
     4
 # iter = 70000  time[fs]=70.00000
   C -0.795738603E+01  0.431230514E-01  0.290742349E+00
   C  0.779848918E+01 -0.428462857E+00 -0.477664819E-02
   H -0.401337862E+02  0.941081850E+00 -0.414030447E+01
   H  0.394773510E+02  0.311573263E+01  0.378483775E+01
     4
 # iter = 70500  time[fs]=70.50000
   C -0.804350669E+01  0.435304449E-01  0.293979632E+00
   C  0.788236839E+01 -0.433262838E+00 -0.532761059E-02
   H -0.405354245E+02  0.950168337E+00 -0.418191254E+01
   H  0.398734417E+02  0.314727181E+01  0.382333510E+01
     4
 # iter = 71000  time[fs]=71.00000
   C -0.812967609E+01  0.439390772E-01  0.297218422E+00
   C  0.796629568E+01 -0.438065142E+00 -0.588004860E-02
   H -0.409371645E+02  0.959257392E+00 -0.422353268E+01
   H  0.402696421E+02  0.317882145E+01  0.386184413E+01
     4
 # iter = 71500  time[fs]=71.50000
   C -0.821589320E+01  0.443489223E-01  0.300458693E+00
   C  0.805027002E+01 -0.442869724E+00 -0.643393444E-02
   H -0.413390042E+02  0.968348965E+00 -0.426516466E+01
   H  0.406659501E+02  0.321038134E+01  0.390036461E+01
     4
 # iter = 72000  time[fs]=72.00000
   C -0.830215703E+01  0.447599548E-01  0.303700415E+00
   C  0.813429044E+01 -0.447676537E+00 -0.698924108E-02
   H -0.417409417E+02  0.977443007E+00 -0.430680825E+01
   H  0.410623637E+02  0.324195129E+01  0.393889633E+01
     4
 # iter = 72500  time[fs]=72.50000
   C -0.838846660E+01  0.451721502E-01  0.306943563E+00
   C  0.821835596E+01 -0.452485537E+00 -0.754594223E-02
   H -0.421429751E+02  0.986539472E+00 -0.434846323E+01
   H  0.414588807E+02  0.327353110E+01  0.397743908E+01
     4
 # iter = 73000  time[fs]=73.00000
   C -0.847482097E+01  0.455854847E-01  0.310188110E+00
   C  0.830246567E+01 -0.457296681E+00 -0.810401232E-02
   H -0.425451026E+02  0.995638313E+00 -0.439012940E+01
   H  0.418554992E+02  0.330512061E+01  0.401599264E+01
     4
 # iter = 73500  time[fs]=73.50000
   C -0.856121923E+01  0.459999352E-01  0.313434030E+00
   C  0.838661867E+01 -0.462109928E+00 -0.866342645E-02
   H -0.429473225E+02  0.100473949E+01 -0.443180654E+01
   H  0.422522174E+02  0.333671962E+01  0.405455683E+01
     4
 # iter = 74000  time[fs]=74.00000
   C -0.864766049E+01  0.464154792E-01  0.316681299E+00
   C  0.847081408E+01 -0.466925238E+00 -0.922416039E-02
   H -0.433496331E+02  0.101384295E+01 -0.447349446E+01
   H  0.426490334E+02  0.336832797E+01  0.409313146E+01
     4
 # iter = 74500  time[fs]=74.50000
   C -0.873414390E+01  0.468320951E-01  0.319929892E+00
   C  0.855505105E+01 -0.471742570E+00 -0.978619056E-02
   H -0.437520326E+02  0.102294865E+01 -0.451519297E+01
   H  0.430459454E+02  0.339994549E+01  0.413171632E+01
     4
 # iter = 75000  time[fs]=75.00000
   C -0.882066863E+01  0.472497618E-01  0.323179787E+00
   C  0.863932876E+01 -0.476561887E+00 -0.103494940E-01
   H -0.441545195E+02  0.103205657E+01 -0.455690186E+01
   H  0.434429516E+02  0.343157201E+01  0.417031124E+01
     4
 # iter = 75500  time[fs]=75.50000
   C -0.890723386E+01  0.476684586E-01  0.326430959E+00
   C  0.872364641E+01 -0.481383152E+00 -0.109140483E-01
   H -0.445570923E+02  0.104116664E+01 -0.459862095E+01
   H  0.438400503E+02  0.346320737E+01  0.420891604E+01
     4
 # iter = 76000  time[fs]=76.00000
   C -0.899383880E+01  0.480881656E-01  0.329683387E+00
   C  0.880800323E+01 -0.486206328E+00 -0.114798316E-01
   H -0.449597493E+02  0.105027885E+01 -0.464035008E+01
   H  0.442372399E+02  0.349485142E+01  0.424753055E+01
     4
 # iter = 76500  time[fs]=76.50000
   C -0.908048270E+01  0.485088636E-01  0.332937049E+00
   C  0.889239846E+01 -0.491031380E+00 -0.120468228E-01
   H -0.453624891E+02  0.105939314E+01 -0.468208905E+01
   H  0.446345188E+02  0.352650401E+01  0.428615459E+01
     4
 # iter = 77000  time[fs]=77.00000
   C -0.916716481E+01  0.489305337E-01  0.336191924E+00
   C  0.897683137E+01 -0.495858275E+00 -0.126150011E-01
   H -0.457653102E+02  0.106850949E+01 -0.472383770E+01
   H  0.450318854E+02  0.355816499E+01  0.432478800E+01
     4
 # iter = 77500  time[fs]=77.50000
   C -0.925388441E+01  0.493531576E-01  0.339447991E+00
   C  0.906130125E+01 -0.500686979E+00 -0.131843464E-01
   H -0.461682112E+02  0.107762785E+01 -0.476559587E+01
   H  0.454293382E+02  0.358983421E+01  0.436343063E+01
     4
 # iter = 78000  time[fs]=78.00000
   C -0.934064079E+01  0.497767175E-01  0.342705229E+00
   C  0.914580740E+01 -0.505517459E+00 -0.137548389E-01
   H -0.465711908E+02  0.108674819E+01 -0.480736338E+01
   H  0.458268756E+02  0.362151153E+01  0.440208231E+01
     4
 # iter = 78500  time[fs]=78.50000
   C -0.942743327E+01  0.502011960E-01  0.345963620E+00
   C  0.923034915E+01 -0.510349683E+00 -0.143264594E-01
   H -0.469742475E+02  0.109587048E+01 -0.484914009E+01
   H  0.462244963E+02  0.365319683E+01  0.444074290E+01
     4
 # iter = 79000  time[fs]=79.00000
   C -0.951426120E+01  0.506265765E-01  0.349223144E+00
   C  0.931492585E+01 -0.515183623E+00 -0.148991893E-01
   H -0.473773802E+02  0.110499468E+01 -0.489092583E+01
   H  0.466221987E+02  0.368488995E+01  0.447941223E+01
     4
 # iter = 79500  time[fs]=79.50000
   C -0.960112391E+01  0.510528423E-01  0.352483782E+00
   C  0.939953685E+01 -0.520019246E+00 -0.154730103E-01
   H -0.477805874E+02  0.111412077E+01 -0.493272046E+01
   H  0.470199816E+02  0.371659079E+01  0.451809018E+01
     4
 # iter = 80000  time[fs]=80.00000
   C -0.968802079E+01  0.514799777E-01  0.355745516E+00
   C  0.948418154E+01 -0.524856525E+00 -0.160479045E-01
   H -0.481838680E+02  0.112324871E+01 -0.497452383E+01
   H  0.474178436E+02  0.374829920E+01  0.455677659E+01
