     4
 # iter = 25000  time[fs]=25.00000
   C -0.101003895E+01 -0.336694366E-01  0.788196280E-02
   C  0.985118425E+00 -0.230264489E-01  0.356004987E-01
   H -0.534000749E+01  0.779489324E-01  0.293213172E+00
   H  0.539282903E+01  0.416743307E+00  0.271183136E+00
     4
 # iter = 25500  time[fs]=25.50000
   C -0.105847731E+01 -0.362222434E-01  0.592758899E-02
   C  0.102567218E+01 -0.272651159E-01  0.345004715E-01
   H -0.568592331E+01  0.745406402E-01  0.303151864E+00
   H  0.570442593E+01  0.432453809E+00  0.278326829E+00
     4
 # iter = 26000  time[fs]=26.00000
   C -0.111087971E+01 -0.397576496E-01  0.295330775E-02
   C  0.106822997E+01 -0.325316898E-01  0.324121341E-01
   H -0.604264721E+01  0.658289352E-01  0.307976479E+00
   H  0.601597785E+01  0.443220750E+00  0.280310159E+00
     4
 # iter = 26500  time[fs]=26.50000
   C -0.116415961E+01 -0.414314240E-01  0.180450860E-02
   C  0.111554745E+01 -0.358163971E-01  0.323439533E-01
   H -0.639346777E+01  0.678825966E-01  0.323734378E+00
   H  0.634302741E+01  0.465087440E+00  0.293199640E+00
     4
 # iter = 27000  time[fs]=27.00000
   C -0.121794311E+01 -0.410985331E-01  0.262754399E-02
   C  0.116753790E+01 -0.369705511E-01  0.344430496E-01
   H -0.673707247E+01  0.814872333E-01  0.351193595E+00
   H  0.668587888E+01  0.498806924E+00  0.317768853E+00
     4
 # iter = 27500  time[fs]=27.50000
   C -0.127412483E+01 -0.408670338E-01  0.331578296E-02
   C  0.122174567E+01 -0.382337232E-01  0.364681138E-01
   H -0.708499969E+01  0.946694046E-01  0.378366171E+00
   H  0.703211767E+01  0.532367762E+00  0.342024622E+00
     4
 # iter = 28000  time[fs]=28.00000
   C -0.133400029E+01 -0.422281025E-01  0.237957346E-02
   C  0.127638833E+01 -0.411903587E-01  0.368329245E-01
   H -0.744534662E+01  0.989563620E-01  0.396766781E+00
   H  0.737289207E+01  0.557265743E+00  0.357478336E+00
     4
 # iter = 28500  time[fs]=28.50000
   C -0.139678596E+01 -0.445756135E-01  0.426633698E-03
   C  0.133192548E+01 -0.451999331E-01  0.361762662E-01
   H -0.781436300E+01  0.977643064E-01  0.409800381E+00
   H  0.771130684E+01  0.576897808E+00  0.367539943E+00
     4
 # iter = 29000  time[fs]=29.00000
   C -0.146083812E+01 -0.464265116E-01 -0.105837588E-02
   C  0.138976388E+01 -0.486913266E-01  0.360675630E-01
   H -0.818336479E+01  0.994820946E-01  0.425845845E+00
   H  0.805548757E+01  0.599640008E+00  0.380596569E+00
     4
 # iter = 29500  time[fs]=29.50000
   C -0.152549786E+01 -0.472676744E-01 -0.156076492E-02
   C  0.145029789E+01 -0.511216150E-01  0.370480777E-01
   H -0.854920197E+01  0.107003949E+00  0.447788724E+00
   H  0.840809131E+01  0.628372133E+00  0.399537796E+00
     4
 # iter = 30000  time[fs]=30.00000
   C -0.159134878E+01 -0.478149300E-01 -0.179485381E-02
   C  0.151263354E+01 -0.532508673E-01  0.383561260E-01
   H -0.891572234E+01  0.116261025E+00  0.471552661E+00
   H  0.876483087E+01  0.659007884E+00  0.420286125E+00
     4
 # iter = 30500  time[fs]=30.50000
   C -0.165907025E+01 -0.488671693E-01 -0.255808960E-02
   C  0.157580220E+01 -0.559269372E-01  0.391423110E-01
   H -0.928726914E+01  0.122715805E+00  0.492593517E+00
   H  0.912097342E+01  0.686993558E+00  0.438295670E+00
     4
 # iter = 31000  time[fs]=31.00000
   C -0.172856477E+01 -0.504346697E-01 -0.385937109E-02
   C  0.163968352E+01 -0.591610563E-01  0.393939468E-01
   H -0.966373447E+01  0.126302412E+00  0.510839472E+00
   H  0.947628370E+01  0.712251610E+00  0.453495738E+00
     4
 # iter = 31500  time[fs]=31.50000
   C -0.179921264E+01 -0.519949035E-01 -0.517486303E-02
   C  0.170473297E+01 -0.623991971E-01  0.396636960E-01
   H -0.100420069E+02  0.129976228E+00  0.529240548E+00
   H  0.983356933E+01  0.737729079E+00  0.468839411E+00
     4
 # iter = 32000  time[fs]=32.00000
   C -0.187060193E+01 -0.532237709E-01 -0.617923394E-02
   C  0.177120521E+01 -0.652976514E-01  0.402939858E-01
   H -0.104201156E+02  0.135568726E+00  0.549623413E+00
   H  0.101945287E+02  0.765249420E+00  0.486155547E+00
     4
 # iter = 32500  time[fs]=32.50000
   C -0.194278966E+01 -0.542578290E-01 -0.700788711E-02
   C  0.183887504E+01 -0.680011782E-01  0.411388541E-01
   H -0.107987150E+02  0.142300910E+00  0.571204772E+00
   H  0.105582608E+02  0.794024775E+00  0.504661174E+00
     4
 # iter = 33000  time[fs]=33.00000
   C -0.201598601E+01 -0.553793163E-01 -0.794198170E-02
   C  0.190737045E+01 -0.708089652E-01  0.418979876E-01
   H -0.111792977E+02  0.148568734E+00  0.592376714E+00
   H  0.109230501E+02  0.822442474E+00  0.522748044E+00
     4
 # iter = 33500  time[fs]=33.50000
   C -0.209020805E+01 -0.566706296E-01 -0.906290520E-02
   C  0.197653827E+01 -0.738081875E-01  0.424831621E-01
   H -0.115622331E+02  0.153901662E+00  0.612665193E+00
   H  0.112883264E+02  0.850024817E+00  0.539942446E+00
     4
 # iter = 34000  time[fs]=34.00000
   C -0.216527558E+01 -0.580108654E-01 -0.102488112E-01
   C  0.204644703E+01 -0.768703573E-01  0.430218883E-01
   H -0.119467472E+02  0.158982130E+00  0.632749448E+00
   H  0.116546823E+02  0.877448468E+00  0.556924648E+00
     4
 # iter = 34500  time[fs]=34.50000
   C -0.224101650E+01 -0.592818535E-01 -0.113806497E-01
   C  0.211716783E+01 -0.798698585E-01  0.436388727E-01
   H -0.123320893E+02  0.164477453E+00  0.653293879E+00
   H  0.120227037E+02  0.905375522E+00  0.574360019E+00
     4
 # iter = 35000  time[fs]=35.00000
   C -0.231738340E+01 -0.604853102E-01 -0.124593170E-01
   C  0.218864950E+01 -0.828082101E-01  0.443317487E-01
   H -0.127181955E+02  0.170375633E+00  0.674283829E+00
   H  0.123923036E+02  0.933788802E+00  0.592234373E+00
     4
 # iter = 35500  time[fs]=35.50000
   C -0.239439867E+01 -0.616884763E-01 -0.135512896E-01
   C  0.226077575E+01 -0.857564154E-01  0.450287233E-01
   H -0.131053798E+02  0.176293513E+00  0.695333707E+00
   H  0.127630301E+02  0.962300156E+00  0.610162297E+00
     4
 # iter = 36000  time[fs]=36.00000
   C -0.247205785E+01 -0.629278936E-01 -0.146923967E-01
   C  0.233346676E+01 -0.887529116E-01  0.456906235E-01
   H -0.134937877E+02  0.182022233E+00  0.716232422E+00
   H  0.131346112E+02  0.990696235E+00  0.627932949E+00
     4
 # iter = 36500  time[fs]=36.50000
   C -0.255030727E+01 -0.641873987E-01 -0.158658103E-01
   C  0.240670211E+01 -0.917802346E-01  0.463342281E-01
   H -0.138832709E+02  0.187651942E+00  0.737068067E+00
   H  0.135070793E+02  0.101906324E+01  0.645634837E+00
     4
 # iter = 37000  time[fs]=37.00000
   C -0.262908423E+01 -0.654387189E-01 -0.170426373E-01
   C  0.248047734E+01 -0.948080794E-01  0.469892030E-01
   H -0.142736168E+02  0.193341616E+00  0.757997721E+00
   H  0.138805403E+02  0.104755655E+01  0.663425464E+00
     4
 # iter = 37500  time[fs]=37.50000
   C -0.270835010E+01 -0.666748255E-01 -0.182152703E-01
   C  0.255476832E+01 -0.978286781E-01  0.476627201E-01
   H -0.146647375E+02  0.199129940E+00  0.779058317E+00
   H  0.142549837E+02  0.107621148E+01  0.681342089E+00
     4
 # iter = 38000  time[fs]=38.00000
   C -0.278808633E+01 -0.679062577E-01 -0.193937076E-01
   C  0.262953481E+01 -0.100852902E+00  0.483433516E-01
   H -0.150566482E+02  0.204956139E+00  0.800187459E+00
   H  0.146303034E+02  0.110496403E+01  0.699322546E+00
     4
 # iter = 38500  time[fs]=38.50000
   C -0.286827518E+01 -0.691420845E-01 -0.205865128E-01
   C  0.270474045E+01 -0.103890071E+00  0.490212576E-01
   H -0.154493592E+02  0.210767886E+00  0.821331319E+00
   H  0.150064048E+02  0.113375893E+01  0.717313223E+00
     4
 # iter = 39000  time[fs]=39.00000
   C -0.294889150E+01 -0.703819130E-01 -0.217928202E-01
   C  0.278036097E+01 -0.106939478E+00  0.496966584E-01
   H -0.158428298E+02  0.216566600E+00  0.842489916E+00
   H  0.153832503E+02  0.116259487E+01  0.735314370E+00
     4
 # iter = 39500  time[fs]=39.50000
   C -0.302990787E+01 -0.716211822E-01 -0.230076261E-01
   C  0.285637839E+01 -0.109996006E+00  0.503742175E-01
   H -0.162369989E+02  0.222377415E+00  0.863687087E+00
   H  0.157608288E+02  0.119149445E+01  0.753350054E+00
     4
 # iter = 40000  time[fs]=40.00000
   C -0.311130092E+01 -0.728577076E-01 -0.242283313E-01
   C  0.293277394E+01 -0.113057066E+00  0.510560962E-01
   H -0.166318207E+02  0.228212066E+00  0.884933354E+00
   H  0.161391181E+02  0.122046708E+01  0.771431000E+00
     4
 # iter = 40500  time[fs]=40.50000
   C -0.319305197E+01 -0.740924581E-01 -0.254555159E-01
   C  0.300952704E+01 -0.116123426E+00  0.517411279E-01
   H -0.170272702E+02  0.234064476E+00  0.906221507E+00
   H  0.165180807E+02  0.124950445E+01  0.789550181E+00
     4
 # iter = 41000  time[fs]=41.00000
   C -0.327514425E+01 -0.753269025E-01 -0.266902834E-01
   C  0.308661797E+01 -0.119196393E+00  0.524276311E-01
   H -0.174233266E+02  0.239925792E+00  0.927541638E+00
   H  0.168976783E+02  0.127859564E+01  0.807697849E+00
     4
 # iter = 41500  time[fs]=41.50000
   C -0.335756112E+01 -0.765613477E-01 -0.279325980E-01
   C  0.316402955E+01 -0.122276051E+00  0.531151687E-01
   H -0.178199650E+02  0.245793799E+00  0.948890541E+00
   H  0.172778810E+02  0.130773651E+01  0.825870957E+00
     4
 # iter = 42000  time[fs]=42.00000
   C -0.344028629E+01 -0.777953128E-01 -0.291816565E-01
   C  0.324174658E+01 -0.125361660E+00  0.538041512E-01
   H -0.182171572E+02  0.251670793E+00  0.970269582E+00
   H  0.176586654E+02  0.133692755E+01  0.844071020E+00
     4
 # iter = 42500  time[fs]=42.50000
   C -0.352330469E+01 -0.790284353E-01 -0.304367929E-01
   C  0.331975482E+01 -0.128452613E+00  0.544948731E-01
   H -0.186148777E+02  0.257558438E+00  0.991679553E+00
   H  0.180400089E+02  0.136616872E+01  0.862298970E+00
     4
 # iter = 43000  time[fs]=43.00000
   C -0.360660258E+01 -0.802607440E-01 -0.316977502E-01
   C  0.339804057E+01 -0.131548729E+00  0.551872234E-01
   H -0.190131044E+02  0.263456215E+00  0.101311912E+01
   H  0.184218883E+02  0.139545789E+01  0.880553597E+00
     4
 # iter = 43500  time[fs]=43.50000
   C -0.369016729E+01 -0.814924066E-01 -0.329644270E-01
   C  0.347659091E+01 -0.134649982E+00  0.558809510E-01
   H -0.194118174E+02  0.269362847E+00  0.103458623E+01
   H  0.188042810E+02  0.142479230E+01  0.898832973E+00
     4
 # iter = 44000  time[fs]=44.00000
   C -0.377398686E+01 -0.827234996E-01 -0.342366456E-01
   C  0.355539382E+01 -0.137756259E+00  0.565759090E-01
   H -0.198109975E+02  0.275277604E+00  0.105607942E+01
   H  0.191871662E+02  0.145416979E+01  0.917135755E+00
     4
 # iter = 44500  time[fs]=44.50000
   C -0.385805000E+01 -0.839540023E-01 -0.355141453E-01
   C  0.363443814E+01 -0.140867351E+00  0.572720600E-01
   H -0.202106260E+02  0.281200331E+00  0.107759787E+01
   H  0.195705246E+02  0.148358886E+01  0.935461209E+00
     4
 # iter = 45000  time[fs]=45.00000
   C -0.394234611E+01 -0.851838851E-01 -0.367966698E-01
   C  0.371371340E+01 -0.143983049E+00  0.579693814E-01
   H -0.206106855E+02  0.287130946E+00  0.109914083E+01
   H  0.199543385E+02  0.151304819E+01  0.953808705E+00
     4
 # iter = 45500  time[fs]=45.50000
   C -0.402686526E+01 -0.864131517E-01 -0.380840084E-01
   C  0.379320977E+01 -0.147103185E+00  0.586678202E-01
   H -0.210111595E+02  0.293069197E+00  0.112070745E+01
   H  0.203385906E+02  0.154254631E+01  0.972177473E+00
     4
 # iter = 46000  time[fs]=46.00000
   C -0.411159814E+01 -0.876418252E-01 -0.393759811E-01
   C  0.387291797E+01 -0.150227621E+00  0.593673077E-01
   H -0.214120324E+02  0.299014741E+00  0.114229679E+01
   H  0.207232646E+02  0.157208176E+01  0.990566681E+00
     4
 # iter = 46500  time[fs]=46.50000
   C -0.419653597E+01 -0.888699248E-01 -0.406724149E-01
   C  0.395282928E+01 -0.153356220E+00  0.600677830E-01
   H -0.218132898E+02  0.304967273E+00  0.116390802E+01
   H  0.211083451E+02  0.160165316E+01  0.100897556E+01
     4
 # iter = 47000  time[fs]=47.00000
   C -0.428167049E+01 -0.900974618E-01 -0.419731386E-01
   C  0.403293547E+01 -0.156488844E+00  0.607691976E-01
   H -0.222149177E+02  0.310926547E+00  0.118554036E+01
   H  0.214938177E+02  0.163125926E+01  0.102740342E+01
     4
 # iter = 47500  time[fs]=47.50000
   C -0.436699390E+01 -0.913244449E-01 -0.432779880E-01
   C  0.411322882E+01 -0.159625358E+00  0.614715087E-01
   H -0.226169030E+02  0.316892344E+00  0.120719309E+01
   H  0.218796685E+02  0.166089887E+01  0.104584963E+01
     4
 # iter = 48000  time[fs]=48.00000
   C -0.445249884E+01 -0.925508849E-01 -0.445868097E-01
   C  0.419370201E+01 -0.162765636E+00  0.621746742E-01
   H -0.230192332E+02  0.322864449E+00  0.122886555E+01
   H  0.222658844E+02  0.169057086E+01  0.106431357E+01
     4
 # iter = 48500  time[fs]=48.50000
   C -0.453817836E+01 -0.937767941E-01 -0.458994598E-01
   C  0.427434814E+01 -0.165909560E+00  0.628786535E-01
   H -0.234218964E+02  0.328842645E+00  0.125055705E+01
   H  0.226524530E+02  0.172027414E+01  0.108279465E+01
     4
 # iter = 49000  time[fs]=49.00000
   C -0.462402587E+01 -0.950021846E-01 -0.472158020E-01
   C  0.435516069E+01 -0.169057015E+00  0.635834080E-01
   H -0.238248815E+02  0.334826727E+00  0.127226698E+01
   H  0.230393625E+02  0.175000770E+01  0.110129230E+01
     4
 # iter = 49500  time[fs]=49.50000
   C -0.471003516E+01 -0.962270681E-01 -0.485357069E-01
   C  0.443613347E+01 -0.172207893E+00  0.642889022E-01
   H -0.242281778E+02  0.340816503E+00  0.129399474E+01
   H  0.234266016E+02  0.177977053E+01  0.111980600E+01
     4
 # iter = 50000  time[fs]=50.00000
   C -0.479620033E+01 -0.974514559E-01 -0.498590511E-01
   C  0.451726063E+01 -0.175362089E+00  0.649951028E-01
   H -0.246317750E+02  0.346811791E+00  0.131573977E+01
   H  0.238141597E+02  0.180956173E+01  0.113833522E+01
     4
 # iter = 50500  time[fs]=50.50000
   C -0.488251579E+01 -0.986753590E-01 -0.511857175E-01
   C  0.459853662E+01 -0.178519503E+00  0.657019786E-01
   H -0.250356635E+02  0.352812417E+00  0.133750151E+01
   H  0.242020266E+02  0.183938039E+01  0.115687949E+01
     4
 # iter = 51000  time[fs]=51.00000
   C -0.496897623E+01 -0.998987884E-01 -0.525155951E-01
   C  0.467995618E+01 -0.181680040E+00  0.664095000E-01
   H -0.254398341E+02  0.358818214E+00  0.135927946E+01
   H  0.245901924E+02  0.186922567E+01  0.117543834E+01
     4
 # iter = 51500  time[fs]=51.50000
   C -0.505557662E+01 -0.101121755E+00 -0.538485781E-01
   C  0.476151431E+01 -0.184843608E+00  0.671176392E-01
   H -0.258442779E+02  0.364829024E+00  0.138107313E+01
   H  0.249786481E+02  0.189909675E+01  0.119401133E+01
     4
 # iter = 52000  time[fs]=52.00000
   C -0.514231216E+01 -0.102344269E+00 -0.551845656E-01
   C  0.484320626E+01 -0.188010120E+00  0.678263699E-01
   H -0.262489866E+02  0.370844696E+00  0.140288203E+01
   H  0.253673847E+02  0.192899287E+01  0.121259803E+01
     4
 # iter = 52500  time[fs]=52.50000
   C -0.522917831E+01 -0.103566342E+00 -0.565234618E-01
   C  0.492502751E+01 -0.191179491E+00  0.685356673E-01
   H -0.266539521E+02  0.376865084E+00  0.142470573E+01
   H  0.257563937E+02  0.195891328E+01  0.123119805E+01
     4
 # iter = 53000  time[fs]=53.00000
   C -0.531617072E+01 -0.104787982E+00 -0.578651751E-01
   C  0.500697376E+01 -0.194351641E+00  0.692455081E-01
   H -0.270591667E+02  0.382890049E+00  0.144654378E+01
   H  0.261456671E+02  0.198885728E+01  0.124981099E+01
     4
 # iter = 53500  time[fs]=53.50000
   C -0.540328528E+01 -0.106009200E+00 -0.592096180E-01
   C  0.508904091E+01 -0.197526493E+00  0.699558701E-01
   H -0.274646232E+02  0.388919460E+00  0.146839579E+01
   H  0.265351971E+02  0.201882419E+01  0.126843648E+01
     4
 # iter = 54000  time[fs]=54.00000
   C -0.549051803E+01 -0.107230007E+00 -0.605567072E-01
   C  0.517122506E+01 -0.200703972E+00  0.706667325E-01
   H -0.278703145E+02  0.394953190E+00  0.149026135E+01
   H  0.269249764E+02  0.204881336E+01  0.128707417E+01
     4
 # iter = 54500  time[fs]=54.50000
   C -0.557786523E+01 -0.108450410E+00 -0.619063630E-01
   C  0.525352249E+01 -0.203884006E+00  0.713780753E-01
   H -0.282762339E+02  0.400991116E+00  0.151214009E+01
   H  0.273149978E+02  0.207882416E+01  0.130572371E+01
     4
 # iter = 55000  time[fs]=55.00000
   C -0.566532330E+01 -0.109670419E+00 -0.632585092E-01
   C  0.533592964E+01 -0.207066528E+00  0.720898798E-01
   H -0.286823749E+02  0.407033122E+00  0.153403164E+01
   H  0.277052545E+02  0.210885601E+01  0.132438479E+01
     4
 # iter = 55500  time[fs]=55.50000
   C -0.575288881E+01 -0.110890043E+00 -0.646130728E-01
   C  0.541844313E+01 -0.210251471E+00  0.728021283E-01
   H -0.290887313E+02  0.413079096E+00  0.155593565E+01
   H  0.280957401E+02  0.213890832E+01  0.134305709E+01
     4
 # iter = 56000  time[fs]=56.00000
   C -0.584055849E+01 -0.112109291E+00 -0.659699840E-01
   C  0.550105970E+01 -0.213438773E+00  0.735148038E-01
   H -0.294952974E+02  0.419128932E+00  0.157785179E+01
   H  0.284864482E+02  0.216898055E+01  0.136174030E+01
     4
 # iter = 56500  time[fs]=56.50000
   C -0.592832922E+01 -0.113328170E+00 -0.673291759E-01
   C  0.558377625E+01 -0.216628371E+00  0.742278904E-01
   H -0.299020672E+02  0.425182525E+00  0.159977974E+01
   H  0.288773729E+02  0.219907218E+01  0.138043414E+01
     4
 # iter = 57000  time[fs]=57.00000
   C -0.601619800E+01 -0.114546691E+00 -0.686905846E-01
   C  0.566658983E+01 -0.219820208E+00  0.749413728E-01
   H -0.303090355E+02  0.431239777E+00  0.162171919E+01
   H  0.292685084E+02  0.222918268E+01  0.139913833E+01
     4
 # iter = 57500  time[fs]=57.50000
   C -0.610416196E+01 -0.115764859E+00 -0.700541484E-01
   C  0.574949758E+01 -0.223014226E+00  0.756552364E-01
   H -0.307161970E+02  0.437300592E+00  0.164366985E+01
   H  0.296598491E+02  0.225931159E+01  0.141785260E+01
     4
 # iter = 58000  time[fs]=58.00000
   C -0.619221837E+01 -0.116982683E+00 -0.714198084E-01
   C  0.583249680E+01 -0.226210371E+00  0.763694677E-01
   H -0.311235465E+02  0.443364880E+00  0.166563142E+01
   H  0.300513898E+02  0.228945841E+01  0.143657670E+01
     4
 # iter = 58500  time[fs]=58.50000
   C -0.628036460E+01 -0.118200171E+00 -0.727875080E-01
   C  0.591558486E+01 -0.229408591E+00  0.770840533E-01
   H -0.315310794E+02  0.449432551E+00  0.168760364E+01
   H  0.304431252E+02  0.231962272E+01  0.145531038E+01
     4
 # iter = 59000  time[fs]=59.00000
   C -0.636859811E+01 -0.119417330E+00 -0.741571929E-01
   C  0.599875928E+01 -0.232608835E+00  0.777989810E-01
   H -0.319387908E+02  0.455503521E+00  0.170958623E+01
   H  0.308350505E+02  0.234980406E+01  0.147405340E+01
     4
 # iter = 59500  time[fs]=59.50000
   C -0.645691649E+01 -0.120634167E+00 -0.755288107E-01
   C  0.608201765E+01 -0.235811054E+00  0.785142387E-01
   H -0.323466764E+02  0.461577709E+00  0.173157895E+01
   H  0.312271610E+02  0.238000202E+01  0.149280553E+01
     4
 # iter = 60000  time[fs]=60.00000
   C -0.654531742E+01 -0.121850689E+00 -0.769023111E-01
   C  0.616535768E+01 -0.239015201E+00  0.792298151E-01
   H -0.327547317E+02  0.467655035E+00  0.175358154E+01
   H  0.316194519E+02  0.241021620E+01  0.151156655E+01
     4
 # iter = 60500  time[fs]=60.50000
   C -0.663379867E+01 -0.123066902E+00 -0.782776459E-01
   C  0.624877714E+01 -0.242221231E+00  0.799456994E-01
   H -0.331629527E+02  0.473735423E+00  0.177559378E+01
   H  0.320119190E+02  0.244044621E+01  0.153033625E+01
     4
 # iter = 61000  time[fs]=61.00000
   C -0.672235808E+01 -0.124282814E+00 -0.796547685E-01
   C  0.633227392E+01 -0.245429099E+00  0.806618813E-01
   H -0.335713353E+02  0.479818802E+00  0.179761542E+01
   H  0.324045580E+02  0.247069167E+01  0.154911442E+01
     4
 # iter = 61500  time[fs]=61.50000
   C -0.681099361E+01 -0.125498431E+00 -0.810336341E-01
   C  0.641584597E+01 -0.248638763E+00  0.813783509E-01
   H -0.339798757E+02  0.485905099E+00  0.181964626E+01
   H  0.327973648E+02  0.250095222E+01  0.156790086E+01
     4
 # iter = 62000  time[fs]=62.00000
   C -0.689970326E+01 -0.126713758E+00 -0.824141995E-01
   C  0.649949133E+01 -0.251850182E+00  0.820950987E-01
   H -0.343885700E+02  0.491994247E+00  0.184168608E+01
   H  0.331903354E+02  0.253122750E+01  0.158669538E+01
     4
 # iter = 62500  time[fs]=62.50000
   C -0.698848512E+01 -0.127928802E+00 -0.837964232E-01
   C  0.658320811E+01 -0.255063317E+00  0.828121158E-01
   H -0.347974148E+02  0.498086179E+00  0.186373467E+01
   H  0.335834659E+02  0.256151719E+01  0.160549780E+01
     4
 # iter = 63000  time[fs]=63.00000
   C -0.707733737E+01 -0.129143568E+00 -0.851802650E-01
   C  0.666699449E+01 -0.258278128E+00  0.835293935E-01
   H -0.352064064E+02  0.504180833E+00  0.188579183E+01
   H  0.339767528E+02  0.259182095E+01  0.162430793E+01
     4
 # iter = 63500  time[fs]=63.50000
   C -0.716625823E+01 -0.130358064E+00 -0.865656864E-01
   C  0.675084871E+01 -0.261494579E+00  0.842469236E-01
   H -0.356155416E+02  0.510278147E+00  0.190785738E+01
   H  0.343701924E+02  0.262213847E+01  0.164312560E+01
     4
 # iter = 64000  time[fs]=64.00000
   C -0.725524599E+01 -0.131572293E+00 -0.879526498E-01
   C  0.683476909E+01 -0.264712634E+00  0.849646982E-01
   H -0.360248171E+02  0.516378061E+00  0.192993112E+01
   H  0.347637813E+02  0.265246945E+01  0.166195066E+01
     4
 # iter = 64500  time[fs]=64.50000
   C -0.734429902E+01 -0.132786261E+00 -0.893411194E-01
   C  0.691875399E+01 -0.267932259E+00  0.856827097E-01
   H -0.364342298E+02  0.522480518E+00  0.195201288E+01
   H  0.351575162E+02  0.268281358E+01  0.168078292E+01
     4
 # iter = 65000  time[fs]=65.00000
   C -0.743341573E+01 -0.133999974E+00 -0.907310602E-01
   C  0.700280185E+01 -0.271153418E+00  0.864009508E-01
   H -0.368437766E+02  0.528585462E+00  0.197410248E+01
   H  0.355513939E+02  0.271317058E+01  0.169962224E+01
     4
 # iter = 65500  time[fs]=65.50000
   C -0.752259458E+01 -0.135213436E+00 -0.921224388E-01
   C  0.708691116E+01 -0.274376080E+00  0.871194145E-01
   H -0.372534545E+02  0.534692840E+00  0.199619975E+01
   H  0.359454111E+02  0.274354018E+01  0.171846847E+01
     4
 # iter = 66000  time[fs]=66.00000
   C -0.761183411E+01 -0.136426653E+00 -0.935152225E-01
   C  0.717108045E+01 -0.277600214E+00  0.878380943E-01
   H -0.376632608E+02  0.540802600E+00  0.201830454E+01
   H  0.363395650E+02  0.277392210E+01  0.173732146E+01
     4
 # iter = 66500  time[fs]=66.50000
   C -0.770113288E+01 -0.137639630E+00 -0.949093801E-01
   C  0.725530832E+01 -0.280825788E+00  0.885569837E-01
   H -0.380731927E+02  0.546914690E+00  0.204041668E+01
   H  0.367338526E+02  0.280431610E+01  0.175618107E+01
     4
 # iter = 67000  time[fs]=67.00000
   C -0.779048953E+01 -0.138852370E+00 -0.963048810E-01
   C  0.733959339E+01 -0.284052773E+00  0.892760766E-01
   H -0.384832475E+02  0.553029063E+00  0.206253602E+01
   H  0.371282710E+02  0.283472191E+01  0.177504715E+01
     4
 # iter = 67500  time[fs]=67.50000
   C -0.787990271E+01 -0.140064879E+00 -0.977016960E-01
   C  0.742393435E+01 -0.287281139E+00  0.899953670E-01
   H -0.388934226E+02  0.559145670E+00  0.208466241E+01
   H  0.375228175E+02  0.286513929E+01  0.179391958E+01
     4
 # iter = 68000  time[fs]=68.00000
   C -0.796937115E+01 -0.141277162E+00 -0.990997965E-01
   C  0.750832993E+01 -0.290510860E+00  0.907148492E-01
   H -0.393037156E+02  0.565264467E+00  0.210679571E+01
   H  0.379174895E+02  0.289556801E+01  0.181279823E+01
     4
 # iter = 68500  time[fs]=68.50000
   C -0.805889361E+01 -0.142489222E+00 -0.100499155E+00
   C  0.759277891E+01 -0.293741908E+00  0.914345179E-01
   H -0.397141239E+02  0.571385408E+00  0.212893578E+01
   H  0.383122844E+02  0.292600784E+01  0.183168297E+01
     4
 # iter = 69000  time[fs]=69.00000
   C -0.814846888E+01 -0.143701063E+00 -0.101899745E+00
   C  0.767728008E+01 -0.296974256E+00  0.921543677E-01
   H -0.401246453E+02  0.577508450E+00  0.215108248E+01
   H  0.387071997E+02  0.295645855E+01  0.185057367E+01
     4
 # iter = 69500  time[fs]=69.50000
   C -0.823809579E+01 -0.144912690E+00 -0.103301540E+00
   C  0.776183229E+01 -0.300207879E+00  0.928743936E-01
   H -0.405352774E+02  0.583633552E+00  0.217323568E+01
   H  0.391022330E+02  0.298691993E+01  0.186947023E+01
     4
 # iter = 70000  time[fs]=70.00000
   C -0.832777322E+01 -0.146124107E+00 -0.104704516E+00
   C  0.784643444E+01 -0.303442753E+00  0.935945908E-01
   H -0.409460181E+02  0.589760672E+00  0.219539526E+01
   H  0.394973818E+02  0.301739177E+01  0.188837252E+01
     4
 # iter = 70500  time[fs]=70.50000
   C -0.841750009E+01 -0.147335318E+00 -0.106108648E+00
   C  0.793108545E+01 -0.306678852E+00  0.943149545E-01
   H -0.413568652E+02  0.595889772E+00  0.221756109E+01
   H  0.398926440E+02  0.304787387E+01  0.190728043E+01
     4
 # iter = 71000  time[fs]=71.00000
   C -0.850727533E+01 -0.148546326E+00 -0.107513913E+00
   C  0.801578426E+01 -0.309916154E+00  0.950354803E-01
   H -0.417678167E+02  0.602020812E+00  0.223973305E+01
   H  0.402880174E+02  0.307836603E+01  0.192619386E+01
     4
 # iter = 71500  time[fs]=71.50000
   C -0.859709792E+01 -0.149757135E+00 -0.108920287E+00
   C  0.810052987E+01 -0.313154636E+00  0.957561638E-01
   H -0.421788704E+02  0.608153756E+00  0.226191103E+01
   H  0.406834997E+02  0.310886806E+01  0.194511271E+01
     4
 # iter = 72000  time[fs]=72.00000
   C -0.868696688E+01 -0.150967749E+00 -0.110327749E+00
   C  0.818532129E+01 -0.316394275E+00  0.964770009E-01
   H -0.425900244E+02  0.614288568E+00  0.228409490E+01
   H  0.410790888E+02  0.313937976E+01  0.196403686E+01
     4
 # iter = 72500  time[fs]=72.50000
   C -0.877688123E+01 -0.152178171E+00 -0.111736277E+00
   C  0.827015757E+01 -0.319635050E+00  0.971979874E-01
   H -0.430012768E+02  0.620425212E+00  0.230628457E+01
   H  0.414747828E+02  0.316990097E+01  0.198296622E+01
     4
 # iter = 73000  time[fs]=73.00000
   C -0.886684005E+01 -0.153388405E+00 -0.113145850E+00
   C  0.835503779E+01 -0.322876941E+00  0.979191196E-01
   H -0.434126258E+02  0.626563654E+00  0.232847992E+01
   H  0.418705797E+02  0.320043150E+01  0.200190069E+01
     4
 # iter = 73500  time[fs]=73.50000
   C -0.895684243E+01 -0.154598454E+00 -0.114556448E+00
   C  0.843996106E+01 -0.326119926E+00  0.986403936E-01
   H -0.438240695E+02  0.632703861E+00  0.235068084E+01
   H  0.422664776E+02  0.323097118E+01  0.202084018E+01
     4
 # iter = 74000  time[fs]=74.00000
   C -0.904688750E+01 -0.155808321E+00 -0.115968052E+00
   C  0.852492651E+01 -0.329363986E+00  0.993618058E-01
   H -0.442356062E+02  0.638845800E+00  0.237288725E+01
   H  0.426624745E+02  0.326151984E+01  0.203978459E+01
     4
 # iter = 74500  time[fs]=74.50000
   C -0.913697440E+01 -0.157018010E+00 -0.117380641E+00
   C  0.860993329E+01 -0.332609102E+00  0.100083353E+00
   H -0.446472342E+02  0.644989441E+00  0.239509903E+01
   H  0.430585687E+02  0.329207733E+01  0.205873385E+01
     4
 # iter = 75000  time[fs]=75.00000
   C -0.922710231E+01 -0.158227523E+00 -0.118794198E+00
   C  0.869498058E+01 -0.335855254E+00  0.100805031E+00
   H -0.450589518E+02  0.651134752E+00  0.241731609E+01
   H  0.434547584E+02  0.332264349E+01  0.207768785E+01
     4
 # iter = 75500  time[fs]=75.50000
   C -0.931727042E+01 -0.159436863E+00 -0.120208704E+00
   C  0.878006760E+01 -0.339102425E+00  0.101526837E+00
   H -0.454707574E+02  0.657281704E+00  0.243953834E+01
   H  0.438510418E+02  0.335321815E+01  0.209664653E+01
     4
 # iter = 76000  time[fs]=76.00000
   C -0.940747796E+01 -0.160646035E+00 -0.121624143E+00
   C  0.886519357E+01 -0.342350596E+00  0.102248769E+00
   H -0.458826494E+02  0.663430267E+00  0.246176569E+01
   H  0.442474174E+02  0.338380118E+01  0.211560978E+01
     4
 # iter = 76500  time[fs]=76.50000
   C -0.949772416E+01 -0.161855039E+00 -0.123040495E+00
   C  0.895035774E+01 -0.345599751E+00  0.102970822E+00
   H -0.462946263E+02  0.669580414E+00  0.248399805E+01
   H  0.446438835E+02  0.341439242E+01  0.213457755E+01
     4
 # iter = 77000  time[fs]=77.00000
   C -0.958800829E+01 -0.163063880E+00 -0.124457746E+00
   C  0.903555937E+01 -0.348849872E+00  0.103692994E+00
   H -0.467066866E+02  0.675732117E+00  0.250623533E+01
   H  0.450404384E+02  0.344499173E+01  0.215354974E+01
     4
 # iter = 77500  time[fs]=77.50000
   C -0.967832963E+01 -0.164272559E+00 -0.125875879E+00
   C  0.912079778E+01 -0.352100943E+00  0.104415282E+00
   H -0.471188288E+02  0.681885348E+00  0.252847745E+01
   H  0.454370808E+02  0.347559898E+01  0.217252628E+01
     4
 # iter = 78000  time[fs]=78.00000
   C -0.976868750E+01 -0.165481080E+00 -0.127294877E+00
   C  0.920607225E+01 -0.355352947E+00  0.105137684E+00
   H -0.475310516E+02  0.688040083E+00  0.255072433E+01
   H  0.458338089E+02  0.350621403E+01  0.219150710E+01
     4
 # iter = 78500  time[fs]=78.50000
   C -0.985908120E+01 -0.166689445E+00 -0.128714727E+00
   C  0.929138213E+01 -0.358605869E+00  0.105860196E+00
   H -0.479433535E+02  0.694196295E+00  0.257297588E+01
   H  0.462306214E+02  0.353683675E+01  0.221049212E+01
     4
 # iter = 79000  time[fs]=79.00000
   C -0.994951008E+01 -0.167897657E+00 -0.130135412E+00
   C  0.937672676E+01 -0.361859694E+00  0.106582816E+00
   H -0.483557332E+02  0.700353959E+00  0.259523202E+01
   H  0.466275169E+02  0.356746701E+01  0.222948128E+01
     4
 # iter = 79500  time[fs]=79.50000
   C -0.100399735E+02 -0.169105719E+00 -0.131556918E+00
   C  0.946210551E+01 -0.365114407E+00  0.107305542E+00
   H -0.487681894E+02  0.706513052E+00  0.261749269E+01
   H  0.470244939E+02  0.359810468E+01  0.224847450E+01
     4
 # iter = 80000  time[fs]=80.00000
   C -0.101304708E+02 -0.170313631E+00 -0.132979231E+00
   C  0.954751776E+01 -0.368369993E+00  0.108028371E+00
   H -0.491807209E+02  0.712673550E+00  0.263975781E+01
   H  0.474215511E+02  0.362874965E+01  0.226747172E+01
