     4
 # iter = 25000  time[fs]=25.00000
   C -0.961364999E+00 -0.112026713E-01  0.255529691E-01
   C  0.100215941E+01  0.634875427E-01 -0.531919165E-01
   H -0.529857214E+01 -0.260589939E+00 -0.316274879E+00
   H  0.535860416E+01 -0.387388342E+00 -0.274269411E+00
     4
 # iter = 25500  time[fs]=25.50000
   C -0.100668503E+01 -0.114641635E-01  0.266841043E-01
   C  0.104367233E+01  0.650296465E-01 -0.550124171E-01
   H -0.563825674E+01 -0.283275348E+00 -0.344463691E+00
   H  0.566755412E+01 -0.421444048E+00 -0.296069444E+00
     4
 # iter = 26000  time[fs]=26.00000
   C -0.105726372E+01 -0.126636796E-01  0.272301556E-01
   C  0.108850363E+01  0.655985333E-01 -0.581646839E-01
   H -0.598598532E+01 -0.311494124E+00 -0.378217771E+00
   H  0.597373803E+01 -0.461124830E+00 -0.323395343E+00
     4
 # iter = 26500  time[fs]=26.50000
   C -0.111039253E+01 -0.124610197E-01  0.294969082E-01
   C  0.113972088E+01  0.686297330E-01 -0.591782529E-01
   H -0.632536914E+01 -0.329145613E+00 -0.401433628E+00
   H  0.629298115E+01 -0.490312926E+00 -0.340138413E+00
     4
 # iter = 27000  time[fs]=27.00000
   C -0.116558822E+01 -0.107269483E-01  0.335816635E-01
   C  0.119712597E+01  0.742772327E-01 -0.578667230E-01
   H -0.665536619E+01 -0.335421569E+00 -0.413300744E+00
   H  0.662584178E+01 -0.508193162E+00 -0.345491513E+00
     4
 # iter = 27500  time[fs]=27.50000
   C -0.122423389E+01 -0.917803667E-02  0.377386339E-01
   C  0.125780335E+01  0.799559440E-01 -0.567855201E-01
   H -0.698774280E+01 -0.342279549E+00 -0.425774840E+00
   H  0.696013362E+01 -0.526724750E+00 -0.351421044E+00
     4
 # iter = 28000  time[fs]=28.00000
   C -0.128723589E+01 -0.902637770E-02  0.407294947E-01
   C  0.131961789E+01  0.838339617E-01 -0.577399350E-01
   H -0.733079281E+01 -0.358178467E+00 -0.447313204E+00
   H  0.728720221E+01 -0.554366720E+00 -0.366392253E+00
     4
 # iter = 28500  time[fs]=28.50000
   C -0.135381395E+01 -0.976731213E-02  0.430356345E-01
   C  0.138301820E+01  0.866340384E-01 -0.599836317E-01
   H -0.768093839E+01 -0.379688337E+00 -0.474484324E+00
   H  0.761031885E+01 -0.587682240E+00 -0.386973588E+00
     4
 # iter = 29000  time[fs]=29.00000
   C -0.142249828E+01 -0.101788051E-01  0.458584757E-01
   C  0.144954939E+01  0.901480899E-01 -0.617038189E-01
   H -0.802964647E+01 -0.398407438E+00 -0.498885074E+00
   H  0.793775219E+01 -0.618260106E+00 -0.404758405E+00
     4
 # iter = 29500  time[fs]=29.50000
   C -0.149263844E+01 -0.983375014E-02  0.496068178E-01
   C  0.151960214E+01  0.949890932E-01 -0.622689753E-01
   H -0.837389823E+01 -0.411430772E+00 -0.517609206E+00
   H  0.827228621E+01 -0.643189857E+00 -0.416840342E+00
     4
 # iter = 30000  time[fs]=30.00000
   C -0.156461313E+01 -0.931202242E-02  0.536845264E-01
   C  0.159209513E+01  0.100275607E+00 -0.625440628E-01
   H -0.871765554E+01 -0.422818437E+00 -0.534715728E+00
   H  0.860974775E+01 -0.666531021E+00 -0.427282657E+00
     4
 # iter = 30500  time[fs]=30.50000
   C -0.163889075E+01 -0.926216301E-02  0.574286642E-01
   C  0.166586822E+01  0.105026391E+00 -0.634957276E-01
   H -0.906536193E+01 -0.437100417E+00 -0.554733641E+00
   H  0.894550547E+01 -0.692813595E+00 -0.440618712E+00
     4
 # iter = 31000  time[fs]=31.00000
   C -0.171531413E+01 -0.968759639E-02  0.608230886E-01
   C  0.174074165E+01  0.109221283E+00 -0.651312392E-01
   H -0.941699858E+01 -0.454335673E+00 -0.577720989E+00
   H  0.927941338E+01 -0.722093847E+00 -0.456907777E+00
     4
 # iter = 31500  time[fs]=31.50000
   C -0.179330777E+01 -0.101560157E-01  0.642888579E-01
   C  0.181720236E+01  0.113489639E+00 -0.668098399E-01
   H -0.976953349E+01 -0.471562444E+00 -0.600715158E+00
   H  0.961435798E+01 -0.751405575E+00 -0.473186341E+00
     4
 # iter = 32000  time[fs]=32.00000
   C -0.187247423E+01 -0.103980297E-01  0.680853831E-01
   C  0.189551163E+01  0.118220056E+00 -0.681328155E-01
   H -0.101210665E+02 -0.486943548E+00 -0.621878179E+00
   H  0.995210823E+01 -0.778908136E+00 -0.487616203E+00
     4
 # iter = 32500  time[fs]=32.50000
   C -0.195280692E+01 -0.105218173E-01  0.720956061E-01
   C  0.197538392E+01  0.123241043E+00 -0.692626493E-01
   H -0.104723152E+02 -0.501252945E+00 -0.641983295E+00
   H  0.102918266E+02 -0.805373973E+00 -0.500972049E+00
     4
 # iter = 33000  time[fs]=33.00000
   C -0.203443072E+01 -0.107552040E-01  0.760837897E-01
   C  0.205636877E+01  0.128204380E+00 -0.705395340E-01
   H -0.108248284E+02 -0.516090198E+00 -0.662629409E+00
   H  0.106318554E+02 -0.832401843E+00 -0.514854694E+00
     4
 # iter = 33500  time[fs]=33.50000
   C -0.211731782E+01 -0.111627305E-01  0.799783338E-01
   C  0.213827005E+01  0.133005666E+00 -0.720607053E-01
   H -0.111790267E+02 -0.531921786E+00 -0.684282385E+00
   H  0.109716757E+02 -0.860456790E+00 -0.529731068E+00
     4
 # iter = 34000  time[fs]=34.00000
   C -0.220128360E+01 -0.116427815E-01  0.838745422E-01
   C  0.222114888E+01  0.137788454E+00 -0.736762026E-01
   H -0.115341818E+02 -0.548061565E+00 -0.706255505E+00
   H  0.113119273E+02 -0.888850595E+00 -0.544914679E+00
     4
 # iter = 34500  time[fs]=34.50000
   C -0.228615420E+01 -0.120962333E-01  0.878658800E-01
   C  0.230507164E+01  0.142693359E+00 -0.752396635E-01
   H -0.118895846E+02 -0.563838834E+00 -0.727877533E+00
   H  0.116532382E+02 -0.916910615E+00 -0.559734474E+00
     4
 # iter = 35000  time[fs]=35.00000
   C -0.237186140E+01 -0.125223401E-01  0.919480064E-01
   C  0.238996634E+01  0.147715387E+00 -0.767509154E-01
   H -0.122452092E+02 -0.579262503E+00 -0.749156879E+00
   H  0.119955602E+02 -0.944644388E+00 -0.574199468E+00
     4
 # iter = 35500  time[fs]=35.50000
   C -0.245839726E+01 -0.129742037E-01  0.960632360E-01
   C  0.247568791E+01  0.152770072E+00 -0.782897646E-01
   H -0.126014036E+02 -0.594712913E+00 -0.770473418E+00
   H  0.123384765E+02 -0.972431237E+00 -0.588690347E+00
     4
 # iter = 36000  time[fs]=36.00000
   C -0.254573459E+01 -0.134799733E-01  0.100179280E+00
   C  0.256213463E+01  0.157810590E+00 -0.798988279E-01
   H -0.129583448E+02 -0.610396342E+00 -0.792032993E+00
   H  0.126817473E+02 -0.100047639E+01 -0.603413605E+00
     4
 # iter = 36500  time[fs]=36.50000
   C -0.263380834E+01 -0.140248090E-01  0.104307233E+00
   C  0.264927422E+01  0.162854511E+00 -0.815567229E-01
   H -0.133159130E+02 -0.626220270E+00 -0.813742674E+00
   H  0.130254345E+02 -0.102868614E+01 -0.618276723E+00
     4
 # iter = 37000  time[fs]=37.00000
   C -0.272254820E+01 -0.145840997E-01  0.108468307E+00
   C  0.273709387E+01  0.167934353E+00 -0.832274742E-01
   H -0.136739220E+02 -0.642023536E+00 -0.835440915E+00
   H  0.133696711E+02 -0.105689818E+01 -0.633118488E+00
     4
 # iter = 37500  time[fs]=37.50000
   C -0.281190540E+01 -0.151507536E-01  0.112666502E+00
   C  0.282555908E+01  0.173056949E+00 -0.849011046E-01
   H -0.140323079E+02 -0.657765432E+00 -0.857086646E+00
   H  0.137144715E+02 -0.108507080E+01 -0.647898217E+00
     4
 # iter = 38000  time[fs]=38.00000
   C -0.290184930E+01 -0.157321753E-01  0.116891599E+00
   C  0.291461770E+01  0.178207899E+00 -0.865891436E-01
   H -0.143911082E+02 -0.673504864E+00 -0.878738431E+00
   H  0.140597525E+02 -0.111326204E+01 -0.662674905E+00
     4
 # iter = 38500  time[fs]=38.50000
   C -0.299235135E+01 -0.163346687E-01  0.121134722E+00
   C  0.300422272E+01  0.183374738E+00 -0.883014385E-01
   H -0.147503533E+02 -0.689292425E+00 -0.900446544E+00
   H  0.144054407E+02 -0.114152166E+01 -0.677499223E+00
     4
 # iter = 39000  time[fs]=39.00000
   C -0.308337827E+01 -0.169568828E-01  0.125394867E+00
   C  0.309434166E+01  0.188556642E+00 -0.900364131E-01
   H -0.151100218E+02 -0.705125088E+00 -0.922207653E+00
   H  0.147515182E+02 -0.116984585E+01 -0.692368179E+00
     4
 # iter = 39500  time[fs]=39.50000
   C -0.317489603E+01 -0.175941372E-01  0.129674557E+00
   C  0.318494979E+01  0.193757975E+00 -0.917875036E-01
   H -0.154700697E+02 -0.720976223E+00 -0.943994841E+00
   H  0.150979920E+02 -0.119820718E+01 -0.707255160E+00
     4
 # iter = 40000  time[fs]=40.00000
   C -0.326687496E+01 -0.182437715E-01  0.133974470E+00
   C  0.327602192E+01  0.198980308E+00 -0.935511181E-01
   H -0.158304677E+02 -0.736832699E+00 -0.965794706E+00
   H  0.154448567E+02 -0.122659180E+01 -0.722147059E+00
     4
 # iter = 40500  time[fs]=40.50000
   C -0.335929015E+01 -0.189057743E-01  0.138292792E+00
   C  0.336753119E+01  0.204221458E+00 -0.953275755E-01
   H -0.161912056E+02 -0.752699292E+00 -0.987611765E+00
   H  0.157920906E+02 -0.125500383E+01 -0.737048681E+00
     4
 # iter = 41000  time[fs]=41.00000
   C -0.345211907E+01 -0.195806041E-01  0.142627382E+00
   C  0.345945212E+01  0.209478718E+00 -0.971178667E-01
   H -0.165522768E+02 -0.768583636E+00 -0.100945341E+01
   H  0.161396698E+02 -0.128345027E+01 -0.751967695E+00
     4
 # iter = 41500  time[fs]=41.50000
   C -0.354534001E+01 -0.202678236E-01  0.146977123E+00
   C  0.355176242E+01  0.214750865E+00 -0.989216271E-01
   H -0.169136692E+02 -0.784486807E+00 -0.103132049E+01
   H  0.164875782E+02 -0.131193158E+01 -0.766905199E+00
     4
 # iter = 42000  time[fs]=42.00000
   C -0.363893224E+01 -0.209664006E-01  0.151341608E+00
   C  0.364444239E+01  0.220037699E+00 -0.100737586E+00
   H -0.172753669E+02 -0.800405441E+00 -0.105320941E+01
   H  0.168358051E+02 -0.134044385E+01 -0.781857851E+00
     4
 # iter = 42500  time[fs]=42.50000
   C -0.373287658E+01 -0.216754455E-01  0.155720394E+00
   C  0.373747365E+01  0.225338938E+00 -0.102564665E+00
   H -0.176373557E+02 -0.816336870E+00 -0.107511730E+01
   H  0.171843397E+02 -0.136898385E+01 -0.796823000E+00
     4
 # iter = 43000  time[fs]=43.00000
   C -0.382715552E+01 -0.223944302E-01  0.160112770E+00
   C  0.383083865E+01  0.230653874E+00 -0.104402305E+00
   H -0.179996241E+02 -0.832280672E+00 -0.109704354E+01
   H  0.175331699E+02 -0.139755065E+01 -0.811800242E+00
     4
 # iter = 43500  time[fs]=43.50000
   C -0.392175288E+01 -0.231229788E-01  0.164517963E+00
   C  0.392452094E+01  0.235981678E+00 -0.106250159E+00
   H -0.183621622E+02 -0.848237234E+00 -0.111898833E+01
   H  0.178822836E+02 -0.142614417E+01 -0.826789981E+00
     4
 # iter = 44000  time[fs]=44.00000
   C -0.401665349E+01 -0.238606749E-01  0.168935317E+00
   C  0.401850525E+01  0.241321678E+00 -0.108107804E+00
   H -0.187249600E+02 -0.864206452E+00 -0.114095138E+01
   H  0.182316696E+02 -0.145476382E+01 -0.841792130E+00
     4
 # iter = 44500  time[fs]=44.50000
   C -0.411184316E+01 -0.246070544E-01  0.173364298E+00
   C  0.411277747E+01  0.246673357E+00 -0.109974733E+00
   H -0.190880078E+02 -0.880187692E+00 -0.116293188E+01
   H  0.185813182E+02 -0.148340854E+01 -0.856806068E+00
     4
 # iter = 45000  time[fs]=45.00000
   C -0.420730858E+01 -0.253616750E-01  0.177804414E+00
   C  0.420732442E+01  0.252036249E+00 -0.111850458E+00
   H -0.194512961E+02 -0.896180290E+00 -0.118492901E+01
   H  0.189312199E+02 -0.151207725E+01 -0.871831144E+00
     4
 # iter = 45500  time[fs]=45.50000
   C -0.430303735E+01 -0.261241485E-01  0.182255183E+00
   C  0.430213374E+01  0.257409878E+00 -0.113734561E+00
   H -0.198148163E+02 -0.912183796E+00 -0.120694216E+01
   H  0.192813657E+02 -0.154076910E+01 -0.886866920E+00
     4
 # iter = 46000  time[fs]=46.00000
   C -0.439901786E+01 -0.268941268E-01  0.186716134E+00
   C  0.439719382E+01  0.262793774E+00 -0.115626675E+00
   H -0.201785602E+02 -0.928197885E+00 -0.122897085E+01
   H  0.196317472E+02 -0.156948339E+01 -0.901913082E+00
     4
 # iter = 46500  time[fs]=46.50000
   C -0.449523922E+01 -0.276712816E-01  0.191186832E+00
   C  0.449249380E+01  0.268187504E+00 -0.117526451E+00
   H -0.205425200E+02 -0.944222231E+00 -0.125101462E+01
   H  0.199823560E+02 -0.159821942E+01 -0.916969316E+00
     4
 # iter = 47000  time[fs]=47.00000
   C -0.459169121E+01 -0.284552987E-01  0.195666872E+00
   C  0.458802346E+01  0.273590666E+00 -0.119433552E+00
   H -0.209066885E+02 -0.960256482E+00 -0.127307297E+01
   H  0.203331845E+02 -0.162697650E+01 -0.932035277E+00
     4
 # iter = 47500  time[fs]=47.50000
   C -0.468836419E+01 -0.292458812E-01  0.200155877E+00
   C  0.468377322E+01  0.279002887E+00 -0.121347660E+00
   H -0.212710585E+02 -0.976300287E+00 -0.129514543E+01
   H  0.206842254E+02 -0.165575395E+01 -0.947110626E+00
     4
 # iter = 48000  time[fs]=48.00000
   C -0.478524914E+01 -0.300427516E-01  0.204653488E+00
   C  0.477973407E+01  0.284423813E+00 -0.123268478E+00
   H -0.216356235E+02 -0.992353325E+00 -0.131723154E+01
   H  0.210354718E+02 -0.168455113E+01 -0.962195048E+00
     4
 # iter = 48500  time[fs]=48.50000
   C -0.488233751E+01 -0.308456502E-01  0.209159368E+00
   C  0.487589749E+01  0.289853107E+00 -0.125195728E+00
   H -0.220003770E+02 -0.100841530E+01 -0.133933089E+01
   H  0.213869170E+02 -0.171336745E+01 -0.977288253E+00
     4
 # iter = 49000  time[fs]=49.00000
   C -0.497962128E+01 -0.316543325E-01  0.213673198E+00
   C  0.497225548E+01  0.295290451E+00 -0.127129150E+00
   H -0.223653130E+02 -0.102448592E+01 -0.136144308E+01
   H  0.217385546E+02 -0.174220232E+01 -0.992389966E+00
     4
 # iter = 49500  time[fs]=49.50000
   C -0.507709286E+01 -0.324685677E-01  0.218194677E+00
   C  0.506880046E+01  0.300735548E+00 -0.129068497E+00
   H -0.227304258E+02 -0.104056493E+01 -0.138356772E+01
   H  0.220903788E+02 -0.177105521E+01 -0.100749992E+01
     4
 # iter = 50000  time[fs]=50.00000
   C -0.517474508E+01 -0.332881379E-01  0.222723520E+00
   C  0.516552530E+01  0.306188113E+00 -0.131013536E+00
   H -0.230957099E+02 -0.105665205E+01 -0.140570445E+01
   H  0.224423837E+02 -0.179992558E+01 -0.102261786E+01
     4
 # iter = 50500  time[fs]=50.50000
   C -0.527257116E+01 -0.341128373E-01  0.227259459E+00
   C  0.526242324E+01  0.311647878E+00 -0.132964046E+00
   H -0.234611601E+02 -0.107274704E+01 -0.142785291E+01
   H  0.227945638E+02 -0.182881293E+01 -0.103774355E+01
     4
 # iter = 51000  time[fs]=51.00000
   C -0.537056469E+01 -0.349424715E-01  0.231802239E+00
   C  0.535948789E+01  0.317114589E+00 -0.134919821E+00
   H -0.238267713E+02 -0.108884967E+01 -0.145001276E+01
   H  0.231469139E+02 -0.185771678E+01 -0.105287675E+01
     4
 # iter = 51500  time[fs]=51.50000
   C -0.546871959E+01 -0.357768565E-01  0.236351617E+00
   C  0.545671317E+01  0.322588005E+00 -0.136880664E+00
   H -0.241925388E+02 -0.110495970E+01 -0.147218370E+01
   H  0.234994291E+02 -0.188663667E+01 -0.106801725E+01
     4
 # iter = 52000  time[fs]=52.00000
   C -0.556703010E+01 -0.366158181E-01  0.240907364E+00
   C  0.555409336E+01  0.328067897E+00 -0.138846389E+00
   H -0.245584581E+02 -0.112107692E+01 -0.149436540E+01
   H  0.238521045E+02 -0.191557216E+01 -0.108316483E+01
     4
 # iter = 52500  time[fs]=52.50000
   C -0.566549075E+01 -0.374591913E-01  0.245469263E+00
   C  0.565162299E+01  0.333554046E+00 -0.140816819E+00
   H -0.249245247E+02 -0.113720113E+01 -0.151655758E+01
   H  0.242049355E+02 -0.194452282E+01 -0.109831928E+01
     4
 # iter = 53000  time[fs]=53.00000
   C -0.576409634E+01 -0.383068193E-01  0.250037106E+00
   C  0.574929689E+01  0.339046246E+00 -0.142791787E+00
   H -0.252907344E+02 -0.115333212E+01 -0.153875995E+01
   H  0.245579178E+02 -0.197348825E+01 -0.111348043E+01
     4
 # iter = 53500  time[fs]=53.50000
   C -0.586284194E+01 -0.391585534E-01  0.254610697E+00
   C  0.584711014E+01  0.344544301E+00 -0.144771134E+00
   H -0.256570833E+02 -0.116946971E+01 -0.156097224E+01
   H  0.249110471E+02 -0.200246806E+01 -0.112864807E+01
     4
 # iter = 54000  time[fs]=54.00000
   C -0.596172285E+01 -0.400142524E-01  0.259189848E+00
   C  0.594505806E+01  0.350048021E+00 -0.146754711E+00
   H -0.260235675E+02 -0.118561371E+01 -0.158319418E+01
   H  0.252643194E+02 -0.203146187E+01 -0.114382203E+01
     4
 # iter = 54500  time[fs]=54.50000
   C -0.606073460E+01 -0.408737819E-01  0.263774380E+00
   C  0.604313620E+01  0.355557228E+00 -0.148742372E+00
   H -0.263901834E+02 -0.120176395E+01 -0.160542553E+01
   H  0.256177308E+02 -0.206046932E+01 -0.115900214E+01
     4
 # iter = 55000  time[fs]=55.00000
   C -0.615987293E+01 -0.417370141E-01  0.268364124E+00
   C  0.614134031E+01  0.361071752E+00 -0.150733982E+00
   H -0.267569273E+02 -0.121792026E+01 -0.162766604E+01
   H  0.259712776E+02 -0.208949006E+01 -0.117418824E+01
     4
 # iter = 55500  time[fs]=55.50000
   C -0.625913379E+01 -0.426038273E-01  0.272958917E+00
   C  0.623966634E+01  0.366591429E+00 -0.152729411E+00
   H -0.271237958E+02 -0.123408249E+01 -0.164991549E+01
   H  0.263249563E+02 -0.211852376E+01 -0.118938017E+01
     4
 # iter = 56000  time[fs]=56.00000
   C -0.635851330E+01 -0.434741055E-01  0.277558603E+00
   C  0.633811045E+01  0.372116105E+00 -0.154728534E+00
   H -0.274907858E+02 -0.125025046E+01 -0.167217365E+01
   H  0.266787634E+02 -0.214757010E+01 -0.120457777E+01
     4
 # iter = 56500  time[fs]=56.50000
   C -0.645800777E+01 -0.443477379E-01  0.282163036E+00
   C  0.643666894E+01  0.377645629E+00 -0.156731235E+00
   H -0.278578941E+02 -0.126642405E+01 -0.169444030E+01
   H  0.270326956E+02 -0.217662877E+01 -0.121978091E+01
     4
 # iter = 57000  time[fs]=57.00000
   C -0.655761366E+01 -0.452246192E-01  0.286772072E+00
   C  0.653533829E+01  0.383179860E+00 -0.158737400E+00
   H -0.282251176E+02 -0.128260309E+01 -0.171671524E+01
   H  0.273867497E+02 -0.220569948E+01 -0.123498944E+01
     4
 # iter = 57500  time[fs]=57.50000
   C -0.665732760E+01 -0.461046485E-01  0.291385577E+00
   C  0.663411516E+01  0.388718661E+00 -0.160746921E+00
   H -0.285924534E+02 -0.129878747E+01 -0.173899827E+01
   H  0.277409227E+02 -0.223478192E+01 -0.125020322E+01
     4
 # iter = 58000  time[fs]=58.00000
   C -0.675714636E+01 -0.469877294E-01  0.296003421E+00
   C  0.673299632E+01  0.394261903E+00 -0.162759697E+00
   H -0.289598988E+02 -0.131497703E+01 -0.176128919E+01
   H  0.280952117E+02 -0.226387584E+01 -0.126542213E+01
     4
 # iter = 58500  time[fs]=58.50000
   C -0.685706686E+01 -0.478737700E-01  0.300625480E+00
   C  0.683197869E+01  0.399809459E+00 -0.164775628E+00
   H -0.293274511E+02 -0.133117167E+01 -0.178358782E+01
   H  0.284496137E+02 -0.229298095E+01 -0.128064605E+01
     4
 # iter = 59000  time[fs]=59.00000
   C -0.695708614E+01 -0.487626822E-01  0.305251636E+00
   C  0.693105933E+01  0.405361211E+00 -0.166794621E+00
   H -0.296951076E+02 -0.134737124E+01 -0.180589399E+01
   H  0.288041261E+02 -0.232209700E+01 -0.129587484E+01
     4
 # iter = 59500  time[fs]=59.50000
   C -0.705720136E+01 -0.496543816E-01  0.309881773E+00
   C  0.703023541E+01  0.410917043E+00 -0.168816585E+00
   H -0.300628658E+02 -0.136357564E+01 -0.182820751E+01
   H  0.291587462E+02 -0.235122375E+01 -0.131110840E+01
     4
 # iter = 60000  time[fs]=60.00000
   C -0.715740981E+01 -0.505487875E-01  0.314515782E+00
   C  0.712950424E+01  0.416476845E+00 -0.170841436E+00
   H -0.304307234E+02 -0.137978476E+01 -0.185052822E+01
   H  0.295134715E+02 -0.238036094E+01 -0.132634660E+01
     4
 # iter = 60500  time[fs]=60.50000
   C -0.725770889E+01 -0.514458225E-01  0.319153560E+00
   C  0.722886322E+01  0.422040511E+00 -0.172869089E+00
   H -0.307986780E+02 -0.139599847E+01 -0.187285596E+01
   H  0.298682995E+02 -0.240950835E+01 -0.134158936E+01
     4
 # iter = 61000  time[fs]=61.00000
   C -0.735809609E+01 -0.523454125E-01  0.323795003E+00
   C  0.732830986E+01  0.427607939E+00 -0.174899466E+00
   H -0.311667273E+02 -0.141221668E+01 -0.189519058E+01
   H  0.302232279E+02 -0.243866576E+01 -0.135683655E+01
     4
 # iter = 61500  time[fs]=61.50000
   C -0.745856902E+01 -0.532474863E-01  0.328440017E+00
   C  0.742784176E+01  0.433179031E+00 -0.176932492E+00
   H -0.315348692E+02 -0.142843927E+01 -0.191753192E+01
   H  0.305782543E+02 -0.246783294E+01 -0.137208808E+01
     4
 # iter = 62000  time[fs]=62.00000
   C -0.755912537E+01 -0.541519756E-01  0.333088507E+00
   C  0.752745664E+01  0.438753694E+00 -0.178968092E+00
   H -0.319031016E+02 -0.144466616E+01 -0.193987983E+01
   H  0.309333766E+02 -0.249700968E+01 -0.138734385E+01
     4
 # iter = 62500  time[fs]=62.50000
   C -0.765976292E+01 -0.550588147E-01  0.337740384E+00
   C  0.762715228E+01  0.444331835E+00 -0.181006198E+00
   H -0.322714225E+02 -0.146089724E+01 -0.196223418E+01
   H  0.312885926E+02 -0.252619578E+01 -0.140260376E+01
     4
 # iter = 63000  time[fs]=63.00000
   C -0.776047955E+01 -0.559679406E-01  0.342395562E+00
   C  0.772692657E+01  0.449913370E+00 -0.183046741E+00
   H -0.326398298E+02 -0.147713243E+01 -0.198459483E+01
   H  0.316439003E+02 -0.255539105E+01 -0.141786774E+01
     4
 # iter = 63500  time[fs]=63.50000
   C -0.786127321E+01 -0.568792928E-01  0.347053958E+00
   C  0.782677747E+01  0.455498212E+00 -0.185089658E+00
   H -0.330083217E+02 -0.149337163E+01 -0.200696165E+01
   H  0.319992976E+02 -0.258459528E+01 -0.143313567E+01
     4
 # iter = 64000  time[fs]=64.00000
   C -0.796214192E+01 -0.577928130E-01  0.351715492E+00
   C  0.792670300E+01  0.461086281E+00 -0.187134887E+00
   H -0.333768964E+02 -0.150961476E+01 -0.202933450E+01
   H  0.323547826E+02 -0.261380830E+01 -0.144840749E+01
     4
 # iter = 64500  time[fs]=64.50000
   C -0.806308378E+01 -0.587084452E-01  0.356380086E+00
   C  0.802670128E+01  0.466677500E+00 -0.189182366E+00
   H -0.337455521E+02 -0.152586173E+01 -0.205171327E+01
   H  0.327103535E+02 -0.264302993E+01 -0.146368311E+01
     4
 # iter = 65000  time[fs]=65.00000
   C -0.816409697E+01 -0.596261353E-01  0.361047667E+00
   C  0.812677050E+01  0.472271793E+00 -0.191232040E+00
   H -0.341142871E+02 -0.154211245E+01 -0.207409783E+01
   H  0.330660084E+02 -0.267225999E+01 -0.147896245E+01
     4
 # iter = 65500  time[fs]=65.50000
   C -0.826517972E+01 -0.605458314E-01  0.365718162E+00
   C  0.822690889E+01  0.477869087E+00 -0.193283852E+00
   H -0.344830996E+02 -0.155836686E+01 -0.209648806E+01
   H  0.334217456E+02 -0.270149831E+01 -0.149424542E+01
     4
 # iter = 66000  time[fs]=66.00000
   C -0.836633034E+01 -0.614674835E-01  0.370391504E+00
   C  0.832711475E+01  0.483469313E+00 -0.195337749E+00
   H -0.348519881E+02 -0.157462488E+01 -0.211888386E+01
   H  0.337775633E+02 -0.273074473E+01 -0.150953196E+01
     4
 # iter = 66500  time[fs]=66.50000
   C -0.846754718E+01 -0.623910433E-01  0.375067624E+00
   C  0.842738647E+01  0.489072402E+00 -0.197393680E+00
   H -0.352209511E+02 -0.159088643E+01 -0.214128511E+01
   H  0.341334599E+02 -0.275999909E+01 -0.152482200E+01
     4
 # iter = 67000  time[fs]=67.00000
   C -0.856882866E+01 -0.633164642E-01  0.379746460E+00
   C  0.852772246E+01  0.494678289E+00 -0.199451594E+00
   H -0.355899869E+02 -0.160715143E+01 -0.216369171E+01
   H  0.344894339E+02 -0.278926123E+01 -0.154011545E+01
     4
 # iter = 67500  time[fs]=67.50000
   C -0.867017326E+01 -0.642437013E-01  0.384427947E+00
   C  0.862812121E+01  0.500286911E+00 -0.201511445E+00
   H -0.359590942E+02 -0.162341983E+01 -0.218610356E+01
   H  0.348454836E+02 -0.281853101E+01 -0.155541226E+01
     4
 # iter = 68000  time[fs]=68.00000
   C -0.877157950E+01 -0.651727114E-01  0.389112027E+00
   C  0.872858125E+01  0.505898208E+00 -0.203573186E+00
   H -0.363282715E+02 -0.163969155E+01 -0.220852054E+01
   H  0.352016076E+02 -0.284780828E+01 -0.157071236E+01
     4
 # iter = 68500  time[fs]=68.50000
   C -0.887304596E+01 -0.661034527E-01  0.393798642E+00
   C  0.882910115E+01  0.511512119E+00 -0.205636772E+00
   H -0.366975174E+02 -0.165596653E+01 -0.223094257E+01
   H  0.355578044E+02 -0.287709289E+01 -0.158601568E+01
     4
 # iter = 69000  time[fs]=69.00000
   C -0.897457125E+01 -0.670358847E-01  0.398487734E+00
   C  0.892967956E+01  0.517128587E+00 -0.207702161E+00
   H -0.370668306E+02 -0.167224470E+01 -0.225336955E+01
   H  0.359140725E+02 -0.290638472E+01 -0.160132216E+01
     4
 # iter = 69500  time[fs]=69.50000
   C -0.907615406E+01 -0.679699684E-01  0.403179250E+00
   C  0.903031514E+01  0.522747558E+00 -0.209769310E+00
   H -0.374362097E+02 -0.168852600E+01 -0.227580138E+01
   H  0.362704106E+02 -0.293568362E+01 -0.161663174E+01
     4
 # iter = 70000  time[fs]=70.00000
   C -0.917779309E+01 -0.689056661E-01  0.407873137E+00
   C  0.913100661E+01  0.528368978E+00 -0.211838179E+00
   H -0.378056536E+02 -0.170481037E+01 -0.229823798E+01
   H  0.366268174E+02 -0.296498946E+01 -0.163194435E+01
     4
 # iter = 70500  time[fs]=70.50000
   C -0.927948710E+01 -0.698429414E-01  0.412569345E+00
   C  0.923175274E+01  0.533992795E+00 -0.213908731E+00
   H -0.381751609E+02 -0.172109776E+01 -0.232067926E+01
   H  0.369832915E+02 -0.299430213E+01 -0.164725995E+01
     4
 # iter = 71000  time[fs]=71.00000
   C -0.938123489E+01 -0.707817590E-01  0.417267823E+00
   C  0.933255233E+01  0.539618959E+00 -0.215980926E+00
   H -0.385447305E+02 -0.173738810E+01 -0.234312514E+01
   H  0.373398317E+02 -0.302362150E+01 -0.166257848E+01
     4
 # iter = 71500  time[fs]=71.50000
   C -0.948303528E+01 -0.717220848E-01  0.421968524E+00
   C  0.943340421E+01  0.545247420E+00 -0.218054729E+00
   H -0.389143612E+02 -0.175368134E+01 -0.236557553E+01
   H  0.376964368E+02 -0.305294744E+01 -0.167789987E+01
     4
 # iter = 72000  time[fs]=72.00000
   C -0.958488716E+01 -0.726638857E-01  0.426671402E+00
   C  0.953430727E+01  0.550878133E+00 -0.220130104E+00
   H -0.392840519E+02 -0.176997743E+01 -0.238803035E+01
   H  0.380531055E+02 -0.308227984E+01 -0.169322409E+01
     4
 # iter = 72500  time[fs]=72.50000
   C -0.968678941E+01 -0.736071299E-01  0.431376411E+00
   C  0.963526041E+01  0.556511050E+00 -0.222207018E+00
   H -0.396538015E+02 -0.178627632E+01 -0.241048953E+01
   H  0.384098368E+02 -0.311161858E+01 -0.170855107E+01
     4
 # iter = 73000  time[fs]=73.00000
   C -0.978874100E+01 -0.745517862E-01  0.436083509E+00
   C  0.973626258E+01  0.562146129E+00 -0.224285437E+00
   H -0.400236088E+02 -0.180257795E+01 -0.243295298E+01
   H  0.387666294E+02 -0.314096357E+01 -0.172388077E+01
     4
 # iter = 73500  time[fs]=73.50000
   C -0.989074088E+01 -0.754978248E-01  0.440792653E+00
   C  0.983731275E+01  0.567783324E+00 -0.226365330E+00
   H -0.403934730E+02 -0.181888228E+01 -0.245542064E+01
   H  0.391234822E+02 -0.317031468E+01 -0.173921314E+01
     4
 # iter = 74000  time[fs]=74.00000
   C -0.999278806E+01 -0.764452166E-01  0.445503803E+00
   C  0.993840994E+01  0.573422596E+00 -0.228446665E+00
   H -0.407633929E+02 -0.183518926E+01 -0.247789243E+01
   H  0.394803943E+02 -0.319967182E+01 -0.175454814E+01
     4
 # iter = 74500  time[fs]=74.50000
   C -0.100948816E+02 -0.773939335E-01  0.450216917E+00
   C  0.100395532E+02  0.579063903E+00 -0.230529412E+00
   H -0.411333675E+02 -0.185149883E+01 -0.250036828E+01
   H  0.398373645E+02 -0.322903487E+01 -0.176988571E+01
     4
 # iter = 75000  time[fs]=75.00000
   C -0.101970205E+02 -0.783439480E-01  0.454931959E+00
   C  0.101407416E+02  0.584707206E+00 -0.232613542E+00
   H -0.415033960E+02 -0.186781097E+01 -0.252284812E+01
   H  0.401943918E+02 -0.325840375E+01 -0.178522580E+01
     4
 # iter = 75500  time[fs]=75.50000
   C -0.102992039E+02 -0.792952337E-01  0.459648890E+00
   C  0.102419741E+02  0.590352466E+00 -0.234699028E+00
   H -0.418734774E+02 -0.188412561E+01 -0.254533188E+01
   H  0.405514753E+02 -0.328777836E+01 -0.180056839E+01
     4
 # iter = 76000  time[fs]=76.00000
   C -0.104014309E+02 -0.802477648E-01  0.464367673E+00
   C  0.103432501E+02  0.595999646E+00 -0.236785841E+00
   H -0.422436107E+02 -0.190044272E+01 -0.256781951E+01
   H  0.409086139E+02 -0.331715859E+01 -0.181591342E+01
     4
 # iter = 76500  time[fs]=76.50000
   C -0.105037007E+02 -0.812015166E-01  0.469088275E+00
   C  0.104445685E+02  0.601648711E+00 -0.238873955E+00
   H -0.426137950E+02 -0.191676226E+01 -0.259031093E+01
   H  0.412658068E+02 -0.334654436E+01 -0.183126085E+01
     4
 # iter = 77000  time[fs]=77.00000
   C -0.106060124E+02 -0.821564646E-01  0.473810659E+00
   C  0.105459285E+02  0.607299624E+00 -0.240963345E+00
   H -0.429840296E+02 -0.193308418E+01 -0.261280608E+01
   H  0.416230530E+02 -0.337593558E+01 -0.184661065E+01
     4
 # iter = 77500  time[fs]=77.50000
   C -0.107083651E+02 -0.831125854E-01  0.478534794E+00
   C  0.106473294E+02  0.612952353E+00 -0.243053984E+00
   H -0.433543135E+02 -0.194940845E+01 -0.263530491E+01
   H  0.419803517E+02 -0.340533216E+01 -0.186196277E+01
     4
 # iter = 78000  time[fs]=78.00000
   C -0.108107583E+02 -0.840698562E-01  0.483260645E+00
   C  0.107487704E+02  0.618606863E+00 -0.245145849E+00
   H -0.437246460E+02 -0.196573503E+01 -0.265780736E+01
   H  0.423377019E+02 -0.343473401E+01 -0.187731717E+01
     4
 # iter = 78500  time[fs]=78.50000
   C -0.109131909E+02 -0.850282547E-01  0.487988183E+00
   C  0.108502507E+02  0.624263122E+00 -0.247238917E+00
   H -0.440950262E+02 -0.198206387E+01 -0.268031336E+01
   H  0.426951028E+02 -0.346414105E+01 -0.189267382E+01
     4
 # iter = 79000  time[fs]=79.00000
   C -0.110156624E+02 -0.859877594E-01  0.492717375E+00
   C  0.109517696E+02  0.629921099E+00 -0.249333163E+00
   H -0.444654534E+02 -0.199839494E+01 -0.270282286E+01
   H  0.430525535E+02 -0.349355319E+01 -0.190803268E+01
     4
 # iter = 79500  time[fs]=79.50000
   C -0.111181720E+02 -0.869483494E-01  0.497448193E+00
   C  0.110533263E+02  0.635580763E+00 -0.251428566E+00
   H -0.448359267E+02 -0.201472821E+01 -0.272533580E+01
   H  0.434100534E+02 -0.352297037E+01 -0.192339371E+01
     4
 # iter = 80000  time[fs]=80.00000
   C -0.112207189E+02 -0.879100041E-01  0.502180606E+00
   C  0.111549202E+02  0.641242084E+00 -0.253525105E+00
   H -0.452064455E+02 -0.203106364E+01 -0.274785214E+01
   H  0.437676015E+02 -0.355239249E+01 -0.193875689E+01
