     4
 # iter = 25000  time[fs]=25.00000
   C -0.940755496E+00 -0.357443618E-02  0.653918956E-01
   C  0.102146493E+01  0.851808485E-02  0.721372716E-02
   H -0.526484525E+01 -0.463042660E+00  0.381394033E+00
   H  0.528244035E+01  0.490733769E+00 -0.605688439E+00
     4
 # iter = 25500  time[fs]=25.50000
   C -0.984376312E+00 -0.393220749E-02  0.648642242E-01
   C  0.106314160E+01  0.603989031E-02  0.846005903E-02
   H -0.560383911E+01 -0.500779500E+00  0.394199945E+00
   H  0.559227633E+01  0.514207912E+00 -0.651995258E+00
     4
 # iter = 26000  time[fs]=26.00000
   C -0.103202234E+01 -0.530947721E-02  0.633934669E-01
   C  0.110692531E+01  0.265132872E-02  0.874600032E-02
   H -0.595367265E+01 -0.544450516E+00  0.401975822E+00
   H  0.590199976E+01  0.532804344E+00 -0.704400595E+00
     4
 # iter = 26500  time[fs]=26.50000
   C -0.108039977E+01 -0.465195909E-02  0.640200509E-01
   C  0.115526458E+01  0.104648464E-02  0.107779247E-01
   H -0.629762977E+01 -0.577912526E+00  0.420757660E+00
   H  0.622714739E+01  0.562560140E+00 -0.746741353E+00
     4
 # iter = 27000  time[fs]=27.00000
   C -0.112912954E+01 -0.180676401E-02  0.668847760E-01
   C  0.120806247E+01  0.135663412E-02  0.146971254E-01
   H -0.663439595E+01 -0.600319396E+00  0.451304458E+00
   H  0.656802322E+01  0.604223147E+00 -0.778157684E+00
     4
 # iter = 27500  time[fs]=27.50000
   C -0.118026990E+01  0.957028935E-03  0.697081483E-01
   C  0.126310096E+01  0.157382194E-02  0.185036845E-01
   H -0.697550948E+01 -0.623594935E+00  0.481621034E+00
   H  0.691221645E+01  0.645777556E+00 -0.810565491E+00
     4
 # iter = 28000  time[fs]=28.00000
   C -0.123523210E+01  0.203396433E-02  0.708760368E-01
   C  0.131876565E+01  0.277268613E-03  0.207834524E-01
   H -0.732906720E+01 -0.656169155E+00  0.503215931E+00
   H  0.725087904E+01  0.678715190E+00 -0.852386958E+00
     4
 # iter = 28500  time[fs]=28.50000
   C -0.129318882E+01  0.207389327E-02  0.710312425E-01
   C  0.137545083E+01 -0.196034461E-02  0.221146818E-01
   H -0.769131734E+01 -0.694587820E+00  0.519488661E+00
   H  0.758711752E+01  0.706429234E+00 -0.900156434E+00
     4
 # iter = 29000  time[fs]=29.00000
   C -0.135238552E+01  0.266975990E-02  0.717609715E-01
   C  0.143440000E+01 -0.373245818E-02  0.239085176E-01
   H -0.805357394E+01 -0.730428473E+00  0.538813327E+00
   H  0.792905850E+01  0.737292288E+00 -0.945439133E+00
     4
 # iter = 29500  time[fs]=29.50000
   C -0.141212514E+01  0.437174689E-02  0.736106628E-01
   C  0.149595113E+01 -0.455339164E-02  0.266542672E-01
   H -0.841268549E+01 -0.760767823E+00  0.564071428E+00
   H  0.827936083E+01  0.774181119E+00 -0.985303096E+00
     4
 # iter = 30000  time[fs]=30.00000
   C -0.147304554E+01  0.640874474E-02  0.758052668E-01
   C  0.155928943E+01 -0.510454614E-02  0.296733313E-01
   H -0.877249888E+01 -0.789649648E+00  0.591183202E+00
   H  0.863374007E+01  0.813006817E+00 -0.102378759E+01
     4
 # iter = 30500  time[fs]=30.50000
   C -0.153588634E+01  0.792047628E-02  0.774812756E-01
   C  0.162353440E+01 -0.614585494E-02  0.322079539E-01
   H -0.913735658E+01 -0.821589451E+00  0.615601563E+00
   H  0.898746634E+01  0.849213340E+00 -0.106540443E+01
     4
 # iter = 31000  time[fs]=31.00000
   C -0.160055061E+01  0.889477503E-02  0.786239166E-01
   C  0.168856635E+01 -0.768772945E-02  0.342494362E-01
   H -0.950714979E+01 -0.856633406E+00  0.637252077E+00
   H  0.934030683E+01  0.882720973E+00 -0.111019434E+01
     4
 # iter = 31500  time[fs]=31.50000
   C -0.166637880E+01  0.989249286E-02  0.797919493E-01
   C  0.175478228E+01 -0.923415405E-02  0.362951279E-01
   H -0.987876611E+01 -0.891808422E+00  0.659082436E+00
   H  0.969507123E+01  0.916474754E+00 -0.115517781E+01
     4
 # iter = 32000  time[fs]=32.00000
   C -0.173293406E+01  0.112611888E-01  0.813312419E-01
   C  0.182240031E+01 -0.104774423E-01  0.386537179E-01
   H -0.102502337E+02 -0.925267200E+00  0.682917251E+00
   H  0.100534600E+02  0.952296331E+00 -0.119850221E+01
     4
 # iter = 32500  time[fs]=32.50000
   C -0.180028317E+01  0.128531451E-01  0.830927050E-01
   C  0.189120956E+01 -0.115474094E-01  0.411961131E-01
   H -0.106222064E+02 -0.957774611E+00  0.707971425E+00
   H  0.104145741E+02  0.989396243E+00 -0.124092901E+01
     4
 # iter = 33000  time[fs]=33.00000
   C -0.186865707E+01  0.143640635E-01  0.847709347E-01
   C  0.196086851E+01 -0.127121648E-01  0.436547053E-01
   H -0.109961760E+02 -0.990922023E+00  0.732635451E+00
   H  0.107767004E+02  0.102616037E+01 -0.128404692E+01
     4
 # iter = 33500  time[fs]=33.50000
   C -0.193807849E+01  0.157046081E-01  0.862757160E-01
   C  0.203123232E+01 -0.140498762E-01  0.459516604E-01
   H -0.113725113E+02 -0.102516850E+01  0.756433855E+00
   H  0.111392705E+02  0.106210967E+01 -0.132831204E+01
     4
 # iter = 34000  time[fs]=34.00000
   C -0.200835755E+01  0.170041155E-01  0.877356941E-01
   C  0.210235542E+01 -0.154455047E-01  0.482022194E-01
   H -0.117504377E+02 -0.105982117E+01  0.780044588E+00
   H  0.115028790E+02  0.109791957E+01 -0.137302813E+01
     4
 # iter = 34500  time[fs]=34.50000
   C -0.207931273E+01  0.183890320E-01  0.892767753E-01
   C  0.217429512E+01 -0.167865615E-01  0.505189652E-01
   H -0.121292037E+02 -0.109420322E+01  0.804130888E+00
   H  0.118681133E+02  0.113425103E+01 -0.141751532E+01
     4
 # iter = 35000  time[fs]=35.00000
   C -0.215089623E+01  0.198569300E-01  0.908961137E-01
   C  0.224699975E+01 -0.180744223E-01  0.529005283E-01
   H -0.125087451E+02 -0.112831802E+01  0.828677057E+00
   H  0.122348882E+02  0.117108585E+01 -0.146177454E+01
     4
 # iter = 35500  time[fs]=35.50000
   C -0.222313502E+01  0.213349631E-01  0.925205439E-01
   C  0.232035980E+01 -0.193726905E-01  0.552832419E-01
   H -0.128893752E+02 -0.116254083E+01  0.853296559E+00
   H  0.126027533E+02  0.120803492E+01 -0.150617901E+01
     4
 # iter = 36000  time[fs]=36.00000
   C -0.229602696E+01  0.227833365E-01  0.941100352E-01
   C  0.239429888E+01 -0.207157893E-01  0.576325663E-01
   H -0.132712391E+02 -0.119707326E+01  0.877777449E+00
   H  0.129714382E+02  0.124488402E+01 -0.155092842E+01
     4
 # iter = 36500  time[fs]=36.50000
   C -0.236951672E+01  0.242189673E-01  0.956813372E-01
   C  0.246879419E+01 -0.220880609E-01  0.599640028E-01
   H -0.136541881E+02 -0.123181854E+01  0.902207039E+00
   H  0.133409767E+02  0.128171855E+01 -0.159592401E+01
     4
 # iter = 37000  time[fs]=37.00000
   C -0.244353906E+01  0.256718261E-01  0.972643088E-01
   C  0.254383761E+01 -0.234623391E-01  0.623045300E-01
   H -0.140380091E+02 -0.126661155E+01  0.926741698E+00
   H  0.137114760E+02  0.131869313E+01 -0.164099881E+01
     4
 # iter = 37500  time[fs]=37.50000
   C -0.251805446E+01  0.271490675E-01  0.988660379E-01
   C  0.261940372E+01 -0.248316405E-01  0.646609205E-01
   H -0.144226137E+02 -0.130140797E+01  0.951417708E+00
   H  0.140829270E+02  0.135584237E+01 -0.168610685E+01
     4
 # iter = 38000  time[fs]=38.00000
   C -0.259304480E+01  0.286389817E-01  0.100474785E+00
   C  0.269545296E+01 -0.262056738E-01  0.670232376E-01
   H -0.148080170E+02 -0.133626336E+01  0.976172076E+00
   H  0.144552246E+02  0.139310165E+01 -0.173130222E+01
     4
 # iter = 38500  time[fs]=38.50000
   C -0.266849271E+01  0.301314639E-01  0.102080444E+00
   C  0.277194951E+01 -0.275927559E-01  0.693829240E-01
   H -0.151942286E+02 -0.137122520E+01  0.100095043E+01
   H  0.148282755E+02  0.143041508E+01 -0.177663102E+01
     4
 # iter = 39000  time[fs]=39.00000
   C -0.274437271E+01  0.316266074E-01  0.103683135E+00
   C  0.284886865E+01 -0.289922207E-01  0.717403982E-01
   H -0.155812078E+02 -0.140628760E+01  0.102575228E+01
   H  0.152020432E+02  0.146778080E+01 -0.182208607E+01
     4
 # iter = 39500  time[fs]=39.50000
   C -0.282065674E+01  0.331290087E-01  0.105287496E+00
   C  0.292619151E+01 -0.303994494E-01  0.741000269E-01
   H -0.159688928E+02 -0.144142125E+01  0.105060100E+01
   H  0.155765175E+02  0.150522091E+01 -0.186763683E+01
     4
 # iter = 40000  time[fs]=40.00000
   C -0.289732101E+01  0.346407276E-01  0.106895646E+00
   C  0.300389871E+01 -0.318120893E-01  0.764639086E-01
   H -0.163572380E+02 -0.147661054E+01  0.107550668E+01
   H  0.159516774E+02  0.154274430E+01 -0.191326655E+01
     4
 # iter = 40500  time[fs]=40.50000
   C -0.297434669E+01  0.361604503E-01  0.108506345E+00
   C  0.308196941E+01 -0.332307923E-01  0.788311375E-01
   H -0.167462176E+02 -0.151185792E+01  0.110046171E+01
   H  0.163274862E+02  0.158034222E+01 -0.195897663E+01
     4
 # iter = 41000  time[fs]=41.00000
   C -0.305171689E+01  0.376863423E-01  0.110117838E+00
   C  0.316038377E+01 -0.346566937E-01  0.812003264E-01
   H -0.171358110E+02 -0.154716886E+01  0.112545582E+01
   H  0.167039063E+02  0.161800333E+01 -0.200477156E+01
     4
 # iter = 41500  time[fs]=41.50000
   C -0.312941476E+01  0.392178334E-01  0.111729645E+00
   C  0.323912432E+01 -0.360898347E-01  0.835711853E-01
   H -0.175259927E+02 -0.158254242E+01  0.115048545E+01
   H  0.170809090E+02  0.165572309E+01 -0.205064947E+01
     4
 # iter = 42000  time[fs]=42.00000
   C -0.320742381E+01  0.407552144E-01  0.113342150E+00
   C  0.331817553E+01 -0.375295168E-01  0.859441677E-01
   H -0.179167344E+02 -0.161797335E+01  0.117555166E+01
   H  0.174584714E+02  0.169350161E+01 -0.209660425E+01
     4
 # iter = 42500  time[fs]=42.50000
   C -0.328572874E+01  0.422986620E-01  0.114955629E+00
   C  0.339752286E+01 -0.389751634E-01  0.883196105E-01
   H -0.183080104E+02 -0.165345719E+01  0.120065494E+01
   H  0.178365719E+02  0.173133850E+01 -0.214263062E+01
     4
 # iter = 43000  time[fs]=43.00000
   C -0.336431567E+01  0.438479443E-01  0.116569951E+00
   C  0.347715239E+01 -0.404265783E-01  0.906974755E-01
   H -0.186997983E+02 -0.168899186E+01  0.122579367E+01
   H  0.182151879E+02  0.176923131E+01 -0.218872575E+01
     4
 # iter = 43500  time[fs]=43.50000
   C -0.344317177E+01  0.454026905E-01  0.118184850E+00
   C  0.355705095E+01 -0.418837063E-01  0.930775893E-01
   H -0.190920780E+02 -0.172457618E+01  0.125096554E+01
   H  0.185942975E+02  0.180717694E+01 -0.223488772E+01
     4
 # iter = 44000  time[fs]=44.00000
   C -0.352228495E+01  0.469626388E-01  0.119800166E+00
   C  0.363720634E+01 -0.433464140E-01  0.954598627E-01
   H -0.194848302E+02 -0.176020858E+01  0.127616886E+01
   H  0.189738805E+02  0.184517296E+01 -0.228111430E+01
     4
 # iter = 44500  time[fs]=44.50000
   C -0.360164378E+01  0.485276416E-01  0.121415858E+00
   C  0.371760718E+01 -0.448144837E-01  0.978442972E-01
   H -0.198780360E+02 -0.179588702E+01  0.130140255E+01
   H  0.193539183E+02  0.188321760E+01 -0.232740281E+01
     4
 # iter = 45000  time[fs]=45.00000
   C -0.368123754E+01  0.500975699E-01  0.123031899E+00
   C  0.379824283E+01 -0.462876976E-01  0.100230901E+00
   H -0.202716778E+02 -0.183160955E+01  0.132666568E+01
   H  0.197343937E+02  0.192130925E+01 -0.237375068E+01
     4
 # iter = 45500  time[fs]=45.50000
   C -0.376105617E+01  0.516722667E-01  0.124648238E+00
   C  0.387910326E+01 -0.477658773E-01  0.102619649E+00
   H -0.206657388E+02 -0.186737447E+01  0.135195716E+01
   H  0.201152901E+02  0.195944622E+01 -0.242015565E+01
     4
 # iter = 46000  time[fs]=46.00000
   C -0.384109027E+01  0.532515627E-01  0.126264807E+00
   C  0.396017903E+01 -0.492488697E-01  0.105010497E+00
   H -0.210602034E+02 -0.190318029E+01  0.137727591E+01
   H  0.204965917E+02  0.199762679E+01 -0.246661569E+01
     4
 # iter = 46500  time[fs]=46.50000
   C -0.392133095E+01  0.548352996E-01  0.127881549E+00
   C  0.404146127E+01 -0.507365258E-01  0.107403404E+00
   H -0.214550571E+02 -0.193902557E+01  0.140262087E+01
   H  0.208782837E+02  0.203584937E+01 -0.251312887E+01
     4
 # iter = 47000  time[fs]=47.00000
   C -0.400176986E+01  0.564233350E-01  0.129498420E+00
   C  0.412294161E+01 -0.522286953E-01  0.109798335E+00
   H -0.218502856E+02 -0.197490893E+01  0.142799113E+01
   H  0.212603519E+02  0.207411249E+01 -0.255969329E+01
     4
 # iter = 47500  time[fs]=47.50000
   C -0.408239912E+01  0.580155352E-01  0.131115384E+00
   C  0.420461217E+01 -0.537252326E-01  0.112195258E+00
   H -0.222458757E+02 -0.201082901E+01  0.145338580E+01
   H  0.216427832E+02  0.211241478E+01 -0.260630715E+01
     4
 # iter = 48000  time[fs]=48.00000
   C -0.416321127E+01  0.596117703E-01  0.132732408E+00
   C  0.428646552E+01 -0.552259996E-01  0.114594139E+00
   H -0.226418148E+02 -0.204678456E+01  0.147880405E+01
   H  0.220255648E+02  0.215075489E+01 -0.265296876E+01
     4
 # iter = 48500  time[fs]=48.50000
   C -0.424419930E+01  0.612119148E-01  0.134349459E+00
   C  0.436849463E+01 -0.567308663E-01  0.116994941E+00
   H -0.230380910E+02 -0.208277438E+01  0.150424509E+01
   H  0.224086848E+02  0.218913158E+01 -0.269967652E+01
     4
 # iter = 49000  time[fs]=49.00000
   C -0.432535655E+01  0.628158483E-01  0.135966508E+00
   C  0.445069286E+01 -0.582397078E-01  0.119397627E+00
   H -0.234346928E+02 -0.211879734E+01  0.152970814E+01
   H  0.227921318E+02  0.222754364E+01 -0.274642888E+01
     4
 # iter = 49500  time[fs]=49.50000
   C -0.440667673E+01  0.644234560E-01  0.137583529E+00
   C  0.453305392E+01 -0.597524044E-01  0.121802163E+00
   H -0.238316095E+02 -0.215485237E+01  0.155519248E+01
   H  0.231758949E+02  0.226598993E+01 -0.279322441E+01
     4
 # iter = 50000  time[fs]=50.00000
   C -0.448815388E+01  0.660346283E-01  0.139200500E+00
   C  0.461557185E+01 -0.612688411E-01  0.124208512E+00
   H -0.242288309E+02 -0.219093842E+01  0.158069743E+01
   H  0.235599639E+02  0.230446934E+01 -0.284006171E+01
     4
 # iter = 50500  time[fs]=50.50000
   C -0.456978237E+01  0.676492600E-01  0.140817400E+00
   C  0.469824100E+01 -0.627889078E-01  0.126616642E+00
   H -0.246263470E+02 -0.222705452E+01  0.160622233E+01
   H  0.239443288E+02  0.234298086E+01 -0.288693946E+01
     4
 # iter = 51000  time[fs]=51.00000
   C -0.465155681E+01  0.692672504E-01  0.142434212E+00
   C  0.478105603E+01 -0.643124990E-01  0.129026515E+00
   H -0.250241486E+02 -0.226319974E+01  0.163176655E+01
   H  0.243289804E+02  0.238152348E+01 -0.293385640E+01
     4
 # iter = 51500  time[fs]=51.50000
   C -0.473347213E+01  0.708885025E-01  0.144050918E+00
   C  0.486401184E+01 -0.658395135E-01  0.131438100E+00
   H -0.254222268E+02 -0.229937319E+01  0.165732950E+01
   H  0.247139097E+02  0.242009627E+01 -0.298081134E+01
     4
 # iter = 52000  time[fs]=52.00000
   C -0.481552350E+01  0.725129238E-01  0.145667503E+00
   C  0.494710359E+01 -0.673698543E-01  0.133851361E+00
   H -0.258205731E+02 -0.233557400E+01  0.168291061E+01
   H  0.250991081E+02  0.245869831E+01 -0.302780311E+01
     4
 # iter = 52500  time[fs]=52.50000
   C -0.489770630E+01  0.741404250E-01  0.147283955E+00
   C  0.503032670E+01 -0.689034283E-01  0.136266267E+00
   H -0.262191793E+02 -0.237180137E+01  0.170850933E+01
   H  0.254845676E+02  0.249732875E+01 -0.307483063E+01
     4
 # iter = 53000  time[fs]=53.00000
   C -0.498001616E+01  0.757709208E-01  0.148900262E+00
   C  0.511367677E+01 -0.704401457E-01  0.138682784E+00
   H -0.266180378E+02 -0.240805452E+01  0.173412515E+01
   H  0.258702803E+02  0.253598675E+01 -0.312189284E+01
     4
 # iter = 53500  time[fs]=53.50000
   C -0.506244891E+01  0.774043289E-01  0.150516414E+00
   C  0.519714966E+01 -0.719799208E-01  0.141100881E+00
   H -0.270171410E+02 -0.244433269E+01  0.175975757E+01
   H  0.262562389E+02  0.257467152E+01 -0.316898874E+01
     4
 # iter = 54000  time[fs]=54.00000
   C -0.514500059E+01  0.790405704E-01  0.152132401E+00
   C  0.528074139E+01 -0.735226708E-01  0.143520527E+00
   H -0.274164820E+02 -0.248063519E+01  0.178540610E+01
   H  0.266424361E+02  0.261338231E+01 -0.321611737E+01
     4
 # iter = 54500  time[fs]=54.50000
   C -0.522766739E+01  0.806795694E-01  0.153748214E+00
   C  0.536444816E+01 -0.750683163E-01  0.145941692E+00
   H -0.278160538E+02 -0.251696132E+01  0.181107030E+01
   H  0.270288651E+02  0.265211839E+01 -0.326327780E+01
     4
 # iter = 55000  time[fs]=55.00000
   C -0.531044570E+01  0.823212529E-01  0.155363848E+00
   C  0.544826637E+01 -0.766167808E-01  0.148364344E+00
   H -0.282158500E+02 -0.255331042E+01  0.183674973E+01
   H  0.274155195E+02  0.269087907E+01 -0.331046916E+01
     4
 # iter = 55500  time[fs]=55.50000
   C -0.539333207E+01  0.839655507E-01  0.156979294E+00
   C  0.553219256E+01 -0.781679908E-01  0.150788456E+00
   H -0.286158643E+02 -0.258968188E+01  0.186244396E+01
   H  0.278023929E+02  0.272966366E+01 -0.335769059E+01
     4
 # iter = 56000  time[fs]=56.00000
   C -0.547632320E+01  0.856123951E-01  0.158594549E+00
   C  0.561622343E+01 -0.797218754E-01  0.153213998E+00
   H -0.290160908E+02 -0.262607508E+01  0.188815260E+01
   H  0.281894793E+02  0.276847154E+01 -0.340494128E+01
     4
 # iter = 56500  time[fs]=56.50000
   C -0.555941593E+01  0.872617210E-01  0.160209605E+00
   C  0.570035584E+01 -0.812783665E-01  0.155640943E+00
   H -0.294165237E+02 -0.266248945E+01  0.191387525E+01
   H  0.285767730E+02  0.280730208E+01 -0.345222046E+01
     4
 # iter = 57000  time[fs]=57.00000
   C -0.564260725E+01  0.889134657E-01  0.161824461E+00
   C  0.578458675E+01 -0.828373983E-01  0.158069262E+00
   H -0.298171575E+02 -0.269892442E+01  0.193961156E+01
   H  0.289642684E+02  0.284615469E+01 -0.349952736E+01
     4
 # iter = 57500  time[fs]=57.50000
   C -0.572589426E+01  0.905675688E-01  0.163439111E+00
   C  0.586891330E+01 -0.843989074E-01  0.160498930E+00
   H -0.302179868E+02 -0.273537947E+01  0.196536115E+01
   H  0.293519602E+02  0.288502881E+01 -0.354686127E+01
     4
 # iter = 58000  time[fs]=58.00000
   C -0.580927419E+01  0.922239719E-01  0.165053553E+00
   C  0.595333270E+01 -0.859628329E-01  0.162929921E+00
   H -0.306190067E+02 -0.277185407E+01  0.199112369E+01
   H  0.297398433E+02  0.292392387E+01 -0.359422150E+01
     4
 # iter = 58500  time[fs]=58.50000
   C -0.589274439E+01  0.938826188E-01  0.166667783E+00
   C  0.603784231E+01 -0.875291157E-01  0.165362208E+00
   H -0.310202120E+02 -0.280834774E+01  0.201689885E+01
   H  0.301279127E+02  0.296283936E+01 -0.364160737E+01
     4
 # iter = 59000  time[fs]=59.00000
   C -0.597630232E+01  0.955434553E-01  0.168281800E+00
   C  0.612243959E+01 -0.890976991E-01  0.167795767E+00
   H -0.314215983E+02 -0.284485999E+01  0.204268631E+01
   H  0.305161637E+02  0.300177477E+01 -0.368901824E+01
     4
 # iter = 59500  time[fs]=59.50000
   C -0.605994554E+01  0.972064291E-01  0.169895602E+00
   C  0.620712209E+01 -0.906685282E-01  0.170230574E+00
   H -0.318231609E+02 -0.288139037E+01  0.206848576E+01
   H  0.309045918E+02  0.304072961E+01 -0.373645350E+01
     4
 # iter = 60000  time[fs]=60.00000
   C -0.614367171E+01  0.988714895E-01  0.171509188E+00
   C  0.629188747E+01 -0.922415500E-01  0.172666605E+00
   H -0.322248953E+02 -0.291793843E+01  0.209429691E+01
   H  0.312931925E+02  0.307970340E+01 -0.378391255E+01
     4
 # iter = 60500  time[fs]=60.50000
   C -0.622747856E+01  0.100538588E+00  0.173122556E+00
   C  0.637673350E+01 -0.938167133E-01  0.175103837E+00
   H -0.326267976E+02 -0.295450375E+01  0.212011947E+01
   H  0.316819616E+02  0.311869569E+01 -0.383139481E+01
     4
 # iter = 61000  time[fs]=61.00000
   C -0.631136396E+01  0.102207677E+00  0.174735705E+00
   C  0.646165800E+01 -0.953939686E-01  0.177542247E+00
   H -0.330288634E+02 -0.299108591E+01  0.214595318E+01
   H  0.320708950E+02  0.315770604E+01 -0.387889972E+01
     4
 # iter = 61500  time[fs]=61.50000
   C -0.639532580E+01  0.103878711E+00  0.176348634E+00
   C  0.654665890E+01 -0.969732682E-01  0.179981813E+00
   H -0.334310890E+02 -0.302768452E+01  0.217179777E+01
   H  0.324599889E+02  0.319673403E+01 -0.392642676E+01
     4
 # iter = 62000  time[fs]=62.00000
   C -0.647936211E+01  0.105551646E+00  0.177961345E+00
   C  0.663173421E+01 -0.985545658E-01  0.182422514E+00
   H -0.338334706E+02 -0.306429919E+01  0.219765297E+01
   H  0.328492393E+02  0.323577925E+01 -0.397397541E+01
     4
 # iter = 62500  time[fs]=62.50000
   C -0.656347095E+01  0.107226440E+00  0.179573836E+00
   C  0.671688200E+01 -0.100137817E+00  0.184864330E+00
   H -0.342360045E+02 -0.310092956E+01  0.222351856E+01
   H  0.332386427E+02  0.327484130E+01 -0.402154516E+01
     4
 # iter = 63000  time[fs]=63.00000
   C -0.664765047E+01  0.108903050E+00  0.181186107E+00
   C  0.680210041E+01 -0.101722978E+00  0.187307238E+00
   H -0.346386871E+02 -0.313757527E+01  0.224939428E+01
   H  0.336281955E+02  0.331391980E+01 -0.406913554E+01
     4
 # iter = 63500  time[fs]=63.50000
   C -0.673189889E+01  0.110581438E+00  0.182798159E+00
   C  0.688738768E+01 -0.103310007E+00  0.189751220E+00
   H -0.350415152E+02 -0.317423596E+01  0.227527991E+01
   H  0.340178942E+02  0.335301438E+01 -0.411674608E+01
     4
 # iter = 64000  time[fs]=64.00000
   C -0.681621449E+01  0.112261564E+00  0.184409992E+00
   C  0.697274209E+01 -0.104898864E+00  0.192196256E+00
   H -0.354444853E+02 -0.321091131E+01  0.230117522E+01
   H  0.344077357E+02  0.339212469E+01 -0.416437633E+01
     4
 # iter = 64500  time[fs]=64.50000
   C -0.690059562E+01  0.113943392E+00  0.186021608E+00
   C  0.705816197E+01 -0.106489509E+00  0.194642328E+00
   H -0.358475943E+02 -0.324760099E+01  0.232708001E+01
   H  0.347977165E+02  0.343125038E+01 -0.421202586E+01
     4
 # iter = 65000  time[fs]=65.00000
   C -0.698504068E+01  0.115626884E+00  0.187633005E+00
   C  0.714364573E+01 -0.108081904E+00  0.197089415E+00
   H -0.362508392E+02 -0.328430469E+01  0.235299406E+01
   H  0.351878338E+02  0.347039112E+01 -0.425969423E+01
     4
 # iter = 65500  time[fs]=65.50000
   C -0.706954813E+01  0.117312006E+00  0.189244187E+00
   C  0.722919185E+01 -0.109676013E+00  0.199537501E+00
   H -0.366542169E+02 -0.332102211E+01  0.237891718E+01
   H  0.355780845E+02  0.350954657E+01 -0.430738106E+01
     4
 # iter = 66000  time[fs]=66.00000
   C -0.715411649E+01  0.118998724E+00  0.190855152E+00
   C  0.731479882E+01 -0.111271800E+00  0.201986568E+00
   H -0.370577246E+02 -0.335775296E+01  0.240484916E+01
   H  0.359684657E+02  0.354871644E+01 -0.435508593E+01
     4
 # iter = 66500  time[fs]=66.50000
   C -0.723874431E+01  0.120687004E+00  0.192465904E+00
   C  0.740046522E+01 -0.112869229E+00  0.204436598E+00
   H -0.374613595E+02 -0.339449695E+01  0.243078983E+01
   H  0.363589746E+02  0.358790041E+01 -0.440280847E+01
     4
 # iter = 67000  time[fs]=67.00000
   C -0.732343022E+01  0.122376815E+00  0.194076441E+00
   C  0.748618965E+01 -0.114468268E+00  0.206887575E+00
   H -0.378651189E+02 -0.343125380E+01  0.245673899E+01
   H  0.367496084E+02  0.362709820E+01 -0.445054831E+01
     4
 # iter = 67500  time[fs]=67.50000
   C -0.740817287E+01  0.124068125E+00  0.195686767E+00
   C  0.757197080E+01 -0.116068884E+00  0.209339483E+00
   H -0.382690001E+02 -0.346802325E+01  0.248269647E+01
   H  0.371403647E+02  0.366630951E+01 -0.449830510E+01
     4
 # iter = 68000  time[fs]=68.00000
   C -0.749297097E+01  0.125760905E+00  0.197296882E+00
   C  0.765780735E+01 -0.117671045E+00  0.211792304E+00
   H -0.386730007E+02 -0.350480505E+01  0.250866210E+01
   H  0.375312407E+02  0.370553408E+01 -0.454607847E+01
     4
 # iter = 68500  time[fs]=68.50000
   C -0.757782327E+01  0.127455124E+00  0.198906788E+00
   C  0.774369806E+01 -0.119274721E+00  0.214246025E+00
   H -0.390771182E+02 -0.354159893E+01  0.253463572E+01
   H  0.379222342E+02  0.374477163E+01 -0.459386810E+01
     4
 # iter = 69000  time[fs]=69.00000
   C -0.766272855E+01  0.129150756E+00  0.200516486E+00
   C  0.782964172E+01 -0.120879881E+00  0.216700628E+00
   H -0.394813502E+02 -0.357840467E+01  0.256061716E+01
   H  0.383133425E+02  0.378402190E+01 -0.464167365E+01
     4
 # iter = 69500  time[fs]=69.50000
   C -0.774768566E+01  0.130847771E+00  0.202125977E+00
   C  0.791563717E+01 -0.122486497E+00  0.219156101E+00
   H -0.398856944E+02 -0.361522201E+01  0.258660626E+01
   H  0.387045635E+02  0.382328464E+01 -0.468949482E+01
     4
 # iter = 70000  time[fs]=70.00000
   C -0.783269345E+01  0.132546144E+00  0.203735263E+00
   C  0.800168326E+01 -0.124094540E+00  0.221612427E+00
   H -0.402901485E+02 -0.365205074E+01  0.261260288E+01
   H  0.390958950E+02  0.386255962E+01 -0.473733128E+01
     4
 # iter = 70500  time[fs]=70.50000
   C -0.791775083E+01  0.134245847E+00  0.205344346E+00
   C  0.808777890E+01 -0.125703983E+00  0.224069592E+00
   H -0.406947104E+02 -0.368889063E+01  0.263860687E+01
   H  0.394873346E+02  0.390184658E+01 -0.478518275E+01
     4
 # iter = 71000  time[fs]=71.00000
   C -0.800285673E+01  0.135946857E+00  0.206953228E+00
   C  0.817392304E+01 -0.127314800E+00  0.226527584E+00
   H -0.410993779E+02 -0.372574147E+01  0.266461808E+01
   H  0.398788802E+02  0.394114530E+01 -0.483304893E+01
     4
 # iter = 71500  time[fs]=71.50000
   C -0.808801013E+01  0.137649148E+00  0.208561909E+00
   C  0.826011463E+01 -0.128926965E+00  0.228986388E+00
   H -0.415041491E+02 -0.376260305E+01  0.269063637E+01
   H  0.402705299E+02  0.398045555E+01 -0.488092955E+01
     4
 # iter = 72000  time[fs]=72.00000
   C -0.817321003E+01  0.139352696E+00  0.210170391E+00
   C  0.834635269E+01 -0.130540452E+00  0.231445990E+00
   H -0.419090219E+02 -0.379947515E+01  0.271666161E+01
   H  0.406622817E+02  0.401977712E+01 -0.492882431E+01
     4
 # iter = 72500  time[fs]=72.50000
   C -0.825845546E+01  0.141057478E+00  0.211778677E+00
   C  0.843263625E+01 -0.132155238E+00  0.233906379E+00
   H -0.423139944E+02 -0.383635759E+01  0.274269368E+01
   H  0.410541334E+02  0.405910979E+01 -0.497673297E+01
     4
 # iter = 73000  time[fs]=73.00000
   C -0.834374548E+01  0.142763472E+00  0.213386768E+00
   C  0.851896437E+01 -0.133771297E+00  0.236367541E+00
   H -0.427190647E+02 -0.387325018E+01  0.276873243E+01
   H  0.414460834E+02  0.409845336E+01 -0.502465526E+01
     4
 # iter = 73500  time[fs]=73.50000
   C -0.842907918E+01  0.144470654E+00  0.214994665E+00
   C  0.860533615E+01 -0.135388608E+00  0.238829464E+00
   H -0.431242309E+02 -0.391015272E+01  0.279477775E+01
   H  0.418381297E+02  0.413780763E+01 -0.507259092E+01
     4
 # iter = 74000  time[fs]=74.00000
   C -0.851445569E+01  0.146179005E+00  0.216602371E+00
   C  0.869175069E+01 -0.137007147E+00  0.241292136E+00
   H -0.435294914E+02 -0.394706503E+01  0.282082952E+01
   H  0.422302706E+02  0.417717241E+01 -0.512053972E+01
     4
 # iter = 74500  time[fs]=74.50000
   C -0.859987414E+01  0.147888502E+00  0.218209887E+00
   C  0.877820715E+01 -0.138626894E+00  0.243755545E+00
   H -0.439348443E+02 -0.398398694E+01  0.284688762E+01
   H  0.426225043E+02  0.421654749E+01 -0.516850142E+01
     4
 # iter = 75000  time[fs]=75.00000
   C -0.868533371E+01  0.149599127E+00  0.219817214E+00
   C  0.886470470E+01 -0.140247825E+00  0.246219679E+00
   H -0.443402880E+02 -0.402091827E+01  0.287295193E+01
   H  0.430148291E+02  0.425593271E+01 -0.521647577E+01
     4
 # iter = 75500  time[fs]=75.50000
   C -0.877083358E+01  0.151310857E+00  0.221424356E+00
   C  0.895124252E+01 -0.141869921E+00  0.248684528E+00
   H -0.447458208E+02 -0.405785886E+01  0.289902234E+01
   H  0.434072435E+02  0.429532787E+01 -0.526446257E+01
     4
 # iter = 76000  time[fs]=76.00000
   C -0.885637297E+01  0.153023676E+00  0.223031312E+00
   C  0.903781983E+01 -0.143493161E+00  0.251150080E+00
   H -0.451514412E+02 -0.409480854E+01  0.292509876E+01
   H  0.437997457E+02  0.433473280E+01 -0.531246158E+01
     4
 # iter = 76500  time[fs]=76.50000
   C -0.894195112E+01  0.154737563E+00  0.224638085E+00
   C  0.912443588E+01 -0.145117525E+00  0.253616324E+00
   H -0.455571476E+02 -0.413176716E+01  0.295118106E+01
   H  0.441923342E+02  0.437414734E+01 -0.536047259E+01
     4
 # iter = 77000  time[fs]=77.00000
   C -0.902756730E+01  0.156452500E+00  0.226244678E+00
   C  0.921108992E+01 -0.146742995E+00  0.256083250E+00
   H -0.459629384E+02 -0.416873455E+01  0.297726915E+01
   H  0.445850075E+02  0.441357132E+01 -0.540849540E+01
     4
 # iter = 77500  time[fs]=77.50000
   C -0.911322077E+01  0.158168469E+00  0.227851090E+00
   C  0.929778124E+01 -0.148369551E+00  0.258550847E+00
   H -0.463688123E+02 -0.420571057E+01  0.300336293E+01
   H  0.449777642E+02  0.445300457E+01 -0.545652980E+01
     4
 # iter = 78000  time[fs]=78.00000
   C -0.919891084E+01  0.159885454E+00  0.229457325E+00
   C  0.938450912E+01 -0.149997175E+00  0.261019106E+00
   H -0.467747678E+02 -0.424269507E+01  0.302946229E+01
   H  0.453706027E+02  0.449244694E+01 -0.550457559E+01
     4
 # iter = 78500  time[fs]=78.50000
   C -0.928463683E+01  0.161603437E+00  0.231063384E+00
   C  0.947127291E+01 -0.151625850E+00  0.263488016E+00
   H -0.471808034E+02 -0.427968791E+01  0.305556716E+01
   H  0.457635217E+02  0.453189828E+01 -0.555263258E+01
     4
 # iter = 79000  time[fs]=79.00000
   C -0.937039807E+01  0.163322401E+00  0.232669269E+00
   C  0.955807192E+01 -0.153255557E+00  0.265957568E+00
   H -0.475869179E+02 -0.431668895E+01  0.308167742E+01
   H  0.461565199E+02  0.457135843E+01 -0.560070058E+01
     4
 # iter = 79500  time[fs]=79.50000
   C -0.945619393E+01  0.165042330E+00  0.234274980E+00
   C  0.964490552E+01 -0.154886280E+00  0.268427752E+00
   H -0.479931098E+02 -0.435369805E+01  0.310779300E+01
   H  0.465495958E+02  0.461082724E+01 -0.564877941E+01
     4
 # iter = 80000  time[fs]=80.00000
   C -0.954202378E+01  0.166763209E+00  0.235880521E+00
   C  0.973177309E+01 -0.156518003E+00  0.270898559E+00
   H -0.483993779E+02 -0.439071507E+01  0.313391381E+01
   H  0.469427482E+02  0.465030458E+01 -0.569686889E+01
