     4
 # iter = 25000  time[fs]=25.00000
   C -0.993375738E+00  0.378244218E-01 -0.506020433E-01
   C  0.105211927E+01 -0.220716581E-01  0.228722550E-01
   H -0.526198593E+01  0.102432806E+00  0.633151531E+00
   H  0.542394393E+01  0.442115170E+00 -0.671956021E+00
     4
 # iter = 25500  time[fs]=25.50000
   C -0.104345502E+01  0.366929694E-01 -0.549028210E-01
   C  0.109931955E+01 -0.256433260E-01  0.246388881E-01
   H -0.560553424E+01  0.989265816E-01  0.667985493E+00
   H  0.573629609E+01  0.462161234E+00 -0.723222876E+00
     4
 # iter = 26000  time[fs]=26.00000
   C -0.109742255E+01  0.346551123E-01 -0.603333804E-01
   C  0.114843366E+01 -0.303426096E-01  0.255456427E-01
   H -0.595996158E+01  0.900894729E-01  0.698169565E+00
   H  0.604854443E+01  0.477270643E+00 -0.780639703E+00
     4
 # iter = 26500  time[fs]=26.50000
   C -0.115209707E+01  0.346318958E-01 -0.639541265E-01
   C  0.120219680E+01 -0.331616596E-01  0.285783936E-01
   H -0.630854976E+01  0.919911290E-01  0.739694266E+00
   H  0.637623502E+01  0.503488678E+00 -0.828040991E+00
     4
 # iter = 27000  time[fs]=27.00000
   C -0.120709927E+01  0.367616204E-01 -0.656099660E-01
   C  0.126051929E+01 -0.339416850E-01  0.338755824E-01
   H -0.664997709E+01  0.105419946E+00  0.793283191E+00
   H  0.671967852E+01  0.541569736E+00 -0.864564867E+00
     4
 # iter = 27500  time[fs]=27.50000
   C -0.126439251E+01  0.388598329E-01 -0.674701748E-01
   C  0.132095668E+01 -0.349021967E-01  0.391989436E-01
   H -0.699577092E+01  0.118406920E+00  0.846913844E+00
   H  0.706646874E+01  0.579503234E+00 -0.902125491E+00
     4
 # iter = 28000  time[fs]=28.00000
   C -0.132532323E+01  0.393797925E-01 -0.710676451E-01
   C  0.138173663E+01 -0.376119514E-01  0.429627602E-01
   H -0.735401962E+01  0.122482739E+00  0.892070830E+00
   H  0.740776062E+01  0.608785457E+00 -0.949143157E+00
     4
 # iter = 28500  time[fs]=28.50000
   C -0.138909341E+01  0.389394986E-01 -0.757716851E-01
   C  0.144331954E+01 -0.414264336E-01  0.457963756E-01
   H -0.772096814E+01  0.121064714E+00  0.932130583E+00
   H  0.774666255E+01  0.632813617E+00 -0.100215002E+01
     4
 # iter = 29000  time[fs]=29.00000
   C -0.145401768E+01  0.390625833E-01 -0.800470939E-01
   C  0.150710931E+01 -0.447759064E-01  0.492558899E-01
   H -0.808792977E+01  0.122541724E+00  0.975445916E+00
   H  0.809130216E+01  0.659963863E+00 -0.105270904E+01
     4
 # iter = 29500  time[fs]=29.50000
   C -0.151942654E+01  0.402729249E-01 -0.833595305E-01
   C  0.157350284E+01 -0.471147186E-01  0.538745751E-01
   H -0.845175135E+01  0.129808747E+00  0.102488053E+01
   H  0.844433864E+01  0.693115900E+00 -0.109788625E+01
     4
 # iter = 30000  time[fs]=30.00000
   C -0.158593204E+01  0.418273208E-01 -0.864427562E-01
   C  0.164161503E+01 -0.491946764E-01  0.588893529E-01
   H -0.881627660E+01  0.138798705E+00  0.107634029E+01
   H  0.880148735E+01  0.728183192E+00 -0.114171916E+01
     4
 # iter = 30500  time[fs]=30.50000
   C -0.165424451E+01  0.428974982E-01 -0.901164942E-01
   C  0.171048655E+01 -0.518555454E-01  0.634502390E-01
   H -0.918584504E+01  0.144975788E+00  0.112526559E+01
   H  0.915801791E+01  0.760611741E+00 -0.118871792E+01
     4
 # iter = 31000  time[fs]=31.00000
   C -0.172427228E+01  0.434692612E-01 -0.943871708E-01
   C  0.178000223E+01 -0.551049785E-01  0.675403529E-01
   H -0.956034636E+01  0.148274966E+00  0.117157009E+01
   H  0.951369685E+01  0.790323703E+00 -0.123892160E+01
     4
 # iter = 31500  time[fs]=31.50000
   C -0.179538429E+01  0.440785144E-01 -0.987118150E-01
   C  0.185061975E+01 -0.583885077E-01  0.717058207E-01
   H -0.993666772E+01  0.151651860E+00  0.121819029E+01
   H  0.987133311E+01  0.820265824E+00 -0.128934900E+01
     4
 # iter = 32000  time[fs]=32.00000
   C -0.186716324E+01  0.450568440E-01 -0.102752422E+00
   C  0.192259679E+01 -0.613613485E-01  0.762838513E-01
   H -0.103128369E+02  0.156938292E+00  0.126694090E+01
   H  0.102326263E+02  0.852261231E+00 -0.133814601E+01
     4
 # iter = 32500  time[fs]=32.50000
   C -0.193967505E+01  0.462609416E-01 -0.106646470E+00
   C  0.199571318E+01 -0.641651660E-01  0.811258777E-01
   H -0.106895068E+02  0.163355991E+00  0.131702834E+01
   H  0.105966763E+02  0.885521701E+00 -0.138607268E+01
     4
 # iter = 33000  time[fs]=33.00000
   C -0.201314310E+01  0.473974949E-01 -0.110681967E+00
   C  0.206960239E+01 -0.670955914E-01  0.859299761E-01
   H -0.110681683E+02  0.169301711E+00  0.136683564E+01
   H  0.109617690E+02  0.918434187E+00 -0.143471648E+01
     4
 # iter = 33500  time[fs]=33.50000
   C -0.208759100E+01  0.483795992E-01 -0.114940976E+00
   C  0.214411543E+01 -0.702374982E-01  0.906055369E-01
   H -0.114491899E+02  0.174305476E+00  0.141588036E+01
   H  0.113273348E+02  0.950520632E+00 -0.148453228E+01
     4
 # iter = 34000  time[fs]=34.00000
   C -0.216283836E+01  0.493302912E-01 -0.119296037E+00
   C  0.221932369E+01 -0.734613366E-01  0.952768744E-01
   H -0.118317964E+02  0.179050045E+00  0.146483396E+01
   H  0.116939674E+02  0.982457366E+00 -0.153482266E+01
     4
 # iter = 34500  time[fs]=34.50000
   C -0.223871268E+01  0.503699713E-01 -0.123622704E+00
   C  0.229530090E+01 -0.766405944E-01  0.100065711E+00
   H -0.122152366E+02  0.184203014E+00  0.151435372E+01
   H  0.120622532E+02  0.101490616E+01 -0.158490667E+01
     4
 # iter = 35000  time[fs]=35.00000
   C -0.231516969E+01  0.514955210E-01 -0.127920387E+00
   C  0.237199884E+01 -0.797754411E-01  0.104967487E+00
   H -0.125994458E+02  0.189752752E+00  0.156441862E+01
   H  0.124321061E+02  0.104784950E+01 -0.163478418E+01
     4
 # iter = 35500  time[fs]=35.50000
   C -0.239223673E+01  0.526363641E-01 -0.132256264E+00
   C  0.244930430E+01 -0.829353351E-01  0.109908708E+00
   H -0.129847374E+02  0.195316497E+00  0.161463733E+01
   H  0.128030745E+02  0.108089892E+01 -0.168482750E+01
     4
 # iter = 36000  time[fs]=36.00000
   C -0.246991311E+01  0.537537167E-01 -0.136665991E+00
   C  0.252714014E+01 -0.861574444E-01  0.114848498E+00
   H -0.133712561E+02  0.200685730E+00  0.166479346E+01
   H  0.131748871E+02  0.111384076E+01 -0.173523540E+01
     4
 # iter = 36500  time[fs]=36.50000
   C -0.254814703E+01  0.548632739E-01 -0.141130997E+00
   C  0.260548816E+01 -0.894234089E-01  0.119801800E+00
   H -0.137588533E+02  0.205950867E+00  0.171497019E+01
   H  0.135475769E+02  0.114676095E+01 -0.178590827E+01
     4
 # iter = 37000  time[fs]=37.00000
   C -0.262687710E+01  0.559933171E-01 -0.145620348E+00
   C  0.268434589E+01 -0.927021821E-01  0.124796509E+00
   H -0.141473159E+02  0.211271114E+00  0.176532007E+01
   H  0.139212502E+02  0.117981457E+01 -0.183667836E+01
     4
 # iter = 37500  time[fs]=37.50000
   C -0.270606648E+01  0.571502944E-01 -0.150125145E+00
   C  0.276369111E+01 -0.959852283E-01  0.129838247E+00
   H -0.145365557E+02  0.216685390E+00  0.181587587E+01
   H  0.142958969E+02  0.121303667E+01 -0.188749893E+01
     4
 # iter = 38000  time[fs]=38.00000
   C -0.278569882E+01  0.583226043E-01 -0.154654724E+00
   C  0.284348543E+01 -0.992826342E-01  0.134914232E+00
   H -0.149265876E+02  0.222133152E+00  0.186657135E+01
   H  0.146714113E+02  0.124636302E+01 -0.193842335E+01
     4
 # iter = 38500  time[fs]=38.50000
   C -0.286575837E+01  0.595002265E-01 -0.159217007E+00
   C  0.292369418E+01 -0.102603008E+00  0.140013357E+00
   H -0.153174214E+02  0.227562289E+00  0.191734915E+01
   H  0.150476992E+02  0.127973808E+01 -0.198949709E+01
     4
 # iter = 39000  time[fs]=39.00000
   C -0.294622156E+01  0.606829604E-01 -0.163810248E+00
   C  0.300429462E+01 -0.105945035E+00  0.145134615E+00
   H -0.157090163E+02  0.232974412E+00  0.196820597E+01
   H  0.154247233E+02  0.131316032E+01 -0.204071230E+01
     4
 # iter = 39500  time[fs]=39.50000
   C -0.302706227E+01  0.618749568E-01 -0.168428489E+00
   C  0.308527018E+01 -0.109303063E+00  0.150281502E+00
   H -0.161013108E+02  0.238394830E+00  0.201916259E+01
   H  0.158024729E+02  0.134665212E+01 -0.209203786E+01
     4
 # iter = 40000  time[fs]=40.00000
   C -0.310825839E+01  0.630779609E-01 -0.173068302E+00
   C  0.316660334E+01 -0.112674005E+00  0.155455099E+00
   H -0.164942592E+02  0.243835442E+00  0.207022667E+01
   H  0.161809261E+02  0.138022267E+01 -0.214345646E+01
     4
 # iter = 40500  time[fs]=40.50000
   C -0.318979254E+01  0.642905061E-01 -0.177729587E+00
   C  0.324827475E+01 -0.116058152E+00  0.160653240E+00
   H -0.168878360E+02  0.249290329E+00  0.212138832E+01
   H  0.165600456E+02  0.141386346E+01 -0.219496896E+01
     4
 # iter = 41000  time[fs]=41.00000
   C -0.327164914E+01  0.655106477E-01 -0.182412828E+00
   C  0.333026581E+01 -0.119456369E+00  0.165873314E+00
   H -0.172820204E+02  0.254750786E+00  0.217263517E+01
   H  0.169397933E+02  0.144756338E+01 -0.224657935E+01
     4
 # iter = 41500  time[fs]=41.50000
   C -0.335381260E+01  0.667376727E-01 -0.187117372E+00
   C  0.341256035E+01 -0.122868341E+00  0.171114002E+00
   H -0.176767873E+02  0.260214736E+00  0.222396168E+01
   H  0.173201398E+02  0.148131812E+01 -0.229828528E+01
     4
 # iter = 42000  time[fs]=42.00000
   C -0.343626762E+01  0.679717112E-01 -0.191841814E+00
   C  0.349514415E+01 -0.126292958E+00  0.176374885E+00
   H -0.180721084E+02  0.265684603E+00  0.227536703E+01
   H  0.177010618E+02  0.151512797E+01 -0.235008018E+01
     4
 # iter = 42500  time[fs]=42.50000
   C -0.351900002E+01  0.692127985E-01 -0.196584923E+00
   C  0.357800384E+01 -0.129729274E+00  0.181655478E+00
   H -0.184679580E+02  0.271162173E+00  0.232684997E+01
   H  0.180825369E+02  0.154899273E+01 -0.240195836E+01
     4
 # iter = 43000  time[fs]=43.00000
   C -0.360199693E+01  0.704605910E-01 -0.201345924E+00
   C  0.366112656E+01 -0.133176789E+00  0.186954935E+00
   H -0.188643140E+02  0.276647041E+00  0.237840726E+01
   H  0.184645421E+02  0.158291013E+01 -0.245391655E+01
     4
 # iter = 43500  time[fs]=43.50000
   C -0.368524646E+01  0.717146240E-01 -0.206124229E+00
   C  0.374450014E+01 -0.136635181E+00  0.192272317E+00
   H -0.192611564E+02  0.282138038E+00  0.243003502E+01
   H  0.188470551E+02  0.161687724E+01 -0.250595247E+01
     4
 # iter = 44000  time[fs]=44.00000
   C -0.376873739E+01  0.729745476E-01 -0.210919201E+00
   C  0.382811328E+01 -0.140104062E+00  0.197606825E+00
   H -0.196584658E+02  0.287634535E+00  0.248173012E+01
   H  0.192300550E+02  0.165089175E+01 -0.255806349E+01
     4
 # iter = 44500  time[fs]=44.50000
   C -0.385245913E+01  0.742401309E-01 -0.215730142E+00
   C  0.391195547E+01 -0.143582967E+00  0.202957806E+00
   H -0.200562237E+02  0.293136475E+00  0.253349010E+01
   H  0.196135231E+02  0.168495205E+01 -0.261024661E+01
     4
 # iter = 45000  time[fs]=45.00000
   C -0.393640170E+01  0.755111690E-01 -0.220556383E+00
   C  0.399601689E+01 -0.147071447E+00  0.208324658E+00
   H -0.204544123E+02  0.298643865E+00  0.258531274E+01
   H  0.199974415E+02  0.171905665E+01 -0.266249891E+01
     4
 # iter = 45500  time[fs]=45.50000
   C -0.402055577E+01  0.767874380E-01 -0.225397323E+00
   C  0.408028828E+01 -0.150569111E+00  0.213706777E+00
   H -0.208530151E+02  0.304156540E+00  0.263719573E+01
   H  0.203817933E+02  0.175320397E+01 -0.271481782E+01
     4
 # iter = 46000  time[fs]=46.00000
   C -0.410491260E+01  0.780687087E-01 -0.230252414E+00
   C  0.416476088E+01 -0.154075612E+00  0.219103574E+00
   H -0.212520167E+02  0.309674240E+00  0.268913681E+01
   H  0.207665623E+02  0.178739244E+01 -0.276720099E+01
     4
 # iter = 46500  time[fs]=46.50000
   C -0.418946393E+01  0.793547686E-01 -0.235121134E+00
   C  0.424942650E+01 -0.157590616E+00  0.224514496E+00
   H -0.216514023E+02  0.315196735E+00  0.274113385E+01
   H  0.211517332E+02  0.182162055E+01 -0.281964621E+01
     4
 # iter = 47000  time[fs]=47.00000
   C -0.427420199E+01  0.806454258E-01 -0.240002980E+00
   C  0.433427738E+01 -0.161113802E+00  0.229939027E+00
   H -0.220511582E+02  0.320723854E+00  0.279318487E+01
   H  0.215372917E+02  0.185588693E+01 -0.287215130E+01
     4
 # iter = 47500  time[fs]=47.50000
   C -0.435911943E+01  0.819405016E-01 -0.244897475E+00
   C  0.441930625E+01 -0.164644861E+00  0.235376679E+00
   H -0.224512710E+02  0.326255449E+00  0.284528802E+01
   H  0.219232241E+02  0.189019030E+01 -0.292471420E+01
     4
 # iter = 48000  time[fs]=48.00000
   C -0.444420934E+01  0.832398257E-01 -0.249804168E+00
   C  0.450450620E+01 -0.168183507E+00  0.240826991E+00
   H -0.228517284E+02  0.331791369E+00  0.289744152E+01
   H  0.223095174E+02  0.192452943E+01 -0.297733297E+01
     4
 # iter = 48500  time[fs]=48.50000
   C -0.452946515E+01  0.845432358E-01 -0.254722629E+00
   C  0.458987072E+01 -0.171729465E+00  0.246289520E+00
   H -0.232525183E+02  0.337331462E+00  0.294964368E+01
   H  0.226961594E+02  0.195890313E+01 -0.303000574E+01
     4
 # iter = 49000  time[fs]=49.00000
   C -0.461488068E+01  0.858505780E-01 -0.259652456E+00
   C  0.467539367E+01 -0.175282479E+00  0.251763847E+00
   H -0.236536296E+02  0.342875584E+00  0.300189288E+01
   H  0.230831383E+02  0.199331027E+01 -0.308273077E+01
     4
 # iter = 49500  time[fs]=49.50000
   C -0.470045006E+01  0.871617072E-01 -0.264593261E+00
   C  0.476106920E+01 -0.178842303E+00  0.257249574E+00
   H -0.240550515E+02  0.348423599E+00  0.305418760E+01
   H  0.234704430E+02  0.202774979E+01 -0.313550638E+01
     4
 # iter = 50000  time[fs]=50.00000
   C -0.478616773E+01  0.884764864E-01 -0.269544677E+00
   C  0.484689179E+01 -0.182408705E+00  0.262746322E+00
   H -0.244567739E+02  0.353975381E+00  0.310652638E+01
   H  0.238580629E+02  0.206222067E+01 -0.318833097E+01
     4
 # iter = 50500  time[fs]=50.50000
   C -0.487202842E+01  0.897947854E-01 -0.274506355E+00
   C  0.493285621E+01 -0.185981462E+00  0.268253730E+00
   H -0.248587871E+02  0.359530808E+00  0.315890782E+01
   H  0.242459879E+02  0.209672194E+01 -0.324120301E+01
     4
 # iter = 51000  time[fs]=51.00000
   C -0.495802712E+01  0.911164805E-01 -0.279477962E+00
   C  0.501895747E+01 -0.189560364E+00  0.273771456E+00
   H -0.252610817E+02  0.365089764E+00  0.321133061E+01
   H  0.246342084E+02  0.213125267E+01 -0.329412105E+01
     4
 # iter = 51500  time[fs]=51.50000
   C -0.504415909E+01  0.924414545E-01 -0.284459180E+00
   C  0.510519086E+01 -0.193145211E+00  0.279299170E+00
   H -0.256636490E+02  0.370652138E+00  0.326379348E+01
   H  0.250227153E+02  0.216581197E+01 -0.334708370E+01
     4
 # iter = 52000  time[fs]=52.00000
   C -0.513041980E+01  0.937695957E-01 -0.289449708E+00
   C  0.519155188E+01 -0.196735812E+00  0.284836561E+00
   H -0.260664806E+02  0.376217824E+00  0.331629523E+01
   H  0.254114997E+02  0.220039900E+01 -0.340008962E+01
     4
 # iter = 52500  time[fs]=52.50000
   C -0.521680494E+01  0.951007981E-01 -0.294449255E+00
   C  0.527803626E+01 -0.200331984E+00  0.290383329E+00
   H -0.264695685E+02  0.381786721E+00  0.336883469E+01
   H  0.258005533E+02  0.223501294E+01 -0.345313756E+01
     4
 # iter = 53000  time[fs]=53.00000
   C -0.530331043E+01  0.964349606E-01 -0.299457547E+00
   C  0.536463993E+01 -0.203933554E+00  0.295939190E+00
   H -0.268729049E+02  0.387358734E+00  0.342141076E+01
   H  0.261898680E+02  0.226965301E+01 -0.350622629E+01
     4
 # iter = 53500  time[fs]=53.50000
   C -0.538993236E+01  0.977719871E-01 -0.304474319E+00
   C  0.545135902E+01 -0.207540357E+00  0.301503871E+00
   H -0.272764825E+02  0.392933769E+00  0.347402238E+01
   H  0.265794363E+02  0.230431849E+01 -0.355935465E+01
     4
 # iter = 54000  time[fs]=54.00000
   C -0.547666701E+01  0.991117858E-01 -0.309499318E+00
   C  0.553818984E+01 -0.211152233E+00  0.307077111E+00
   H -0.276802943E+02  0.398511740E+00  0.352666855E+01
   H  0.269692508E+02  0.233900864E+01 -0.361252153E+01
     4
 # iter = 54500  time[fs]=54.50000
   C -0.556351084E+01  0.100454269E+00 -0.314532305E+00
   C  0.562512884E+01 -0.214769031E+00  0.312658660E+00
   H -0.280843336E+02  0.404092560E+00  0.357934830E+01
   H  0.273593045E+02  0.237372280E+01 -0.366572585E+01
     4
 # iter = 55000  time[fs]=55.00000
   C -0.565046045E+01  0.101799354E+00 -0.319573047E+00
   C  0.571217268E+01 -0.218390606E+00  0.318248279E+00
   H -0.284885938E+02  0.409676149E+00  0.363206069E+01
   H  0.277495906E+02  0.240846029E+01 -0.371896658E+01
     4
 # iter = 55500  time[fs]=55.50000
   C -0.573751261E+01  0.103146960E+00 -0.324621323E+00
   C  0.579931814E+01 -0.222016821E+00  0.323845738E+00
   H -0.288930690E+02  0.415262430E+00  0.368480482E+01
   H  0.281401027E+02  0.244322051E+01 -0.377224275E+01
     4
 # iter = 56000  time[fs]=56.00000
   C -0.582466422E+01  0.104497011E+00 -0.329676921E+00
   C  0.588656214E+01 -0.225647541E+00  0.329450819E+00
   H -0.292977530E+02  0.420851329E+00  0.373757986E+01
   H  0.285308346E+02  0.247800283E+01 -0.382555341E+01
     4
 # iter = 56500  time[fs]=56.50000
   C -0.591191231E+01  0.105849435E+00 -0.334739637E+00
   C  0.597390174E+01 -0.229282639E+00  0.335063311E+00
   H -0.297026403E+02  0.426442773E+00  0.379038496E+01
   H  0.289217804E+02  0.251280669E+01 -0.387889765E+01
     4
 # iter = 57000  time[fs]=57.00000
   C -0.599925407E+01  0.107204161E+00 -0.339809276E+00
   C  0.606133414E+01 -0.232921995E+00  0.340683010E+00
   H -0.301077254E+02  0.432036694E+00  0.384321935E+01
   H  0.293129344E+02  0.254763151E+01 -0.393227459E+01
     4
 # iter = 57500  time[fs]=57.50000
   C -0.608668676E+01  0.108561123E+00 -0.344885650E+00
   C  0.614885663E+01 -0.236565490E+00  0.346309724E+00
   H -0.305130030E+02  0.437633028E+00  0.389608226E+01
   H  0.297042910E+02  0.258247678E+01 -0.398568340E+01
     4
 # iter = 58000  time[fs]=58.00000
   C -0.617420780E+01  0.109920256E+00 -0.349968579E+00
   C  0.623646664E+01 -0.240213012E+00  0.351943264E+00
   H -0.309184681E+02  0.443231709E+00  0.394897297E+01
   H  0.300958451E+02  0.261734196E+01 -0.403912326E+01
     4
 # iter = 58500  time[fs]=58.50000
   C -0.626181469E+01  0.111281500E+00 -0.355057890E+00
   C  0.632416169E+01 -0.243864453E+00  0.357583452E+00
   H -0.313241159E+02  0.448832678E+00  0.400189076E+01
   H  0.304875915E+02  0.265222656E+01 -0.409259341E+01
     4
 # iter = 59000  time[fs]=59.00000
   C -0.634950503E+01  0.112644796E+00 -0.360153416E+00
   C  0.641193941E+01 -0.247519710E+00  0.363230115E+00
   H -0.317299417E+02  0.454435875E+00  0.405483497E+01
   H  0.308795253E+02  0.268713010E+01 -0.414609308E+01
     4
 # iter = 59500  time[fs]=59.50000
   C -0.643727654E+01  0.114010086E+00 -0.365254998E+00
   C  0.649979752E+01 -0.251178683E+00  0.368883088E+00
   H -0.321359409E+02  0.460041245E+00  0.410780493E+01
   H  0.312716420E+02  0.272205212E+01 -0.419962156E+01
     4
 # iter = 60000  time[fs]=60.00000
   C -0.652512701E+01  0.115377317E+00 -0.370362480E+00
   C  0.658773383E+01 -0.254841276E+00  0.374542209E+00
   H -0.325421094E+02  0.465648733E+00  0.416080003E+01
   H  0.316639368E+02  0.275699217E+01 -0.425317815E+01
     4
 # iter = 60500  time[fs]=60.50000
   C -0.661305432E+01  0.116746436E+00 -0.375475715E+00
   C  0.667574625E+01 -0.258507397E+00  0.380207326E+00
   H -0.329484428E+02  0.471258288E+00  0.421381965E+01
   H  0.320564055E+02  0.279194983E+01 -0.430676218E+01
     4
 # iter = 61000  time[fs]=61.00000
   C -0.670105643E+01  0.118117395E+00 -0.380594559E+00
   C  0.676383275E+01 -0.262176956E+00  0.385878289E+00
   H -0.333549373E+02  0.476869857E+00  0.426686322E+01
   H  0.324490440E+02  0.282692468E+01 -0.436037300E+01
     4
 # iter = 61500  time[fs]=61.50000
   C -0.678913139E+01  0.119490143E+00 -0.385718876E+00
   C  0.685199139E+01 -0.265849870E+00  0.391554957E+00
   H -0.337615889E+02  0.482483394E+00  0.431993016E+01
   H  0.328418480E+02  0.286191631E+01 -0.441400999E+01
     4
 # iter = 62000  time[fs]=62.00000
   C -0.687727732E+01  0.120864636E+00 -0.390848530E+00
   C  0.694022031E+01 -0.269526054E+00  0.397237191E+00
   H -0.341683939E+02  0.488098851E+00  0.437301994E+01
   H  0.332348137E+02  0.289692435E+01 -0.446767253E+01
     4
 # iter = 62500  time[fs]=62.50000
   C -0.696549241E+01  0.122240829E+00 -0.395983396E+00
   C  0.702851770E+01 -0.273205430E+00  0.402924857E+00
   H -0.345753487E+02  0.493716183E+00  0.442613202E+01
   H  0.336279374E+02  0.293194842E+01 -0.452136006E+01
     4
 # iter = 63000  time[fs]=63.00000
   C -0.705377490E+01  0.123618678E+00 -0.401123348E+00
   C  0.711688184E+01 -0.276887921E+00  0.408617829E+00
   H -0.349824498E+02  0.499335346E+00  0.447926591E+01
   H  0.340212153E+02  0.296698816E+01 -0.457507200E+01
     4
 # iter = 63500  time[fs]=63.50000
   C -0.714212312E+01  0.124998142E+00 -0.406268268E+00
   C  0.720531106E+01 -0.280573453E+00  0.414315981E+00
   H -0.353896939E+02  0.504956298E+00  0.453242110E+01
   H  0.344146440E+02  0.300204321E+01 -0.462880781E+01
     4
 # iter = 64000  time[fs]=64.00000
   C -0.723053544E+01  0.126379182E+00 -0.411418040E+00
   C  0.729380374E+01 -0.284261955E+00  0.420019194E+00
   H -0.357970777E+02  0.510578998E+00  0.458559713E+01
   H  0.348082200E+02  0.303711325E+01 -0.468256696E+01
     4
 # iter = 64500  time[fs]=64.50000
   C -0.731901031E+01  0.127761759E+00 -0.416572553E+00
   C  0.738235835E+01 -0.287953357E+00  0.425727353E+00
   H -0.362045981E+02  0.516203408E+00  0.463879354E+01
   H  0.352019401E+02  0.307219795E+01 -0.473634894E+01
     4
 # iter = 65000  time[fs]=65.00000
   C -0.740754621E+01  0.129145836E+00 -0.421731699E+00
   C  0.747097338E+01 -0.291647594E+00  0.431440345E+00
   H -0.366122520E+02  0.521829488E+00  0.469200988E+01
   H  0.355958010E+02  0.310729698E+01 -0.479015326E+01
     4
 # iter = 65500  time[fs]=65.50000
   C -0.749614170E+01  0.130531377E+00 -0.426895374E+00
   C  0.755964740E+01 -0.295344600E+00  0.437158063E+00
   H -0.370200365E+02  0.527457202E+00  0.474524572E+01
   H  0.359897998E+02  0.314241005E+01 -0.484397944E+01
     4
 # iter = 66000  time[fs]=66.00000
   C -0.758479536E+01  0.131918348E+00 -0.432063478E+00
   C  0.764837901E+01 -0.299044315E+00  0.442880401E+00
   H -0.374279488E+02  0.533086515E+00  0.479850065E+01
   H  0.363839333E+02  0.317753685E+01 -0.489782702E+01
     4
 # iter = 66500  time[fs]=66.50000
   C -0.767350585E+01  0.133306716E+00 -0.437235912E+00
   C  0.773716686E+01 -0.302746676E+00  0.448607260E+00
   H -0.378359862E+02  0.538717391E+00  0.485177426E+01
   H  0.367781988E+02  0.321267711E+01 -0.495169555E+01
     4
 # iter = 67000  time[fs]=67.00000
   C -0.776227184E+01  0.134696447E+00 -0.442412583E+00
   C  0.782600967E+01 -0.306451628E+00  0.454338540E+00
   H -0.382441458E+02  0.544349798E+00  0.490506617E+01
   H  0.371725933E+02  0.324783053E+01 -0.500558459E+01
     4
 # iter = 67500  time[fs]=67.50000
   C -0.785109208E+01  0.136087512E+00 -0.447593400E+00
   C  0.791490616E+01 -0.310159112E+00  0.460074148E+00
   H -0.386524253E+02  0.549983703E+00  0.495837599E+01
   H  0.375671143E+02  0.328299686E+01 -0.505949372E+01
     4
 # iter = 68000  time[fs]=68.00000
   C -0.793996535E+01  0.137479880E+00 -0.452778275E+00
   C  0.800385514E+01 -0.313869075E+00  0.465813991E+00
   H -0.390608220E+02  0.555619075E+00  0.501170336E+01
   H  0.379617591E+02  0.331817583E+01 -0.511342254E+01
     4
 # iter = 68500  time[fs]=68.50000
   C -0.802889045E+01  0.138873522E+00 -0.457967120E+00
   C  0.809285542E+01 -0.317581464E+00  0.471557980E+00
   H -0.394693336E+02  0.561255883E+00  0.506504792E+01
   H  0.383565251E+02  0.335336719E+01 -0.516737065E+01
     4
 # iter = 69000  time[fs]=69.00000
   C -0.811786624E+01  0.140268409E+00 -0.463159855E+00
   C  0.818190587E+01 -0.321296227E+00  0.477306029E+00
   H -0.398779577E+02  0.566894098E+00  0.511840934E+01
   H  0.387514099E+02  0.338857068E+01 -0.522133766E+01
     4
 # iter = 69500  time[fs]=69.50000
   C -0.820689162E+01  0.141664515E+00 -0.468356397E+00
   C  0.827100539E+01 -0.325013316E+00  0.483058054E+00
   H -0.402866921E+02  0.572533692E+00  0.517178726E+01
   H  0.391464111E+02  0.342378608E+01 -0.527532321E+01
     4
 # iter = 70000  time[fs]=70.00000
   C -0.829596551E+01  0.143061814E+00 -0.473556670E+00
   C  0.836015292E+01 -0.328732682E+00  0.488813975E+00
   H -0.406955344E+02  0.578174636E+00  0.522518137E+01
   H  0.395415263E+02  0.345901314E+01 -0.532932692E+01
     4
 # iter = 70500  time[fs]=70.50000
   C -0.838508687E+01  0.144460279E+00 -0.478760597E+00
   C  0.844934743E+01 -0.332454278E+00  0.494573712E+00
   H -0.411044827E+02  0.583816904E+00  0.527859136E+01
   H  0.399367534E+02  0.349425165E+01 -0.538334845E+01
     4
 # iter = 71000  time[fs]=71.00000
   C -0.847425469E+01  0.145859886E+00 -0.483968106E+00
   C  0.853858792E+01 -0.336178060E+00  0.500337190E+00
   H -0.415135347E+02  0.589460469E+00  0.533201691E+01
   H  0.403320900E+02  0.352950138E+01 -0.543738746E+01
     4
 # iter = 71500  time[fs]=71.50000
   C -0.856346801E+01  0.147260611E+00 -0.489179125E+00
   C  0.862787342E+01 -0.339903984E+00  0.506104334E+00
   H -0.419226886E+02  0.595105307E+00  0.538545773E+01
   H  0.407275341E+02  0.356476212E+01 -0.549144361E+01
     4
 # iter = 72000  time[fs]=72.00000
   C -0.865272586E+01  0.148662431E+00 -0.494393584E+00
   C  0.871720300E+01 -0.343632007E+00  0.511875072E+00
   H -0.423319422E+02  0.600751393E+00  0.543891353E+01
   H  0.411230837E+02  0.360003367E+01 -0.554551658E+01
     4
 # iter = 72500  time[fs]=72.50000
   C -0.874202734E+01  0.150065323E+00 -0.499611418E+00
   C  0.880657575E+01 -0.347362087E+00  0.517649335E+00
   H -0.427412937E+02  0.606398702E+00  0.549238403E+01
   H  0.415187367E+02  0.363531582E+01 -0.559960605E+01
     4
 # iter = 73000  time[fs]=73.00000
   C -0.883137156E+01  0.151469265E+00 -0.504832560E+00
   C  0.889599078E+01 -0.351094186E+00  0.523427054E+00
   H -0.431507413E+02  0.612047212E+00  0.554586895E+01
   H  0.419144911E+02  0.367060838E+01 -0.565371173E+01
     4
 # iter = 73500  time[fs]=73.50000
   C -0.892075766E+01  0.152874237E+00 -0.510056947E+00
   C  0.898544724E+01 -0.354828263E+00  0.529208164E+00
   H -0.435602832E+02  0.617696899E+00  0.559936803E+01
   H  0.423103451E+02  0.370591116E+01 -0.570783331E+01
     4
 # iter = 74000  time[fs]=74.00000
   C -0.901018479E+01  0.154280217E+00 -0.515284517E+00
   C  0.907494431E+01 -0.358564281E+00  0.534992601E+00
   H -0.439699175E+02  0.623347743E+00  0.565288101E+01
   H  0.427062968E+02  0.374122396E+01 -0.576197051E+01
     4
 # iter = 74500  time[fs]=74.50000
   C -0.909965214E+01  0.155687186E+00 -0.520515212E+00
   C  0.916448117E+01 -0.362302203E+00  0.540780302E+00
   H -0.443796427E+02  0.628999721E+00  0.570640764E+01
   H  0.431023445E+02  0.377654663E+01 -0.581612305E+01
     4
 # iter = 75000  time[fs]=75.00000
   C -0.918915893E+01  0.157095124E+00 -0.525748972E+00
   C  0.925405704E+01 -0.366041994E+00  0.546571207E+00
   H -0.447894570E+02  0.634652813E+00  0.575994767E+01
   H  0.434984863E+02  0.381187896E+01 -0.587029064E+01
     4
 # iter = 75500  time[fs]=75.50000
   C -0.927870438E+01  0.158504013E+00 -0.530985740E+00
   C  0.934367116E+01 -0.369783618E+00  0.552365256E+00
   H -0.451993588E+02  0.640306999E+00  0.581350087E+01
   H  0.438947206E+02  0.384722081E+01 -0.592447303E+01
     4
 # iter = 76000  time[fs]=76.00000
   C -0.936828775E+01  0.159913834E+00 -0.536225463E+00
   C  0.943332280E+01 -0.373527043E+00  0.558162393E+00
   H -0.456093465E+02  0.645962258E+00  0.586706700E+01
   H  0.442910458E+02  0.388257199E+01 -0.597866996E+01
     4
 # iter = 76500  time[fs]=76.50000
   C -0.945790833E+01  0.161324569E+00 -0.541468086E+00
   C  0.952301124E+01 -0.377272234E+00  0.563962561E+00
   H -0.460194187E+02  0.651618573E+00  0.592064584E+01
   H  0.446874602E+02  0.391793235E+01 -0.603288117E+01
     4
 # iter = 77000  time[fs]=77.00000
   C -0.954756539E+01  0.162736201E+00 -0.546713557E+00
   C  0.961273578E+01 -0.381019161E+00  0.569765706E+00
   H -0.464295739E+02  0.657275923E+00  0.597423717E+01
   H  0.450839622E+02  0.395330173E+01 -0.608710641E+01
     4
 # iter = 77500  time[fs]=77.50000
   C -0.963725827E+01  0.164148713E+00 -0.551961825E+00
   C  0.970249575E+01 -0.384767792E+00  0.575571776E+00
   H -0.468398105E+02  0.662934292E+00  0.602784077E+01
   H  0.454805504E+02  0.398867998E+01 -0.614134546E+01
     4
 # iter = 78000  time[fs]=78.00000
   C -0.972698629E+01  0.165562090E+00 -0.557212841E+00
   C  0.979229047E+01 -0.388518096E+00  0.581380719E+00
   H -0.472501272E+02  0.668593660E+00  0.608145643E+01
   H  0.458772232E+02  0.402406694E+01 -0.619559807E+01
     4
 # iter = 78500  time[fs]=78.50000
   C -0.981674881E+01  0.166976314E+00 -0.562466557E+00
   C  0.988211932E+01 -0.392270044E+00  0.587192484E+00
   H -0.476605227E+02  0.674254012E+00  0.613508395E+01
   H  0.462739792E+02  0.405946248E+01 -0.624986401E+01
     4
 # iter = 79000  time[fs]=79.00000
   C -0.990654519E+01  0.168391371E+00 -0.567722926E+00
   C  0.997198167E+01 -0.396023608E+00  0.593007024E+00
   H -0.480709954E+02  0.679915330E+00  0.618872313E+01
   H  0.466708170E+02  0.409486644E+01 -0.630414306E+01
     4
 # iter = 79500  time[fs]=79.50000
   C -0.999637483E+01  0.169807245E+00 -0.572981902E+00
   C  0.100618769E+02 -0.399778759E+00  0.598824289E+00
   H -0.484815443E+02  0.685577598E+00  0.624237378E+01
   H  0.470677352E+02  0.413027868E+01 -0.635843502E+01
     4
 # iter = 80000  time[fs]=80.00000
   C -0.100862371E+02  0.171223923E+00 -0.578243440E+00
   C  0.101518045E+02 -0.403535469E+00  0.604644234E+00
   H -0.488921679E+02  0.691240799E+00  0.629603571E+01
   H  0.474647324E+02  0.416569908E+01 -0.641273965E+01
