     4
 # iter = 25000  time[fs]=25.00000
   C -0.980134641E+00 -0.289143861E-01  0.153502541E-02
   C  0.997257436E+00  0.153482620E-01 -0.198767004E-01
   H -0.531860995E+01 -0.562278014E+00 -0.603854050E+00
   H  0.531616379E+01  0.498094039E+00  0.665658161E+00
     4
 # iter = 25500  time[fs]=25.50000
   C -0.102662187E+01 -0.297795443E-01  0.277831786E-02
   C  0.103825883E+01  0.116835394E-01 -0.235081431E-01
   H -0.565498145E+01 -0.605642420E+00 -0.648520244E+00
   H  0.562208213E+01  0.517874876E+00  0.699436512E+00
     4
 # iter = 26000  time[fs]=26.00000
   C -0.107730869E+01 -0.316387079E-01  0.313743837E-02
   C  0.108152141E+01  0.707967225E-02 -0.281940071E-01
   H -0.599931725E+01 -0.654698254E+00 -0.698909108E+00
   H  0.592519251E+01  0.532511890E+00  0.728167603E+00
     4
 # iter = 26500  time[fs]=26.50000
   C -0.112912847E+01 -0.316881043E-01  0.540560841E-02
   C  0.112973968E+01  0.449601226E-02 -0.309639578E-01
   H -0.633523687E+01 -0.693324538E+00 -0.738895869E+00
   H  0.624132856E+01  0.558074264E+00  0.767911638E+00
     4
 # iter = 27000  time[fs]=27.00000
   C -0.118168626E+01 -0.297805114E-01  0.972048117E-02
   C  0.118280356E+01  0.407021465E-02 -0.316703444E-01
   H -0.666170733E+01 -0.720698913E+00 -0.767655157E+00
   H  0.657105216E+01  0.595334322E+00  0.819432811E+00
     4
 # iter = 27500  time[fs]=27.50000
   C -0.123682200E+01 -0.279863404E-01  0.140030259E-01
   C  0.123826625E+01  0.358457546E-02 -0.325218354E-01
   H -0.699050486E+01 -0.748769840E+00 -0.797133018E+00
   H  0.690217713E+01  0.632294787E+00  0.870726441E+00
     4
 # iter = 28000  time[fs]=28.00000
   C -0.129578821E+01 -0.277696531E-01  0.167814525E-01
   C  0.129434732E+01  0.146906759E-02 -0.350803675E-01
   H -0.732993108E+01 -0.785987938E+00 -0.835778015E+00
   H  0.722604925E+01  0.660463929E+00  0.913294395E+00
     4
 # iter = 28500  time[fs]=28.50000
   C -0.135779352E+01 -0.285313693E-01  0.186479353E-01
   C  0.135148128E+01 -0.164967084E-02 -0.387121021E-01
   H -0.767641232E+01 -0.828913552E+00 -0.880148667E+00
   H  0.754594159E+01  0.683251045E+00  0.950540607E+00
     4
 # iter = 29000  time[fs]=29.00000
   C -0.142120212E+01 -0.288100040E-01  0.210578005E-01
   C  0.141103941E+01 -0.422582022E-02 -0.418648118E-01
   H -0.802141781E+01 -0.869135264E+00 -0.921831946E+00
   H  0.787012519E+01  0.709043715E+00  0.990848064E+00
     4
 # iter = 29500  time[fs]=29.50000
   C -0.148534935E+01 -0.280989030E-01  0.245122159E-01
   C  0.147339558E+01 -0.572753198E-02 -0.440009331E-01
   H -0.836193147E+01 -0.903740477E+00 -0.957913870E+00
   H  0.820138572E+01  0.740731419E+00  0.103710211E+01
     4
 # iter = 30000  time[fs]=30.00000
   C -0.155079519E+01 -0.271010497E-01  0.283033124E-01
   C  0.153765374E+01 -0.690822587E-02 -0.458687835E-01
   H -0.870191884E+01 -0.936783980E+00 -0.992448043E+00
   H  0.853555081E+01  0.774235724E+00  0.108522054E+01
     4
 # iter = 30500  time[fs]=30.50000
   C -0.161819547E+01 -0.266014287E-01  0.316417522E-01
   C  0.160284565E+01 -0.860745049E-02 -0.483033614E-01
   H -0.904582680E+01 -0.972791249E+00 -0.102995890E+01
   H  0.886798966E+01  0.805009741E+00  0.113065305E+01
     4
 # iter = 31000  time[fs]=31.00000
   C -0.168744299E+01 -0.266092260E-01  0.345144667E-01
   C  0.166884168E+01 -0.108387056E-01 -0.513141109E-01
   H -0.939363868E+01 -0.101181639E+01 -0.107049962E+01
   H  0.919855707E+01  0.832982252E+00  0.117332542E+01
     4
 # iter = 31500  time[fs]=31.50000
   C -0.175791792E+01 -0.266095172E-01  0.374329138E-01
   C  0.173608173E+01 -0.130573118E-01 -0.543527326E-01
   H -0.974232375E+01 -0.105089266E+01 -0.111110261E+01
   H  0.953014051E+01  0.861106180E+00  0.121618789E+01
     4
 # iter = 32000  time[fs]=32.00000
   C -0.182920604E+01 -0.262827938E-01  0.407135013E-01
   C  0.180480861E+01 -0.149258609E-01 -0.570785789E-01
   H -0.100899831E+02 -0.108817856E+01 -0.114992562E+01
   H  0.986450981E+01  0.891210215E+00  0.126106674E+01
     4
 # iter = 32500  time[fs]=32.50000
   C -0.190135565E+01 -0.257629783E-01  0.442195292E-01
   C  0.187479249E+01 -0.165887570E-01 -0.596331473E-01
   H -0.104373359E+02 -0.112444461E+01 -0.118773851E+01
   H  0.102008282E+02  0.922511060E+00  0.130717643E+01
     4
 # iter = 33000  time[fs]=33.00000
   C -0.197456665E+01 -0.253274482E-01  0.476711265E-01
   C  0.194565948E+01 -0.183425990E-01 -0.623104248E-01
   H -0.107859327E+02 -0.116128746E+01 -0.122613731E+01
   H  0.105374384E+02  0.953400079E+00  0.135290631E+01
     4
 # iter = 33500  time[fs]=33.50000
   C -0.204884969E+01 -0.250570058E-01  0.509852489E-01
   C  0.201725242E+01 -0.202745797E-01 -0.651952534E-01
   H -0.111361951E+02 -0.119917074E+01 -0.126558511E+01
   H  0.108738224E+02  0.983403249E+00  0.139778051E+01
     4
 # iter = 34000  time[fs]=34.00000
   C -0.212402195E+01 -0.248324607E-01  0.542790654E-01
   C  0.208963360E+01 -0.222589113E-01 -0.681597256E-01
   H -0.114873958E+02 -0.123740549E+01 -0.130539245E+01
   H  0.112106203E+02  0.101320062E+01  0.144247739E+01
     4
 # iter = 34500  time[fs]=34.50000
   C -0.219990920E+01 -0.245373675E-01  0.576671961E-01
   C  0.216286843E+01 -0.241725156E-01 -0.710788472E-01
   H -0.118388267E+02 -0.127531843E+01 -0.134488557E+01
   H  0.115484609E+02  0.104345739E+01  0.148766059E+01
     4
 # iter = 35000  time[fs]=35.00000
   C -0.227646041E+01 -0.241732996E-01  0.611464154E-01
   C  0.223690214E+01 -0.260176754E-01 -0.739531651E-01
   H -0.121904625E+02 -0.131291620E+01 -0.138407072E+01
   H  0.118872963E+02  0.107415914E+01  0.153331430E+01
     4
 # iter = 35500  time[fs]=35.50000
   C -0.235369371E+01 -0.238063458E-01  0.646491360E-01
   C  0.231161615E+01 -0.278651543E-01 -0.768518669E-01
   H -0.125426522E+02 -0.135057715E+01 -0.142332585E+01
   H  0.122267104E+02  0.110492026E+01  0.157905157E+01
     4
 # iter = 36000  time[fs]=36.00000
   C -0.243160124E+01 -0.234724128E-01  0.681380892E-01
   C  0.238692825E+01 -0.297534981E-01 -0.798120643E-01
   H -0.128955736E+02 -0.138850569E+01 -0.146285503E+01
   H  0.125664638E+02  0.113552970E+01  0.162466014E+01
     4
 # iter = 36500  time[fs]=36.50000
   C -0.251012702E+01 -0.231555650E-01  0.716279702E-01
   C  0.246281519E+01 -0.316660161E-01 -0.828157595E-01
   H -0.132491075E+02 -0.142660752E+01 -0.150256362E+01
   H  0.129066190E+02  0.116607579E+01  0.167022721E+01
     4
 # iter = 37000  time[fs]=37.00000
   C -0.258920654E+01 -0.228279693E-01  0.751454799E-01
   C  0.253926980E+01 -0.335732862E-01 -0.858323366E-01
   H -0.136030682E+02 -0.146471981E+01 -0.154228850E+01
   H  0.132473093E+02  0.119671588E+01  0.171590910E+01
     4
 # iter = 37500  time[fs]=37.50000
   C -0.266879922E+01 -0.224827130E-01  0.786964957E-01
   C  0.261626575E+01 -0.354680769E-01 -0.888534711E-01
   H -0.139573926E+02 -0.150280034E+01 -0.158198716E+01
   H  0.135885496E+02  0.122748707E+01  0.176174191E+01
     4
 # iter = 38000  time[fs]=38.00000
   C -0.274888450E+01 -0.221301831E-01  0.822696823E-01
   C  0.269376104E+01 -0.373615068E-01 -0.918892794E-01
   H -0.143121184E+02 -0.154090663E+01 -0.162171686E+01
   H  0.139302570E+02  0.125832702E+01  0.180766244E+01
     4
 # iter = 38500  time[fs]=38.50000
   C -0.282944283E+01 -0.217793293E-01  0.858552192E-01
   C  0.277171772E+01 -0.392631246E-01 -0.949483896E-01
   H -0.146672769E+02 -0.157908796E+01 -0.166152665E+01
   H  0.142723587E+02  0.128918199E+01  0.185361607E+01
     4
 # iter = 39000  time[fs]=39.00000
   C -0.291044758E+01 -0.214297975E-01  0.894526599E-01
   C  0.285010997E+01 -0.411725497E-01 -0.980295731E-01
   H -0.150228469E+02 -0.161734009E+01 -0.170141206E+01
   H  0.146148369E+02  0.132005209E+01  0.189960213E+01
     4
 # iter = 39500  time[fs]=39.50000
   C -0.299187002E+01 -0.210771374E-01  0.930657169E-01
   C  0.292891833E+01 -0.430850175E-01 -0.101127284E+00
   H -0.153787850E+02 -0.165563525E+01 -0.174134511E+01
   H  0.149576991E+02  0.135096124E+01  0.194564381E+01
     4
 # iter = 40000  time[fs]=40.00000
   C -0.307368559E+01 -0.207192422E-01  0.966958165E-01
   C  0.300812271E+01 -0.449982343E-01 -0.104238506E+00
   H -0.157350622E+02 -0.169395925E+01 -0.178131140E+01
   H  0.153009404E+02  0.138192004E+01  0.199175102E+01
     4
 # iter = 40500  time[fs]=40.50000
   C -0.315587447E+01 -0.203571114E-01  0.100341330E+00
   C  0.308770138E+01 -0.469131937E-01 -0.107363565E+00
   H -0.160916687E+02 -0.173231585E+01 -0.182131454E+01
   H  0.156445392E+02  0.141292135E+01  0.203791597E+01
     4
 # iter = 41000  time[fs]=41.00000
   C -0.323841885E+01 -0.199922385E-01  0.104000180E+00
   C  0.316763357E+01 -0.488314012E-01 -0.110503348E+00
   H -0.164485983E+02 -0.177071177E+01 -0.186136105E+01
   H  0.159884721E+02  0.144395530E+01  0.208412817E+01
     4
 # iter = 41500  time[fs]=41.50000
   C -0.332130115E+01 -0.196249758E-01  0.107671476E+00
   C  0.324790111E+01 -0.507531375E-01 -0.113657560E+00
   H -0.168058392E+02 -0.180914721E+01 -0.190145096E+01
   H  0.163327232E+02  0.147501873E+01  0.213038390E+01
     4
 # iter = 42000  time[fs]=42.00000
   C -0.340450422E+01 -0.192549013E-01  0.111355137E+00
   C  0.332848792E+01 -0.526778517E-01 -0.116825117E+00
   H -0.171633759E+02 -0.184761797E+01 -0.194157995E+01
   H  0.166772821E+02  0.150611305E+01  0.217668401E+01
     4
 # iter = 42500  time[fs]=42.50000
   C -0.348801223E+01 -0.188817098E-01  0.115051001E+00
   C  0.340937891E+01 -0.546051115E-01 -0.120005088E+00
   H -0.175211945E+02 -0.188612061E+01 -0.198174442E+01
   H  0.170221383E+02  0.153723908E+01  0.222302883E+01
     4
 # iter = 43000  time[fs]=43.00000
   C -0.357181071E+01 -0.185054817E-01  0.118758553E+00
   C  0.349055964E+01 -0.565348896E-01 -0.123196984E+00
   H -0.178792837E+02 -0.192465398E+01 -0.202194308E+01
   H  0.173672800E+02  0.156839552E+01  0.226941657E+01
     4
 # iter = 43500  time[fs]=43.50000
   C -0.365588634E+01 -0.181264338E-01  0.122477171E+00
   C  0.357201647E+01 -0.584673016E-01 -0.126400485E+00
   H -0.182376340E+02 -0.196321778E+01 -0.206217551E+01
   H  0.177126954E+02  0.159958035E+01  0.231584475E+01
     4
 # iter = 44000  time[fs]=44.00000
   C -0.374022655E+01 -0.177446929E-01  0.126206348E+00
   C  0.365373675E+01 -0.604023648E-01 -0.129615206E+00
   H -0.185962356E+02 -0.200181124E+01 -0.210244081E+01
   H  0.180583735E+02  0.163079211E+01  0.236231150E+01
     4
 # iter = 44500  time[fs]=44.50000
   C -0.382481948E+01 -0.173602894E-01  0.129945702E+00
   C  0.373570873E+01 -0.623399933E-01 -0.132840681E+00
   H -0.189550791E+02 -0.204043312E+01 -0.214273764E+01
   H  0.184043047E+02  0.166203000E+01  0.240881558E+01
     4
 # iter = 45000  time[fs]=45.00000
   C -0.390965402E+01 -0.169732442E-01  0.133694878E+00
   C  0.381792138E+01 -0.642800910E-01 -0.136076459E+00
   H -0.193141552E+02 -0.207908217E+01 -0.218306464E+01
   H  0.187504800E+02  0.169329330E+01  0.245535591E+01
     4
 # iter = 45500  time[fs]=45.50000
   C -0.399471976E+01 -0.165836104E-01  0.137453512E+00
   C  0.390036436E+01 -0.662225964E-01 -0.139322145E+00
   H -0.196734555E+02 -0.211775739E+01 -0.222342069E+01
   H  0.190968906E+02  0.172458114E+01  0.250193125E+01
     4
 # iter = 46000  time[fs]=46.00000
   C -0.408000695E+01 -0.161914588E-01  0.141221242E+00
   C  0.398302791E+01 -0.681674678E-01 -0.142577386E+00
   H -0.200329721E+02 -0.215645793E+01 -0.226380485E+01
   H  0.194435281E+02  0.175589264E+01  0.254854035E+01
     4
 # iter = 46500  time[fs]=46.50000
   C -0.416550641E+01 -0.157968557E-01  0.144997727E+00
   C  0.406590287E+01 -0.701146598E-01 -0.145841840E+00
   H -0.203926975E+02 -0.219518296E+01 -0.230421621E+01
   H  0.197903845E+02  0.178722692E+01  0.259518203E+01
     4
 # iter = 47000  time[fs]=47.00000
   C -0.425120948E+01 -0.153998582E-01  0.148782652E+00
   C  0.414898061E+01 -0.720641193E-01 -0.149115179E+00
   H -0.207526244E+02 -0.223393166E+01 -0.234465386E+01
   H  0.201374524E+02  0.181858324E+01  0.264185521E+01
     4
 # iter = 47500  time[fs]=47.50000
   C -0.433710802E+01 -0.150005200E-01  0.152575720E+00
   C  0.423225301E+01 -0.740157912E-01 -0.152397085E+00
   H -0.211127461E+02 -0.227270323E+01 -0.238511690E+01
   H  0.204847247E+02  0.184996089E+01  0.268855888E+01
     4
 # iter = 48000  time[fs]=48.00000
   C -0.442319433E+01 -0.145988956E-01  0.156376646E+00
   C  0.431571241E+01 -0.759696234E-01 -0.155687260E+00
   H -0.214730560E+02 -0.231149692E+01 -0.242560451E+01
   H  0.208321945E+02  0.188135918E+01  0.273529207E+01
     4
 # iter = 48500  time[fs]=48.50000
   C -0.450946114E+01 -0.141950398E-01  0.160185161E+00
   C  0.439935157E+01 -0.779255665E-01 -0.158985422E+00
   H -0.218335480E+02 -0.235031202E+01 -0.246611591E+01
   H  0.211798555E+02  0.191277745E+01  0.278205386E+01
     4
 # iter = 49000  time[fs]=49.00000
   C -0.459590161E+01 -0.137890060E-01  0.164001007E+00
   C  0.448316364E+01 -0.798835720E-01 -0.162291302E+00
   H -0.221942162E+02 -0.238914786E+01 -0.250665036E+01
   H  0.215277015E+02  0.194421507E+01  0.282884334E+01
     4
 # iter = 49500  time[fs]=49.50000
   C -0.468250923E+01 -0.133808462E-01  0.167823937E+00
   C  0.456714216E+01 -0.818435921E-01 -0.165604645E+00
   H -0.225550551E+02 -0.242800380E+01 -0.254720714E+01
   H  0.218757267E+02  0.197567145E+01  0.287565967E+01
     4
 # iter = 50000  time[fs]=50.00000
   C -0.476927787E+01 -0.129706107E-01  0.171653719E+00
   C  0.465128100E+01 -0.838055799E-01 -0.168925206E+00
   H -0.229160593E+02 -0.246687922E+01 -0.258778557E+01
   H  0.222239255E+02  0.200714601E+01  0.292250205E+01
     4
 # iter = 50500  time[fs]=50.50000
   C -0.485620168E+01 -0.125583485E-01  0.175490131E+00
   C  0.473557435E+01 -0.857694897E-01 -0.172252753E+00
   H -0.232772238E+02 -0.250577354E+01 -0.262838499E+01
   H  0.225722925E+02  0.203863821E+01  0.296936970E+01
     4
 # iter = 51000  time[fs]=51.00000
   C -0.494327515E+01 -0.121441074E-01  0.179332961E+00
   C  0.482001671E+01 -0.877352769E-01 -0.175587064E+00
   H -0.236385436E+02 -0.254468620E+01 -0.266900480E+01
   H  0.229208227E+02  0.207014754E+01  0.301626189E+01
     4
 # iter = 51500  time[fs]=51.50000
   C -0.503049303E+01 -0.117279340E-01  0.183182006E+00
   C  0.490460285E+01 -0.897028982E-01 -0.178927926E+00
   H -0.240000141E+02 -0.258361665E+01 -0.270964440E+01
   H  0.232695113E+02  0.210167348E+01  0.306317790E+01
     4
 # iter = 52000  time[fs]=52.00000
   C -0.511785034E+01 -0.113098736E-01  0.187037073E+00
   C  0.498932779E+01 -0.916723115E-01 -0.182275138E+00
   H -0.243616310E+02 -0.262256440E+01 -0.275030322E+01
   H  0.236183535E+02  0.213321557E+01  0.311011706E+01
     4
 # iter = 52500  time[fs]=52.50000
   C -0.520534234E+01 -0.108899700E-01  0.190897978E+00
   C  0.507418684E+01 -0.936434756E-01 -0.185628507E+00
   H -0.247233900E+02 -0.266152894E+01 -0.279098071E+01
   H  0.239673450E+02  0.216477335E+01  0.315707873E+01
     4
 # iter = 53000  time[fs]=53.00000
   C -0.529296453E+01 -0.104682662E-01  0.194764544E+00
   C  0.515917548E+01 -0.956163505E-01 -0.188987847E+00
   H -0.250852869E+02 -0.270050981E+01 -0.283167635E+01
   H  0.243164816E+02  0.219634639E+01  0.320406227E+01
     4
 # iter = 53500  time[fs]=53.50000
   C -0.538071261E+01 -0.100448034E-01  0.198636602E+00
   C  0.524428944E+01 -0.975908973E-01 -0.192352983E+00
   H -0.254473180E+02 -0.273950655E+01 -0.287238965E+01
   H  0.246657590E+02  0.222793426E+01  0.325106711E+01
     4
 # iter = 54000  time[fs]=54.00000
   C -0.546858249E+01 -0.961962211E-02  0.202513990E+00
   C  0.532952466E+01 -0.995670783E-01 -0.195723744E+00
   H -0.258094794E+02 -0.277851874E+01 -0.291312013E+01
   H  0.250151735E+02  0.225953655E+01  0.329809265E+01
     4
 # iter = 54500  time[fs]=54.50000
   C -0.555657027E+01 -0.919276139E-02  0.206396555E+00
   C  0.541487724E+01 -0.101544857E+00 -0.199099968E+00
   H -0.261717677E+02 -0.281754596E+01 -0.295386732E+01
   H  0.253647212E+02  0.229115290E+01  0.334513837E+01
     4
 # iter = 55000  time[fs]=55.00000
   C -0.564467225E+01 -0.876425925E-02  0.210284147E+00
   C  0.550034348E+01 -0.103524197E+00 -0.202481500E+00
   H -0.265341793E+02 -0.285658781E+01 -0.299463078E+01
   H  0.257143986E+02  0.232278292E+01  0.339220372E+01
     4
 # iter = 55500  time[fs]=55.50000
   C -0.573288485E+01 -0.833415260E-02  0.214176625E+00
   C  0.558591985E+01 -0.105505064E+00 -0.205868191E+00
   H -0.268967110E+02 -0.289564390E+01 -0.303541010E+01
   H  0.260642023E+02  0.235442625E+01  0.343928820E+01
     4
 # iter = 56000  time[fs]=56.00000
   C -0.582120470E+01 -0.790247723E-02  0.218073852E+00
   C  0.567160296E+01 -0.107487425E+00 -0.209259898E+00
   H -0.272593596E+02 -0.293471388E+01 -0.307620485E+01
   H  0.264141288E+02  0.238608257E+01  0.348639132E+01
     4
 # iter = 56500  time[fs]=56.50000
   C -0.590962855E+01 -0.746926793E-02  0.221975698E+00
   C  0.575738958E+01 -0.109471246E+00 -0.212656483E+00
   H -0.276221221E+02 -0.297379738E+01 -0.311701466E+01
   H  0.267641751E+02  0.241775153E+01  0.353351261E+01
     4
 # iter = 57000  time[fs]=57.00000
   C -0.599815329E+01 -0.703455843E-02  0.225882036E+00
   C  0.584327662E+01 -0.111456496E+00 -0.216057816E+00
   H -0.279849956E+02 -0.301289407E+01 -0.315783913E+01
   H  0.271143380E+02  0.244943281E+01  0.358065163E+01
     4
 # iter = 57500  time[fs]=57.50000
   C -0.608677596E+01 -0.659838152E-02  0.229792746E+00
   C  0.592926112E+01 -0.113443144E+00 -0.219463769E+00
   H -0.283479772E+02 -0.305200362E+01 -0.319867792E+01
   H  0.274646147E+02  0.248112613E+01  0.362780793E+01
     4
 # iter = 58000  time[fs]=58.00000
   C -0.617549371E+01 -0.616076899E-02  0.233707712E+00
   C  0.601534026E+01 -0.115431160E+00 -0.222874220E+00
   H -0.287110642E+02 -0.309112570E+01 -0.323953066E+01
   H  0.278150021E+02  0.251283117E+01  0.367498110E+01
     4
 # iter = 58500  time[fs]=58.50000
   C -0.626430383E+01 -0.572175173E-02  0.237626822E+00
   C  0.610151131E+01 -0.117420515E+00 -0.226289052E+00
   H -0.290742540E+02 -0.313026003E+01 -0.328039702E+01
   H  0.281654977E+02  0.254454766E+01  0.372217074E+01
     4
 # iter = 59000  time[fs]=59.00000
   C -0.635320369E+01 -0.528135973E-02  0.241549970E+00
   C  0.618777168E+01 -0.119411180E+00 -0.229708153E+00
   H -0.294375441E+02 -0.316940630E+01 -0.332127668E+01
   H  0.285160988E+02  0.257627532E+01  0.376937644E+01
     4
 # iter = 59500  time[fs]=59.50000
   C -0.644219079E+01 -0.483962212E-02  0.245477051E+00
   C  0.627411887E+01 -0.121403128E+00 -0.233131414E+00
   H -0.298009322E+02 -0.320856424E+01 -0.336216932E+01
   H  0.288668028E+02  0.260801390E+01  0.381659784E+01
     4
 # iter = 60000  time[fs]=60.00000
   C -0.653126274E+01 -0.439656717E-02  0.249407967E+00
   C  0.636055049E+01 -0.123396333E+00 -0.236558732E+00
   H -0.301644157E+02 -0.324773356E+01 -0.340307464E+01
   H  0.292176074E+02  0.263976313E+01  0.386383458E+01
     4
 # iter = 60500  time[fs]=60.50000
   C -0.662041721E+01 -0.395222236E-02  0.253342622E+00
   C  0.644706423E+01 -0.125390767E+00 -0.239990004E+00
   H -0.305279925E+02 -0.328691400E+01 -0.344399234E+01
   H  0.295685100E+02  0.267152276E+01  0.391108629E+01
     4
 # iter = 61000  time[fs]=61.00000
   C -0.670965200E+01 -0.350661436E-02  0.257280923E+00
   C  0.653365790E+01 -0.127386407E+00 -0.243425134E+00
   H -0.308916605E+02 -0.332610532E+01 -0.348492214E+01
   H  0.299195085E+02  0.270329257E+01  0.395835266E+01
     4
 # iter = 61500  time[fs]=61.50000
   C -0.679896497E+01 -0.305976911E-02  0.261222782E+00
   C  0.662032936E+01 -0.129383227E+00 -0.246864029E+00
   H -0.312554174E+02 -0.336530727E+01 -0.352586377E+01
   H  0.302706006E+02  0.273507233E+01  0.400563333E+01
     4
 # iter = 62000  time[fs]=62.00000
   C -0.688835407E+01 -0.261171179E-02  0.265168111E+00
   C  0.670707657E+01 -0.131381203E+00 -0.250306598E+00
   H -0.316192614E+02 -0.340451960E+01 -0.356681698E+01
   H  0.306217842E+02  0.276686180E+01  0.405292801E+01
     4
 # iter = 62500  time[fs]=62.50000
   C -0.697781733E+01 -0.216246688E-02  0.269116830E+00
   C  0.679389758E+01 -0.133380313E+00 -0.253752754E+00
   H -0.319831903E+02 -0.344374208E+01 -0.360778149E+01
   H  0.309730573E+02  0.279866078E+01  0.410023638E+01
     4
 # iter = 63000  time[fs]=63.00000
   C -0.706735285E+01 -0.171205817E-02  0.273068857E+00
   C  0.688079048E+01 -0.135380534E+00 -0.257202413E+00
   H -0.323472024E+02 -0.348297451E+01 -0.364875706E+01
   H  0.313244178E+02  0.283046907E+01  0.414755815E+01
     4
 # iter = 63500  time[fs]=63.50000
   C -0.715695881E+01 -0.126050880E-02  0.277024116E+00
   C  0.696775346E+01 -0.137381844E+00 -0.260655494E+00
   H -0.327112958E+02 -0.352221665E+01 -0.368974347E+01
   H  0.316758638E+02  0.286228645E+01  0.419489302E+01
     4
 # iter = 64000  time[fs]=64.00000
   C -0.724663343E+01 -0.807841257E-03  0.280982532E+00
   C  0.705478478E+01 -0.139384221E+00 -0.264111919E+00
   H -0.330754686E+02 -0.356146831E+01 -0.373074046E+01
   H  0.320273935E+02  0.289411274E+01  0.424224074E+01
     4
 # iter = 64500  time[fs]=64.50000
   C -0.733637504E+01 -0.354077400E-03  0.284944033E+00
   C  0.714188272E+01 -0.141387645E+00 -0.267571611E+00
   H -0.334397193E+02 -0.360072928E+01 -0.377174783E+01
   H  0.323790051E+02  0.292594774E+01  0.428960101E+01
     4
 # iter = 65000  time[fs]=65.00000
   C -0.742618198E+01  0.100761501E-03  0.288908549E+00
   C  0.722904568E+01 -0.143392096E+00 -0.271034498E+00
   H -0.338040461E+02 -0.363999936E+01 -0.381276535E+01
   H  0.327306968E+02  0.295779128E+01  0.433697359E+01
     4
 # iter = 65500  time[fs]=65.50000
   C -0.751605269E+01  0.556654757E-03  0.292876012E+00
   C  0.731627207E+01 -0.145397554E+00 -0.274500508E+00
   H -0.341684475E+02 -0.367927837E+01 -0.385379282E+01
   H  0.330824669E+02  0.298964318E+01  0.438435821E+01
     4
 # iter = 66000  time[fs]=66.00000
   C -0.760598563E+01  0.101358224E-02  0.296846359E+00
   C  0.740356039E+01 -0.147403999E+00 -0.277969572E+00
   H -0.345329218E+02 -0.371856612E+01 -0.389483003E+01
   H  0.334343139E+02  0.302150326E+01  0.443175465E+01
     4
 # iter = 66500  time[fs]=66.50000
   C -0.769597934E+01  0.147152437E-02  0.300819525E+00
   C  0.749090916E+01 -0.149411414E+00 -0.281441626E+00
   H -0.348974676E+02 -0.375786244E+01 -0.393587678E+01
   H  0.337862360E+02  0.305337137E+01  0.447916265E+01
     4
 # iter = 67000  time[fs]=67.00000
   C -0.778603241E+01  0.193046208E-02  0.304795450E+00
   C  0.757831697E+01 -0.151419781E+00 -0.284916603E+00
   H -0.352620833E+02 -0.379716716E+01 -0.397693288E+01
   H  0.341382318E+02  0.308524734E+01  0.452658199E+01
     4
 # iter = 67500  time[fs]=67.50000
   C -0.787614345E+01  0.239037682E-02  0.308774074E+00
   C  0.766578246E+01 -0.153429080E+00 -0.288394442E+00
   H -0.356267677E+02 -0.383648010E+01 -0.401799815E+01
   H  0.344902998E+02  0.311713101E+01  0.457401244E+01
     4
 # iter = 68000  time[fs]=68.00000
   C -0.796631114E+01  0.285125053E-02  0.312755340E+00
   C  0.775330431E+01 -0.155439297E+00 -0.291875082E+00
   H -0.359915192E+02 -0.387580110E+01 -0.405907241E+01
   H  0.348424385E+02  0.314902224E+01  0.462145379E+01
     4
 # iter = 68500  time[fs]=68.50000
   C -0.805653421E+01  0.331306561E-02  0.316739193E+00
   C  0.784088125E+01 -0.157450413E+00 -0.295358465E+00
   H -0.363563366E+02 -0.391513001E+01 -0.410015548E+01
   H  0.351946465E+02  0.318092088E+01  0.466890582E+01
     4
 # iter = 69000  time[fs]=69.00000
   C -0.814681141E+01  0.377580495E-02  0.320725579E+00
   C  0.792851203E+01 -0.159462412E+00 -0.298844535E+00
   H -0.367212186E+02 -0.395446668E+01 -0.414124718E+01
   H  0.355469225E+02  0.321282677E+01  0.471636834E+01
     4
 # iter = 69500  time[fs]=69.50000
   C -0.823714154E+01  0.423945184E-02  0.324714446E+00
   C  0.801619547E+01 -0.161475278E+00 -0.302333236E+00
   H -0.370861638E+02 -0.399381095E+01 -0.418234737E+01
   H  0.358992651E+02  0.324473979E+01  0.476384114E+01
     4
 # iter = 70000  time[fs]=70.00000
   C -0.832752345E+01  0.470399004E-02  0.328705743E+00
   C  0.810393041E+01 -0.163488997E+00 -0.305824515E+00
   H -0.374511712E+02 -0.403316268E+01 -0.422345587E+01
   H  0.362516731E+02  0.327665981E+01  0.481132403E+01
     4
 # iter = 70500  time[fs]=70.50000
   C -0.841795600E+01  0.516940370E-02  0.332699421E+00
   C  0.819171573E+01 -0.165503553E+00 -0.309318320E+00
   H -0.378162394E+02 -0.407252173E+01 -0.426457253E+01
   H  0.366041452E+02  0.330858668E+01  0.485881682E+01
     4
 # iter = 71000  time[fs]=71.00000
   C -0.850843813E+01  0.563567740E-02  0.336695433E+00
   C  0.827955036E+01 -0.167518931E+00 -0.312814601E+00
   H -0.381813674E+02 -0.411188797E+01 -0.430569719E+01
   H  0.369566802E+02  0.334052028E+01  0.490631933E+01
     4
 # iter = 71500  time[fs]=71.50000
   C -0.859896876E+01  0.610279607E-02  0.340693732E+00
   C  0.836743323E+01 -0.169535117E+00 -0.316313310E+00
   H -0.385465540E+02 -0.415126125E+01 -0.434682972E+01
   H  0.373092769E+02  0.337246049E+01  0.495383138E+01
     4
 # iter = 72000  time[fs]=72.00000
   C -0.868954688E+01  0.657074505E-02  0.344694274E+00
   C  0.845536335E+01 -0.171552097E+00 -0.319814399E+00
   H -0.389117981E+02 -0.419064146E+01 -0.438796997E+01
   H  0.376619341E+02  0.340440718E+01  0.500135280E+01
     4
 # iter = 72500  time[fs]=72.50000
   C -0.878017150E+01  0.703951003E-02  0.348697014E+00
   C  0.854333971E+01 -0.173569858E+00 -0.323317821E+00
   H -0.392770987E+02 -0.423002847E+01 -0.442911779E+01
   H  0.380146508E+02  0.343636025E+01  0.504888342E+01
     4
 # iter = 73000  time[fs]=73.00000
   C -0.887084165E+01  0.750907707E-02  0.352701911E+00
   C  0.863136137E+01 -0.175588385E+00 -0.326823534E+00
   H -0.396424547E+02 -0.426942216E+01 -0.447027306E+01
   H  0.383674259E+02  0.346831957E+01  0.509642308E+01
     4
 # iter = 73500  time[fs]=73.50000
   C -0.896155642E+01  0.797943255E-02  0.356708923E+00
   C  0.871942739E+01 -0.177607667E+00 -0.330331492E+00
   H -0.400078651E+02 -0.430882240E+01 -0.451143564E+01
   H  0.387202583E+02  0.350028504E+01  0.514397161E+01
     4
 # iter = 74000  time[fs]=74.00000
   C -0.905231490E+01  0.845056320E-02  0.360718010E+00
   C  0.880753689E+01 -0.179627690E+00 -0.333841653E+00
   H -0.403733290E+02 -0.434822908E+01 -0.455260539E+01
   H  0.390731470E+02  0.353225655E+01  0.519152887E+01
     4
 # iter = 74500  time[fs]=74.50000
   C -0.914311621E+01  0.892245606E-02  0.364729135E+00
   C  0.889568899E+01 -0.181648442E+00 -0.337353978E+00
   H -0.407388455E+02 -0.438764209E+01 -0.459378221E+01
   H  0.394260909E+02  0.356423398E+01  0.523909469E+01
     4
 # iter = 75000  time[fs]=75.00000
   C -0.923395949E+01  0.939509850E-02  0.368742257E+00
   C  0.898388284E+01 -0.183669911E+00 -0.340868425E+00
   H -0.411044134E+02 -0.442706132E+01 -0.463496596E+01
   H  0.397790892E+02  0.359621725E+01  0.528666894E+01
     4
 # iter = 75500  time[fs]=75.50000
   C -0.932484393E+01  0.986847816E-02  0.372757342E+00
   C  0.907211762E+01 -0.185692086E+00 -0.344384956E+00
   H -0.414700321E+02 -0.446648666E+01 -0.467615652E+01
   H  0.401321408E+02  0.362820624E+01  0.533425147E+01
     4
 # iter = 76000  time[fs]=76.00000
   C -0.941576872E+01  0.103425830E-01  0.376774353E+00
   C  0.916039253E+01 -0.187714955E+00 -0.347903533E+00
   H -0.418357005E+02 -0.450591801E+01 -0.471735379E+01
   H  0.404852449E+02  0.366020087E+01  0.538184214E+01
     4
 # iter = 76500  time[fs]=76.50000
   C -0.950673309E+01  0.108174013E-01  0.380793255E+00
   C  0.924870680E+01 -0.189738506E+00 -0.351424119E+00
   H -0.422014179E+02 -0.454535526E+01 -0.475855764E+01
   H  0.408384005E+02  0.369220103E+01  0.542944081E+01
     4
 # iter = 77000  time[fs]=77.00000
   C -0.959773627E+01  0.112929215E-01  0.384814014E+00
   C  0.933705967E+01 -0.191762728E+00 -0.354946679E+00
   H -0.425671834E+02 -0.458479833E+01 -0.479976797E+01
   H  0.411916068E+02  0.372420664E+01  0.547704735E+01
     4
 # iter = 77500  time[fs]=77.50000
   C -0.968877753E+01  0.117691325E-01  0.388836598E+00
   C  0.942545041E+01 -0.193787612E+00 -0.358471178E+00
   H -0.429329962E+02 -0.462424710E+01 -0.484098467E+01
   H  0.415448628E+02  0.375621760E+01  0.552466164E+01
     4
 # iter = 78000  time[fs]=78.00000
   C -0.977985616E+01  0.122460232E-01  0.392860974E+00
   C  0.951387831E+01 -0.195813147E+00 -0.361997581E+00
   H -0.432988555E+02 -0.466370149E+01 -0.488220763E+01
   H  0.418981679E+02  0.378823383E+01  0.557228353E+01
     4
 # iter = 78500  time[fs]=78.50000
   C -0.987097145E+01  0.127235830E-01  0.396887111E+00
   C  0.960234267E+01 -0.197839321E+00 -0.365525856E+00
   H -0.436647606E+02 -0.470316140E+01 -0.492343676E+01
   H  0.422515211E+02  0.382025523E+01  0.561991292E+01
     4
 # iter = 79000  time[fs]=79.00000
   C -0.996212273E+01  0.132018013E-01  0.400914979E+00
   C  0.969084283E+01 -0.199866126E+00 -0.369055971E+00
   H -0.440307106E+02 -0.474262675E+01 -0.496467195E+01
   H  0.426049217E+02  0.385228174E+01  0.566754968E+01
     4
 # iter = 79500  time[fs]=79.50000
   C -0.100533093E+02  0.136806681E-01  0.404944547E+00
   C  0.977937812E+01 -0.201893552E+00 -0.372587893E+00
   H -0.443967048E+02 -0.478209745E+01 -0.500591311E+01
   H  0.429583688E+02  0.388431325E+01  0.571519369E+01
     4
 # iter = 80000  time[fs]=80.00000
   C -0.101445307E+02  0.141601732E-01  0.408975787E+00
   C  0.986794791E+01 -0.203921588E+00 -0.376121593E+00
   H -0.447627426E+02 -0.482157341E+01 -0.504716013E+01
   H  0.433118619E+02  0.391634971E+01  0.576284484E+01
