     4
 # iter = 25000  time[fs]=25.00000
   C -0.983285128E+00 -0.146126432E-01 -0.157636117E-01
   C  0.100553359E+01  0.168072275E-01 -0.224908513E-01
   H -0.523725291E+01 -0.157917973E+00  0.400647214E-01
   H  0.537339074E+01 -0.472648332E+00 -0.441282957E+00
     4
 # iter = 25500  time[fs]=25.50000
   C -0.102969723E+01 -0.152993408E-01 -0.166672656E-01
   C  0.104765977E+01  0.177773456E-01 -0.220022913E-01
   H -0.558366440E+01 -0.174538403E+00  0.362779255E-01
   H  0.568505515E+01 -0.508246197E+00 -0.473944549E+00
     4
 # iter = 26000  time[fs]=26.00000
   C -0.107985295E+01 -0.168203928E-01 -0.183605039E-01
   C  0.109153594E+01  0.176791623E-01 -0.226507415E-01
   H -0.594076129E+01 -0.196714779E+00  0.271551159E-01
   H  0.599696986E+01 -0.549814877E+00 -0.512509623E+00
     4
 # iter = 26500  time[fs]=26.50000
   C -0.113112121E+01 -0.167835962E-01 -0.184562148E-01
   C  0.114037414E+01  0.199598965E-01 -0.209810224E-01
   H -0.629184157E+01 -0.208352721E+00  0.287637831E-01
   H  0.632463255E+01 -0.581204609E+00 -0.540835956E+00
     4
 # iter = 27000  time[fs]=27.00000
   C -0.118315584E+01 -0.150692047E-01 -0.168392696E-01
   C  0.119411836E+01  0.247833361E-01 -0.168223723E-01
   H -0.663559878E+01 -0.208641639E+00  0.418927604E-01
   H  0.666831618E+01 -0.601567223E+00 -0.558081901E+00
     4
 # iter = 27500  time[fs]=27.50000
   C -0.123752213E+01 -0.134543584E-01 -0.152909502E-01
   C  0.124998823E+01  0.295724752E-01 -0.127457022E-01
   H -0.698357397E+01 -0.209530171E+00  0.545756633E-01
   H  0.701558525E+01 -0.622828799E+00 -0.576179228E+00
     4
 # iter = 28000  time[fs]=28.00000
   C -0.129528380E+01 -0.131960445E-01 -0.150718612E-01
   C  0.130597319E+01  0.325027504E-01 -0.105702872E-01
   H -0.734386783E+01 -0.219470480E+00  0.583451075E-01
   H  0.735756976E+01 -0.653420381E+00 -0.603563806E+00
     4
 # iter = 28500  time[fs]=28.50000
   C -0.135575737E+01 -0.137844325E-01 -0.156752813E-01
   C  0.136263435E+01  0.343039486E-01 -0.956176933E-02
   H -0.771273679E+01 -0.235032035E+00  0.566181183E-01
   H  0.769735524E+01 -0.689884101E+00 -0.636781809E+00
     4
 # iter = 29000  time[fs]=29.00000
   C -0.141753782E+01 -0.139707789E-01 -0.158551533E-01
   C  0.142161742E+01  0.367744210E-01 -0.791783362E-02
   H -0.808150474E+01 -0.247815290E+00  0.577823482E-01
   H  0.804304898E+01 -0.723792039E+00 -0.667408749E+00
     4
 # iter = 29500  time[fs]=29.50000
   C -0.148005111E+01 -0.133228820E-01 -0.151816271E-01
   C  0.148340278E+01  0.405326202E-01 -0.501657048E-02
   H -0.844702748E+01 -0.254915249E+00  0.647325493E-01
   H  0.839729309E+01 -0.752218210E+00 -0.692521665E+00
     4
 # iter = 30000  time[fs]=30.00000
   C -0.154377092E+01 -0.124432933E-01 -0.142593215E-01
   C  0.154698862E+01  0.447016504E-01 -0.173185090E-02
   H -0.881315609E+01 -0.260389145E+00  0.734026955E-01
   H  0.875578898E+01 -0.779207076E+00 -0.716167711E+00
     4
 # iter = 30500  time[fs]=30.50000
   C -0.160925319E+01 -0.120043993E-01 -0.137624312E-01
   C  0.161128495E+01  0.483041803E-01  0.961641155E-03
   H -0.918423664E+01 -0.268763992E+00  0.792580777E-01
   H  0.911379424E+01 -0.809275053E+00 -0.742865686E+00
     4
 # iter = 31000  time[fs]=31.00000
   C -0.167640146E+01 -0.120144139E-01 -0.137007418E-01
   C  0.167617355E+01  0.513235474E-01  0.304956205E-02
   H -0.956016531E+01 -0.280097739E+00  0.822338799E-01
   H  0.947106451E+01 -0.842467042E+00 -0.772662582E+00
     4
 # iter = 31500  time[fs]=31.50000
   C -0.174468106E+01 -0.120328163E-01 -0.136351024E-01
   C  0.174219538E+01  0.543922333E-01  0.516642941E-02
   H -0.993783551E+01 -0.291428995E+00  0.852853423E-01
   H  0.983039878E+01 -0.875807275E+00 -0.802584478E+00
     4
 # iter = 32000  time[fs]=32.00000
   C -0.181373346E+01 -0.117861329E-01 -0.132932411E-01
   C  0.180965912E+01  0.579015446E-01  0.770534602E-02
   H -0.103152805E+02 -0.300920632E+00  0.902441084E-01
   H  0.101934879E+02 -0.907446512E+00 -0.830783783E+00
     4
 # iter = 32500  time[fs]=32.50000
   C -0.188359607E+01 -0.113887768E-01 -0.127906309E-01
   C  0.187832086E+01  0.616823044E-01  0.104987253E-01
   H -0.106931577E+02 -0.309345738E+00  0.963322154E-01
   H  0.105594244E+02 -0.938149159E+00 -0.858026392E+00
     4
 # iter = 33000  time[fs]=33.00000
   C -0.195443617E+01 -0.110778357E-01 -0.123652955E-01
   C  0.194776673E+01  0.653882889E-01  0.132017551E-01
   H -0.110729623E+02 -0.318302743E+00  0.101946872E+00
   H  0.109264873E+02 -0.969506604E+00 -0.885905037E+00
     4
 # iter = 33500  time[fs]=33.50000
   C -0.202625935E+01 -0.109221297E-01 -0.120868816E-01
   C  0.201783283E+01  0.689168582E-01  0.157130513E-01
   H -0.114550664E+02 -0.328257469E+00  0.106618319E+00
   H  0.112941012E+02 -0.100197735E+01 -0.914879438E+00
     4
 # iter = 34000  time[fs]=34.00000
   C -0.209890591E+01 -0.108193023E-01 -0.118537641E-01
   C  0.208860867E+01  0.724131284E-01  0.181788504E-01
   H -0.118386987E+02 -0.338523610E+00  0.111029289E+00
   H  0.116628543E+02 -0.103486740E+01 -0.944256697E+00
     4
 # iter = 34500  time[fs]=34.50000
   C -0.217222366E+01 -0.106693132E-01 -0.115665521E-01
   C  0.216018569E+01  0.760190917E-01  0.207421473E-01
   H -0.122231114E+02 -0.348430356E+00  0.115847354E+00
   H  0.120333280E+02 -0.106749891E+01 -0.973359955E+00
     4
 # iter = 35000  time[fs]=35.00000
   C -0.224616605E+01 -0.104730899E-01 -0.112267522E-01
   C  0.223251411E+01  0.797309559E-01  0.234000501E-01
   H -0.126082429E+02 -0.357986298E+00  0.121060978E+00
   H  0.124054316E+02 -0.109987460E+01 -0.100219286E+01
     4
 # iter = 35500  time[fs]=35.50000
   C -0.232074585E+01 -0.102867566E-01 -0.108910056E-01
   C  0.230546853E+01  0.834653118E-01  0.260699598E-01
   H -0.129944092E+02 -0.367571356E+00  0.126287559E+00
   H  0.127787099E+02 -0.113236938E+01 -0.103113115E+01
     4
 # iter = 36000  time[fs]=36.00000
   C -0.239595372E+01 -0.101406109E-01 -0.105900735E-01
   C  0.237896471E+01  0.871762693E-01  0.287067176E-01
   H -0.133817577E+02 -0.377391481E+00  0.131318697E+00
   H  0.131528878E+02 -0.116518446E+01 -0.106037679E+01
     4
 # iter = 36500  time[fs]=36.50000
   C -0.247173936E+01 -0.100205947E-01 -0.103103133E-01
   C  0.245298599E+01  0.908822339E-01  0.313293905E-01
   H -0.137701420E+02 -0.387353957E+00  0.136244858E+00
   H  0.135279948E+02 -0.119822246E+01 -0.108983312E+01
     4
 # iter = 37000  time[fs]=37.00000
   C -0.254804528E+01 -0.990247588E-02 -0.100278669E-01
   C  0.252753345E+01  0.946164651E-01  0.339718380E-01
   H -0.141593515E+02 -0.397297479E+00  0.141225282E+00
   H  0.139041343E+02 -0.123131773E+01 -0.111933513E+01
     4
 # iter = 37500  time[fs]=37.50000
   C -0.262483461E+01 -0.977993249E-02 -0.973674946E-02
   C  0.260258504E+01  0.983864548E-01  0.366420977E-01
   H -0.145492999E+02 -0.407181175E+00  0.146298939E+00
   H  0.142812935E+02 -0.126442547E+01 -0.114883862E+01
     4
 # iter = 38000  time[fs]=38.00000
   C -0.270208774E+01 -0.966145627E-02 -0.944575782E-02
   C  0.267809980E+01  0.102178394E+00  0.393268579E-01
   H -0.149400038E+02 -0.417063770E+00  0.151405351E+00
   H  0.146593640E+02 -0.129760087E+01 -0.117839932E+01
     4
 # iter = 38500  time[fs]=38.50000
   C -0.277978604E+01 -0.955432229E-02 -0.916244337E-02
   C  0.275404076E+01  0.105980343E+00  0.420146326E-01
   H -0.153314751E+02 -0.426995692E+00  0.156492467E+00
   H  0.150382493E+02 -0.133089105E+01 -0.120806489E+01
     4
 # iter = 39000  time[fs]=39.00000
   C -0.285790493E+01 -0.945785832E-02 -0.888638475E-02
   C  0.283038447E+01  0.109791953E+00  0.447054885E-01
   H -0.157236745E+02 -0.436973787E+00  0.161561942E+00
   H  0.154179100E+02 -0.136428976E+01 -0.123782952E+01
     4
 # iter = 39500  time[fs]=39.50000
   C -0.293641813E+01 -0.936790122E-02 -0.861364710E-02
   C  0.290711438E+01  0.113618012E+00  0.474045968E-01
   H -0.161165421E+02 -0.446971313E+00  0.166639121E+00
   H  0.157983332E+02 -0.139776733E+01 -0.126766401E+01
     4
 # iter = 40000  time[fs]=40.00000
   C -0.301530305E+01 -0.928230691E-02 -0.834229453E-02
   C  0.298421270E+01  0.117460476E+00  0.501142617E-01
   H -0.165100335E+02 -0.456975041E+00  0.171735940E+00
   H  0.161794953E+02 -0.143130782E+01 -0.129755283E+01
     4
 # iter = 40500  time[fs]=40.50000
   C -0.309454122E+01 -0.920160347E-02 -0.807304527E-02
   C  0.306165928E+01  0.121317510E+00  0.528329717E-01
   H -0.169041246E+02 -0.466989648E+00  0.176846515E+00
   H  0.165613573E+02 -0.146491339E+01 -0.132749852E+01
     4
 # iter = 41000  time[fs]=41.00000
   C -0.317411598E+01 -0.912675547E-02 -0.780703795E-02
   C  0.313943472E+01  0.125186718E+00  0.555586295E-01
   H -0.172987960E+02 -0.477022679E+00  0.181962178E+00
   H  0.169438794E+02 -0.149858924E+01 -0.135750663E+01
     4
 # iter = 41500  time[fs]=41.50000
   C -0.325401095E+01 -0.905776449E-02 -0.754443382E-02
   C  0.321752228E+01  0.129067163E+00  0.582905723E-01
   H -0.176940234E+02 -0.487075132E+00  0.187080879E+00
   H  0.173270306E+02 -0.153233415E+01 -0.138757629E+01
     4
 # iter = 42000  time[fs]=42.00000
   C -0.333421020E+01 -0.899398280E-02 -0.728473178E-02
   C  0.329590731E+01  0.132958904E+00  0.610291147E-01
   H -0.180897801E+02 -0.497143573E+00  0.192205071E+00
   H  0.177107864E+02 -0.156614261E+01 -0.141770231E+01
     4
 # iter = 42500  time[fs]=42.50000
   C -0.341469899E+01 -0.893487555E-02 -0.702753194E-02
   C  0.337457606E+01  0.136861894E+00  0.637744446E-01
   H -0.184860411E+02 -0.507225271E+00  0.197336565E+00
   H  0.180951231E+02 -0.160000994E+01 -0.144788030E+01
     4
 # iter = 43000  time[fs]=43.00000
   C -0.349546381E+01 -0.888024967E-02 -0.677276565E-02
   C  0.345351522E+01  0.140775638E+00  0.665262890E-01
   H -0.188827854E+02 -0.517319743E+00  0.202474980E+00
   H  0.184800164E+02 -0.163393383E+01 -0.147810822E+01
     4
 # iter = 43500  time[fs]=43.50000
   C -0.357649218E+01 -0.883004107E-02 -0.652048368E-02
   C  0.353271221E+01  0.144699506E+00  0.692842195E-01
   H -0.192799938E+02 -0.527427326E+00  0.207619169E+00
   H  0.188654428E+02 -0.166791289E+01 -0.150838495E+01
     4
 # iter = 44000  time[fs]=44.00000
   C -0.365777235E+01 -0.878411957E-02 -0.627066206E-02
   C  0.361215533E+01  0.148633002E+00  0.720479325E-01
   H -0.196776480E+02 -0.537547865E+00  0.212768526E+00
   H  0.192513806E+02 -0.170194534E+01 -0.153870896E+01
     4
 # iter = 44500  time[fs]=44.50000
   C -0.373929320E+01 -0.874228332E-02 -0.602319733E-02
   C  0.369183376E+01  0.152575777E+00  0.748172549E-01
   H -0.200757301E+02 -0.547680684E+00  0.217923009E+00
   H  0.196378097E+02 -0.173602896E+01 -0.156907826E+01
     4
 # iter = 45000  time[fs]=45.00000
   C -0.382104433E+01 -0.870433273E-02 -0.577798114E-02
   C  0.377173734E+01  0.156527513E+00  0.775920357E-01
   H -0.204742232E+02 -0.557825079E+00  0.223082647E+00
   H  0.200247116E+02 -0.177016160E+01 -0.159949093E+01
     4
 # iter = 45500  time[fs]=45.50000
   C -0.390301595E+01 -0.867010549E-02 -0.553493594E-02
   C  0.385185650E+01  0.160487873E+00  0.803720935E-01
   H -0.208731115E+02 -0.567980562E+00  0.228247289E+00
   H  0.204120683E+02 -0.180434141E+01 -0.162994530E+01
     4
 # iter = 46000  time[fs]=46.00000
   C -0.398519891E+01 -0.863946370E-02 -0.529400265E-02
   C  0.393218222E+01  0.164456518E+00  0.831572333E-01
   H -0.212723802E+02 -0.578146776E+00  0.233416691E+00
   H  0.207998629E+02 -0.183856672E+01 -0.166043994E+01
     4
 # iter = 46500  time[fs]=46.50000
   C -0.406758457E+01 -0.861227448E-02 -0.505512180E-02
   C  0.401270602E+01  0.168433129E+00  0.859472737E-01
   H -0.216720154E+02 -0.588323365E+00  0.238590638E+00
   H  0.211880793E+02 -0.187283596E+01 -0.169097342E+01
     4
 # iter = 47000  time[fs]=47.00000
   C -0.415016478E+01 -0.858840551E-02 -0.481822952E-02
   C  0.409341990E+01  0.172417416E+00  0.887420514E-01
   H -0.220720038E+02 -0.598509949E+00  0.243768973E+00
   H  0.215767023E+02 -0.190714756E+01 -0.172154440E+01
     4
 # iter = 47500  time[fs]=47.50000
   C -0.423293187E+01 -0.856772955E-02 -0.458326251E-02
   C  0.417431635E+01  0.176409104E+00  0.915414137E-01
   H -0.224723326E+02 -0.608706152E+00  0.248951560E+00
   H  0.219657176E+02 -0.194150007E+01 -0.175215154E+01
     4
 # iter = 48000  time[fs]=48.00000
   C -0.431587859E+01 -0.855012755E-02 -0.435016145E-02
   C  0.425538825E+01  0.180407933E+00  0.943452131E-01
   H -0.228729901E+02 -0.618911630E+00  0.254138260E+00
   H  0.223551116E+02 -0.197589206E+01 -0.178279361E+01
     4
 # iter = 48500  time[fs]=48.50000
   C -0.439899808E+01 -0.853548792E-02 -0.411887070E-02
   C  0.433662889E+01  0.184413653E+00  0.971533068E-01
   H -0.232739649E+02 -0.629126062E+00  0.259328933E+00
   H  0.227448714E+02 -0.201032223E+01 -0.181346944E+01
     4
 # iter = 49000  time[fs]=49.00000
   C -0.448228386E+01 -0.852370494E-02 -0.388933692E-02
   C  0.441803192E+01  0.188426028E+00  0.999655585E-01
   H -0.236752462E+02 -0.639349148E+00  0.264523445E+00
   H  0.231349845E+02 -0.204478933E+01 -0.184417793E+01
     4
 # iter = 49500  time[fs]=49.50000
   C -0.456572981E+01 -0.851467783E-02 -0.366150847E-02
   C  0.449959131E+01  0.192444832E+00  0.102781838E+00
   H -0.240768238E+02 -0.649580597E+00  0.269721669E+00
   H  0.235254395E+02 -0.207929215E+01 -0.187491802E+01
     4
 # iter = 50000  time[fs]=50.00000
   C -0.464933010E+01 -0.850831066E-02 -0.343533558E-02
   C  0.458130139E+01  0.196469851E+00  0.105602023E+00
   H -0.244786879E+02 -0.659820133E+00  0.274923489E+00
   H  0.239162250E+02 -0.211382955E+01 -0.190568869E+01
     4
 # iter = 50500  time[fs]=50.50000
   C -0.473307922E+01 -0.850451227E-02 -0.321077048E-02
   C  0.466315673E+01  0.200500883E+00  0.108425993E+00
   H -0.248808294E+02 -0.670067491E+00  0.280128792E+00
   H  0.243073305E+02 -0.214840045E+01 -0.193648898E+01
     4
 # iter = 51000  time[fs]=51.00000
   C -0.481697194E+01 -0.850319602E-02 -0.298776733E-02
   C  0.474515223E+01  0.204537733E+00  0.111253636E+00
   H -0.252832393E+02 -0.680322423E+00  0.285337469E+00
   H  0.246987460E+02 -0.218300380E+01 -0.196731797E+01
     4
 # iter = 51500  time[fs]=51.50000
   C -0.490100329E+01 -0.850427942E-02 -0.276628210E-02
   C  0.482728300E+01  0.208580216E+00  0.114084844E+00
   H -0.256859093E+02 -0.690584690E+00  0.290549418E+00
   H  0.250904616E+02 -0.221763863E+01 -0.199817479E+01
     4
 # iter = 52000  time[fs]=52.00000
   C -0.498516854E+01 -0.850768387E-02 -0.254627242E-02
   C  0.490954443E+01  0.212628157E+00  0.116919512E+00
   H -0.260888314E+02 -0.700854064E+00  0.295764540E+00
   H  0.254824684E+02 -0.225230399E+01 -0.202905860E+01
     4
 # iter = 52500  time[fs]=52.50000
   C -0.506946321E+01 -0.851333444E-02 -0.232769756E-02
   C  0.499193211E+01  0.216681386E+00  0.119757540E+00
   H -0.264919978E+02 -0.711130327E+00  0.300982742E+00
   H  0.258747573E+02 -0.228699896E+01 -0.205996861E+01
     4
 # iter = 53000  time[fs]=53.00000
   C -0.515388300E+01 -0.852115963E-02 -0.211051832E-02
   C  0.507444185E+01  0.220739743E+00  0.122598834E+00
   H -0.268954012E+02 -0.721413273E+00  0.306203932E+00
   H  0.262673201E+02 -0.232172269E+01 -0.209090403E+01
     4
 # iter = 53500  time[fs]=53.50000
   C -0.523842385E+01 -0.853109119E-02 -0.189469698E-02
   C  0.515706966E+01  0.224803074E+00  0.125443302E+00
   H -0.272990347E+02 -0.731702703E+00  0.311428025E+00
   H  0.266601488E+02 -0.235647434E+01 -0.212186415E+01
     4
 # iter = 54000  time[fs]=54.00000
   C -0.532308187E+01 -0.854306394E-02 -0.168019724E-02
   C  0.523981175E+01  0.228871231E+00  0.128290855E+00
   H -0.277028915E+02 -0.741998427E+00  0.316654939E+00
   H  0.270532355E+02 -0.239125313E+01 -0.215284826E+01
     4
 # iter = 54500  time[fs]=54.50000
   C -0.540785334E+01 -0.855701558E-02 -0.146698414E-02
   C  0.532266448E+01  0.232944075E+00  0.131141409E+00
   H -0.281069652E+02 -0.752300264E+00  0.321884595E+00
   H  0.274465730E+02 -0.242605830E+01 -0.218385569E+01
     4
 # iter = 55000  time[fs]=55.00000
   C -0.549273474E+01 -0.857288653E-02 -0.125502402E-02
   C  0.540562438E+01  0.237021471E+00  0.133994884E+00
   H -0.285112496E+02 -0.762608039E+00  0.327116916E+00
   H  0.278401541E+02 -0.246088911E+01 -0.221488579E+01
     4
 # iter = 55500  time[fs]=55.50000
   C -0.557772268E+01 -0.859061978E-02 -0.104428444E-02
   C  0.548868816E+01  0.241103288E+00  0.136851201E+00
   H -0.289157389E+02 -0.772921586E+00  0.332351831E+00
   H  0.282339721E+02 -0.249574487E+01 -0.224593794E+01
     4
 # iter = 56000  time[fs]=56.00000
   C -0.566281392E+01 -0.861016073E-02 -0.834734135E-03
   C  0.557185264E+01  0.245189404E+00  0.139710286E+00
   H -0.293204275E+02 -0.783240746E+00  0.337589269E+00
   H  0.286280206E+02 -0.253062490E+01 -0.227701156E+01
     4
 # iter = 56500  time[fs]=56.50000
   C -0.574800539E+01 -0.863145710E-02 -0.626342967E-03
   C  0.565511482E+01  0.249279699E+00  0.142572065E+00
   H -0.297253098E+02 -0.793565364E+00  0.342829163E+00
   H  0.290222932E+02 -0.256552857E+01 -0.230810606E+01
     4
 # iter = 57000  time[fs]=57.00000
   C -0.583329412E+01 -0.865445876E-02 -0.419081868E-03
   C  0.573847179E+01  0.253374060E+00  0.145436471E+00
   H -0.301303807E+02 -0.803895294E+00  0.348071449E+00
   H  0.294167839E+02 -0.260045524E+01 -0.233922091E+01
     4
 # iter = 57500  time[fs]=57.50000
   C -0.591867727E+01 -0.867911766E-02 -0.212922799E-03
   C  0.582192078E+01  0.257472377E+00  0.148303436E+00
   H -0.305356352E+02 -0.814230394E+00  0.353316065E+00
   H  0.298114871E+02 -0.263540434E+01 -0.237035557E+01
     4
 # iter = 58000  time[fs]=58.00000
   C -0.600415214E+01 -0.870538767E-02 -0.783869922E-05
   C  0.590545915E+01  0.261574545E+00  0.151172895E+00
   H -0.309410685E+02 -0.824570529E+00  0.358562952E+00
   H  0.302063972E+02 -0.267037527E+01 -0.240150954E+01
     4
 # iter = 58500  time[fs]=58.50000
   C -0.608971613E+01 -0.873322453E-02  0.196196551E-03
   C  0.598908435E+01  0.265680463E+00  0.154044787E+00
   H -0.313466760E+02 -0.834915567E+00  0.363812052E+00
   H  0.306015089E+02 -0.270536750E+01 -0.243268232E+01
     4
 # iter = 59000  time[fs]=59.00000
   C -0.617536674E+01 -0.876258570E-02  0.399208174E-03
   C  0.607279394E+01  0.269790034E+00  0.156919052E+00
   H -0.317524531E+02 -0.845265384E+00  0.369063310E+00
   H  0.309968170E+02 -0.274038049E+01 -0.246387346E+01
     4
 # iter = 59500  time[fs]=59.50000
   C -0.626110158E+01 -0.879343035E-02  0.601220533E-03
   C  0.615658559E+01  0.273903163E+00  0.159795633E+00
   H -0.321583957E+02 -0.855619858E+00  0.374316673E+00
   H  0.313923166E+02 -0.277541373E+01 -0.249508250E+01
     4
 # iter = 60000  time[fs]=60.00000
   C -0.634691834E+01 -0.882571918E-02  0.802257167E-03
   C  0.624045705E+01  0.278019761E+00  0.162674473E+00
   H -0.325644996E+02 -0.865978873E+00  0.379572089E+00
   H  0.317880030E+02 -0.281046672E+01 -0.252630899E+01
     4
 # iter = 60500  time[fs]=60.50000
   C -0.643281483E+01 -0.885941441E-02  0.100234083E-02
   C  0.632440615E+01  0.282139742E+00  0.165555519E+00
   H -0.329707608E+02 -0.876342317E+00  0.384829510E+00
   H  0.321838716E+02 -0.284553900E+01 -0.255755253E+01
     4
 # iter = 61000  time[fs]=61.00000
   C -0.651878891E+01 -0.889447970E-02  0.120149351E-02
   C  0.640843083E+01  0.286263021E+00  0.168438719E+00
   H -0.333771756E+02 -0.886710081E+00  0.390088887E+00
   H  0.325799179E+02 -0.288063009E+01 -0.258881270E+01
     4
 # iter = 61500  time[fs]=61.50000
   C -0.660483856E+01 -0.893088004E-02  0.139973649E-02
   C  0.649252910E+01  0.290389519E+00  0.171324023E+00
   H -0.337837402E+02 -0.897082062E+00  0.395350175E+00
   H  0.329761378E+02 -0.291573957E+01 -0.262008912E+01
     4
 # iter = 62000  time[fs]=62.00000
   C -0.669096180E+01 -0.896858173E-02  0.159709034E-02
   C  0.657669903E+01  0.294519156E+00  0.174211383E+00
   H -0.341904510E+02 -0.907458159E+00  0.400613330E+00
   H  0.333725271E+02 -0.295086700E+01 -0.265138140E+01
     4
 # iter = 62500  time[fs]=62.50000
   C -0.677715676E+01 -0.900755230E-02  0.179357498E-02
   C  0.666093879E+01  0.298651860E+00  0.177100753E+00
   H -0.345973046E+02 -0.917838275E+00  0.405878308E+00
   H  0.337690819E+02 -0.298601197E+01 -0.268268919E+01
     4
 # iter = 63000  time[fs]=63.00000
   C -0.686342160E+01 -0.904776043E-02  0.198920969E-02
   C  0.674524660E+01  0.302787556E+00  0.179992086E+00
   H -0.350042978E+02 -0.928222317E+00  0.411145068E+00
   H  0.341657983E+02 -0.302117409E+01 -0.271401212E+01
     4
 # iter = 63500  time[fs]=63.50000
   C -0.694975458E+01 -0.908917595E-02  0.218401313E-02
   C  0.682962074E+01  0.306926176E+00  0.182885339E+00
   H -0.354114272E+02 -0.938610194E+00  0.416413570E+00
   H  0.345626726E+02 -0.305635295E+01 -0.274534986E+01
     4
 # iter = 64000  time[fs]=64.00000
   C -0.703615402E+01 -0.913176974E-02  0.237800337E-02
   C  0.691405957E+01  0.311067652E+00  0.185780469E+00
   H -0.358186899E+02 -0.949001819E+00  0.421683775E+00
   H  0.349597013E+02 -0.309154821E+01 -0.277670207E+01
     4
 # iter = 64500  time[fs]=64.50000
   C -0.712261827E+01 -0.917551369E-02  0.257119793E-02
   C  0.699856150E+01  0.315211918E+00  0.188677437E+00
   H -0.362260828E+02 -0.959397107E+00  0.426955647E+00
   H  0.353568808E+02 -0.312675949E+01 -0.280806845E+01
     4
 # iter = 65000  time[fs]=65.00000
   C -0.720914578E+01 -0.922038068E-02  0.276361378E-02
   C  0.708312499E+01  0.319358913E+00  0.191576202E+00
   H -0.366336030E+02 -0.969795977E+00  0.432229148E+00
   H  0.357542080E+02 -0.316198644E+01 -0.283944868E+01
     4
 # iter = 65500  time[fs]=65.50000
   C -0.729573503E+01 -0.926634449E-02  0.295526737E-02
   C  0.716774858E+01  0.323508574E+00  0.194476725E+00
   H -0.370412477E+02 -0.980198350E+00  0.437504244E+00
   H  0.361516794E+02 -0.319722873E+01 -0.287084246E+01
     4
 # iter = 66000  time[fs]=66.00000
   C -0.738238456E+01 -0.931337981E-02  0.314617466E-02
   C  0.725243083E+01  0.327660843E+00  0.197378970E+00
   H -0.374490143E+02 -0.990604149E+00  0.442780901E+00
   H  0.365492921E+02 -0.323248603E+01 -0.290224950E+01
     4
 # iter = 66500  time[fs]=66.50000
   C -0.746909295E+01 -0.936146218E-02  0.333635111E-02
   C  0.733717036E+01  0.331815664E+00  0.200282901E+00
   H -0.378569000E+02 -0.100101330E+01  0.448059085E+00
   H  0.369470430E+02 -0.326775803E+01 -0.293366953E+01
     4
 # iter = 67000  time[fs]=67.00000
   C -0.755585885E+01 -0.941056793E-02  0.352581172E-02
   C  0.742196584E+01  0.335972980E+00  0.203188482E+00
   H -0.382649024E+02 -0.101142573E+01  0.453338766E+00
   H  0.373449291E+02 -0.330304442E+01 -0.296510228E+01
     4
 # iter = 67500  time[fs]=67.50000
   C -0.764268093E+01 -0.946067419E-02  0.371457108E-02
   C  0.750681600E+01  0.340132738E+00  0.206095680E+00
   H -0.386730190E+02 -0.102184138E+01  0.458619912E+00
   H  0.377429476E+02 -0.333834489E+01 -0.299654747E+01
     4
 # iter = 68000  time[fs]=68.00000
   C -0.772955793E+01 -0.951175882E-02  0.390264331E-02
   C  0.759171957E+01  0.344294887E+00  0.209004462E+00
   H -0.390812474E+02 -0.103226017E+01  0.463902494E+00
   H  0.381410958E+02 -0.337365917E+01 -0.302800486E+01
     4
 # iter = 68500  time[fs]=68.50000
   C -0.781648860E+01 -0.956380039E-02  0.409004213E-02
   C  0.767667538E+01  0.348459377E+00  0.211914795E+00
   H -0.394895853E+02 -0.104268204E+01  0.469186481E+00
   H  0.385393709E+02 -0.340898697E+01 -0.305947419E+01
     4
 # iter = 69000  time[fs]=69.00000
   C -0.790347176E+01 -0.961677815E-02  0.427678088E-02
   C  0.776168224E+01  0.352626159E+00  0.214826650E+00
   H -0.398980305E+02 -0.105310692E+01  0.474471847E+00
   H  0.389377704E+02 -0.344432803E+01 -0.309095524E+01
     4
 # iter = 69500  time[fs]=69.50000
   C -0.799050626E+01 -0.967067203E-02  0.446287251E-02
   C  0.784673904E+01  0.356795185E+00  0.217739995E+00
   H -0.403065808E+02 -0.106353476E+01  0.479758564E+00
   H  0.393362918E+02 -0.347968207E+01 -0.312244776E+01
     4
 # iter = 70000  time[fs]=70.00000
   C -0.807759097E+01 -0.972546255E-02  0.464832958E-02
   C  0.793184468E+01  0.360966411E+00  0.220654802E+00
   H -0.407152340E+02 -0.107396550E+01  0.485046605E+00
   H  0.397349327E+02 -0.351504885E+01 -0.315395153E+01
     4
 # iter = 70500  time[fs]=70.50000
   C -0.816472483E+01 -0.978113086E-02  0.483316434E-02
   C  0.801699813E+01  0.365139791E+00  0.223571042E+00
   H -0.411239883E+02 -0.108439908E+01  0.490335945E+00
   H  0.401336907E+02 -0.355042812E+01 -0.318546633E+01
     4
 # iter = 71000  time[fs]=71.00000
   C -0.825190678E+01 -0.983765867E-02  0.501738866E-02
   C  0.810219834E+01  0.369315284E+00  0.226488689E+00
   H -0.415328414E+02 -0.109483543E+01  0.495626558E+00
   H  0.405325634E+02 -0.358581963E+01 -0.321699195E+01
     4
 # iter = 71500  time[fs]=71.50000
   C -0.833913580E+01 -0.989502826E-02  0.520101411E-02
   C  0.818744434E+01  0.373492846E+00  0.229407714E+00
   H -0.419417917E+02 -0.110527452E+01  0.500918420E+00
   H  0.409315487E+02 -0.362122315E+01 -0.324852818E+01
     4
 # iter = 72000  time[fs]=72.00000
   C -0.842641092E+01 -0.995322243E-02  0.538405191E-02
   C  0.827273516E+01  0.377672438E+00  0.232328092E+00
   H -0.423508370E+02 -0.111571628E+01  0.506211509E+00
   H  0.413306444E+02 -0.365663846E+01 -0.328007482E+01
     4
 # iter = 72500  time[fs]=72.50000
   C -0.851373118E+01 -0.100122245E-01  0.556651300E-02
   C  0.835806987E+01  0.381854020E+00  0.235249798E+00
   H -0.427599757E+02 -0.112616067E+01  0.511505800E+00
   H  0.417298484E+02 -0.369206533E+01 -0.331163167E+01
     4
 # iter = 73000  time[fs]=73.00000
   C -0.860109565E+01 -0.100720183E-01  0.574840802E-02
   C  0.844344759E+01  0.386037554E+00  0.238172807E+00
   H -0.431692060E+02 -0.113660763E+01  0.516801271E+00
   H  0.421291586E+02 -0.372750355E+01 -0.334319855E+01
     4
 # iter = 73500  time[fs]=73.50000
   C -0.868850345E+01 -0.101325881E-01  0.592974732E-02
   C  0.852886742E+01  0.390223003E+00  0.241097095E+00
   H -0.435785262E+02 -0.114705711E+01  0.522097901E+00
   H  0.425285731E+02 -0.376295290E+01 -0.337477527E+01
     4
 # iter = 74000  time[fs]=74.00000
   C -0.877595369E+01 -0.101939185E-01  0.611054098E-02
   C  0.861432852E+01  0.394410330E+00  0.244022639E+00
   H -0.439879346E+02 -0.115750908E+01  0.527395669E+00
   H  0.429280899E+02 -0.379841320E+01 -0.340636165E+01
     4
 # iter = 74500  time[fs]=74.50000
   C -0.886344554E+01 -0.102559949E-01  0.629079880E-02
   C  0.869983007E+01  0.398599501E+00  0.246949417E+00
   H -0.443974295E+02 -0.116796348E+01  0.532694554E+00
   H  0.433277072E+02 -0.383388423E+01 -0.343795752E+01
     4
 # iter = 75000  time[fs]=75.00000
   C -0.895097818E+01 -0.103188029E-01  0.647053035E-02
   C  0.878537127E+01  0.402790482E+00  0.249877405E+00
   H -0.448070094E+02 -0.117842026E+01  0.537994536E+00
   H  0.437274231E+02 -0.386936580E+01 -0.346956270E+01
     4
 # iter = 75500  time[fs]=75.50000
   C -0.903855080E+01 -0.103823283E-01  0.664974493E-02
   C  0.887095134E+01  0.406983238E+00  0.252806583E+00
   H -0.452166727E+02 -0.118887940E+01  0.543295595E+00
   H  0.441272358E+02 -0.390485774E+01 -0.350117703E+01
     4
 # iter = 76000  time[fs]=76.00000
   C -0.912616263E+01 -0.104465576E-01  0.682845160E-02
   C  0.895656953E+01  0.411177739E+00  0.255736930E+00
   H -0.456264180E+02 -0.119934083E+01  0.548597713E+00
   H  0.445271437E+02 -0.394035985E+01 -0.353280035E+01
     4
 # iter = 76500  time[fs]=76.50000
   C -0.921381293E+01 -0.105114776E-01  0.700665920E-02
   C  0.904222510E+01  0.415373951E+00  0.258668425E+00
   H -0.460362438E+02 -0.120980453E+01  0.553900872E+00
   H  0.449271449E+02 -0.397587196E+01 -0.356443250E+01
     4
 # iter = 77000  time[fs]=77.00000
   C -0.930150096E+01 -0.105770754E-01  0.718437635E-02
   C  0.912791735E+01  0.419571846E+00  0.261601048E+00
   H -0.464461487E+02 -0.122027045E+01  0.559205053E+00
   H  0.453272379E+02 -0.401139389E+01 -0.359607333E+01
     4
 # iter = 77500  time[fs]=77.50000
   C -0.938922601E+01 -0.106433384E-01  0.736161144E-02
   C  0.921364558E+01  0.423771392E+00  0.264534781E+00
   H -0.468561313E+02 -0.123073856E+01  0.564510238E+00
   H  0.457274212E+02 -0.404692548E+01 -0.362772268E+01
     4
 # iter = 78000  time[fs]=78.00000
   C -0.947698739E+01 -0.107102547E-01  0.753837265E-02
   C  0.929940911E+01  0.427972562E+00  0.267469603E+00
   H -0.472661902E+02 -0.124120881E+01  0.569816411E+00
   H  0.461276930E+02 -0.408246657E+01 -0.365938042E+01
     4
 # iter = 78500  time[fs]=78.50000
   C -0.956478443E+01 -0.107778121E-01  0.771466797E-02
   C  0.938520730E+01  0.432175326E+00  0.270405498E+00
   H -0.476763242E+02 -0.125168117E+01  0.575123555E+00
   H  0.465280519E+02 -0.411801698E+01 -0.369104641E+01
     4
 # iter = 79000  time[fs]=79.00000
   C -0.965261647E+01 -0.108459993E-01  0.789050517E-02
   C  0.947103950E+01  0.436379657E+00  0.273342446E+00
   H -0.480865319E+02 -0.126215560E+01  0.580431654E+00
   H  0.469284964E+02 -0.415357657E+01 -0.372272049E+01
     4
 # iter = 79500  time[fs]=79.50000
   C -0.974048287E+01 -0.109148050E-01  0.806589187E-02
   C  0.955690510E+01  0.440585529E+00  0.276280431E+00
   H -0.484968121E+02 -0.127263207E+01  0.585740692E+00
   H  0.473290252E+02 -0.418914518E+01 -0.375440255E+01
     4
 # iter = 80000  time[fs]=80.00000
   C -0.982838303E+01 -0.109842183E-01  0.824083546E-02
   C  0.964280349E+01  0.444792914E+00  0.279219435E+00
   H -0.489071637E+02 -0.128311054E+01  0.591050654E+00
   H  0.477296366E+02 -0.422472267E+01 -0.378609244E+01
