     4
 # iter = 25000  time[fs]=25.00000
   C -0.100840767E+01 -0.237746531E-02  0.280129755E-01
   C  0.969787480E+00 -0.102782038E-01 -0.244795096E-02
   H -0.530638028E+01  0.447739336E+00 -0.599547910E+00
   H  0.536857376E+01 -0.406309462E+00  0.515406588E+00
     4
 # iter = 25500  time[fs]=25.50000
   C -0.105690009E+01 -0.485704996E-02  0.288792518E-01
   C  0.101011578E+01 -0.941617286E-02 -0.548921396E-02
   H -0.564573130E+01  0.469402600E+00 -0.647611030E+00
   H  0.567532507E+01 -0.436792495E+00  0.538062091E+00
     4
 # iter = 26000  time[fs]=26.00000
   C -0.110941673E+01 -0.842240628E-02  0.287617249E-01
   C  0.105256201E+01 -0.941950102E-02 -0.947167411E-02
   H -0.599597721E+01  0.486176958E+00 -0.701800179E+00
   H  0.598172677E+01 -0.473092953E+00  0.555823729E+00
     4
 # iter = 26500  time[fs]=26.50000
   C -0.116252533E+01 -0.988869691E-02  0.308422147E-01
   C  0.109946927E+01 -0.768566183E-02 -0.117938820E-01
   H -0.634039573E+01  0.514085888E+00 -0.745949009E+00
   H  0.630335868E+01 -0.499076393E+00  0.584732206E+00
     4
 # iter = 27000  time[fs]=27.00000
   C -0.121583887E+01 -0.909993991E-02  0.352736607E-01
   C  0.115073133E+01 -0.408352419E-02 -0.123244031E-01
   H -0.667766832E+01  0.553876540E+00 -0.779193901E+00
   H  0.664055864E+01 -0.513909320E+00  0.625537416E+00
     4
 # iter = 27500  time[fs]=27.50000
   C -0.127151646E+01 -0.842843520E-02  0.396806699E-01
   C  0.120420106E+01 -0.544863726E-03 -0.129936518E-01
   H -0.701933118E+01  0.593542380E+00 -0.813445763E+00
   H  0.698094231E+01 -0.529531834E+00  0.666224420E+00
     4
 # iter = 28000  time[fs]=28.00000
   C -0.133104168E+01 -0.955255796E-02  0.423814163E-01
   C  0.125831484E+01  0.156340061E-02 -0.151666079E-01
   H -0.737347887E+01  0.624582190E+00 -0.857123156E+00
   H  0.731568312E+01 -0.554386756E+00  0.698285871E+00
     4
 # iter = 28500  time[fs]=28.50000
   C -0.139356014E+01 -0.117947002E-01  0.440496370E-01
   C  0.131344599E+01  0.279464443E-02 -0.182876585E-01
   H -0.773635606E+01  0.650387881E+00 -0.906760178E+00
   H  0.764790572E+01 -0.585025216E+00  0.725116261E+00
     4
 # iter = 29000  time[fs]=29.00000
   C -0.145724879E+01 -0.134917817E-01  0.463443558E-01
   C  0.137078728E+01  0.450520941E-02 -0.209979859E-01
   H -0.809927281E+01  0.679327319E+00 -0.953923310E+00
   H  0.798575195E+01 -0.613026520E+00  0.755089588E+00
     4
 # iter = 29500  time[fs]=29.50000
   C -0.152138853E+01 -0.140692240E-01  0.498361662E-01
   C  0.143066002E+01  0.716351398E-02 -0.228264668E-01
   H -0.845907462E+01  0.714275976E+00 -0.995680186E+00
   H  0.833189303E+01 -0.635471390E+00  0.791083603E+00
     4
 # iter = 30000  time[fs]=30.00000
   C -0.158665384E+01 -0.143319314E-01  0.537163374E-01
   C  0.149227572E+01  0.101129089E-01 -0.244268947E-01
   H -0.881960653E+01  0.751148028E+00 -0.103606753E+01
   H  0.868205444E+01 -0.656410770E+00  0.829009910E+00
     4
 # iter = 30500  time[fs]=30.50000
   C -0.165382496E+01 -0.151776723E-01  0.570833969E-01
   C  0.155478319E+01  0.126207589E-01 -0.265290151E-01
   H -0.918520946E+01  0.785390886E+00 -0.107959475E+01
   H  0.903151448E+01 -0.680366892E+00  0.864312855E+00
     4
 # iter = 31000  time[fs]=31.00000
   C -0.172280792E+01 -0.166183504E-01  0.599218295E-01
   C  0.161806482E+01  0.146764755E-01 -0.291405786E-01
   H -0.955577266E+01  0.816925615E+00 -0.112630199E+01
   H  0.938004740E+01 -0.707389486E+00  0.896913223E+00
     4
 # iter = 31500  time[fs]=31.50000
   C -0.179292069E+01 -0.180673363E-01  0.628147745E-01
   C  0.168250127E+01  0.167573286E-01 -0.317815610E-01
   H -0.992818159E+01  0.848696173E+00 -0.117321036E+01
   H  0.973046900E+01 -0.734506834E+00  0.929756619E+00
     4
 # iter = 32000  time[fs]=32.00000
   C -0.186371324E+01 -0.191606514E-01  0.661228911E-01
   C  0.174830112E+01  0.191590054E-01 -0.341536075E-01
   H -0.103004626E+02  0.882523691E+00 -0.121846746E+01
   H  0.100844849E+02 -0.759873372E+00  0.964665153E+00
     4
 # iter = 32500  time[fs]=32.50000
   C -0.193526100E+01 -0.200514777E-01  0.696898691E-01
   C  0.181525989E+01  0.217555361E-01 -0.363801152E-01
   H -0.106732680E+02  0.917619637E+00 -0.126283387E+01
   H  0.104412002E+02 -0.784256988E+00  0.100084966E+01
     4
 # iter = 33000  time[fs]=33.00000
   C -0.200781036E+01 -0.210564880E-01  0.731960901E-01
   C  0.188304742E+01  0.242876416E-01 -0.387179015E-01
   H -0.110480886E+02  0.952371278E+00 -0.130789723E+01
   H  0.107989056E+02 -0.809252280E+00  0.103669625E+01
     4
 # iter = 33500  time[fs]=33.50000
   C -0.208138986E+01 -0.222678678E-01  0.765465894E-01
   C  0.195152324E+01  0.266790489E-01 -0.412409001E-01
   H -0.114252921E+02  0.986300320E+00 -0.135411306E+01
   H  0.111570354E+02 -0.835320587E+00  0.107172610E+01
     4
 # iter = 34000  time[fs]=34.00000
   C -0.215580560E+01 -0.235494540E-01  0.798749094E-01
   C  0.202073900E+01  0.290396566E-01 -0.438369996E-01
   H -0.118041026E+02  0.102008227E+01 -0.140078516E+01
   H  0.115161872E+02 -0.861770402E+00  0.110661490E+01
     4
 # iter = 34500  time[fs]=34.50000
   C -0.223087204E+01 -0.247681208E-01  0.833117131E-01
   C  0.209074926E+01  0.314769148E-01 -0.463966585E-01
   H -0.121837675E+02  0.105437811E+01 -0.144723363E+01
   H  0.118769507E+02 -0.887926125E+00  0.114202381E+01
     4
 # iter = 35000  time[fs]=35.00000
   C -0.230654294E+01 -0.259253507E-01  0.868532093E-01
   C  0.216150366E+01  0.339885709E-01 -0.489201546E-01
   H -0.125642217E+02  0.108917003E+01 -0.149345911E+01
   H  0.122392426E+02 -0.913792598E+00  0.117793480E+01
     4
 # iter = 35500  time[fs]=35.50000
   C -0.238284986E+01 -0.270961965E-01  0.904221820E-01
   C  0.223289617E+01  0.365124322E-01 -0.514678188E-01
   H -0.129457777E+02  0.112406947E+01 -0.153983441E+01
   H  0.126026144E+02 -0.939746671E+00  0.121395891E+01
     4
 # iter = 36000  time[fs]=36.00000
   C -0.245979367E+01 -0.283212322E-01  0.939760292E-01
   C  0.230485274E+01  0.390144506E-01 -0.540719460E-01
   H -0.133285798E+02  0.115886265E+01 -0.158655889E+01
   H  0.129667969E+02 -0.965991322E+00  0.124988203E+01
     4
 # iter = 36500  time[fs]=36.50000
   C -0.253731943E+01 -0.295818468E-01  0.975314598E-01
   C  0.237735101E+01  0.415088663E-01 -0.567166470E-01
   H -0.137124785E+02  0.119363523E+01 -0.163353362E+01
   H  0.133318254E+02 -0.992430807E+00  0.128578967E+01
     4
 # iter = 37000  time[fs]=37.00000
   C -0.261536165E+01 -0.308458371E-01  0.101118893E+00
   C  0.245038281E+01  0.440210415E-01 -0.593750091E-01
   H -0.140972602E+02  0.122854204E+01 -0.168059154E+01
   H  0.136978082E+02 -0.101890095E+01  0.132183658E+01
     4
 # iter = 37500  time[fs]=37.50000
   C -0.269388145E+01 -0.321048659E-01  0.104744994E+00
   C  0.252392333E+01  0.465569236E-01 -0.620396263E-01
   H -0.144828359E+02  0.126361794E+01 -0.172768650E+01
   H  0.140647372E+02 -0.104535833E+01  0.135805745E+01
     4
 # iter = 38000  time[fs]=38.00000
   C -0.277286214E+01 -0.333703350E-01  0.108396791E+00
   C  0.259793419E+01  0.491064090E-01 -0.647192303E-01
   H -0.148692198E+02  0.129879859E+01 -0.177487238E+01
   H  0.144325081E+02 -0.107185940E+01  0.139438775E+01
     4
 # iter = 38500  time[fs]=38.50000
   C -0.285228762E+01 -0.346520086E-01  0.112063049E+00
   C  0.267238062E+01  0.516607682E-01 -0.674212603E-01
   H -0.152564214E+02  0.133402837E+01 -0.182219514E+01
   H  0.148010284E+02 -0.109845249E+01  0.143077165E+01
     4
 # iter = 39000  time[fs]=39.00000
   C -0.293213319E+01 -0.359490386E-01  0.115743232E+00
   C  0.274723856E+01  0.542199601E-01 -0.701445430E-01
   H -0.156443992E+02  0.136930563E+01 -0.186964743E+01
   H  0.151702623E+02 -0.112513243E+01  0.146720735E+01
     4
 # iter = 39500  time[fs]=39.50000
   C -0.301237128E+01 -0.372559108E-01  0.119441556E+00
   C  0.282248963E+01  0.567877842E-01 -0.728841360E-01
   H -0.160330912E+02  0.140465267E+01 -0.191719860E+01
   H  0.155402002E+02 -0.115187058E+01  0.150371702E+01
     4
 # iter = 40000  time[fs]=40.00000
   C -0.309297869E+01 -0.385697946E-01  0.123159629E+00
   C  0.289811495E+01  0.593658869E-01 -0.756373166E-01
   H -0.164224512E+02  0.144007857E+01 -0.196483177E+01
   H  0.159108214E+02 -0.117865195E+01  0.154030959E+01
     4
 # iter = 40500  time[fs]=40.50000
   C -0.317393722E+01 -0.398914153E-01  0.126895577E+00
   C  0.297409429E+01  0.619530490E-01 -0.784042898E-01
   H -0.168124530E+02  0.147557478E+01 -0.201254823E+01
   H  0.162820899E+02 -0.120547958E+01  0.157697638E+01
     4
 # iter = 41000  time[fs]=41.00000
   C -0.325523064E+01 -0.412220742E-01  0.130647017E+00
   C  0.305040835E+01  0.645476137E-01 -0.811857561E-01
   H -0.172030757E+02  0.151113012E+01 -0.206035236E+01
   H  0.166539684E+02 -0.123235951E+01  0.161370607E+01
     4
 # iter = 41500  time[fs]=41.50000
   C -0.333684267E+01 -0.425617824E-01  0.134412917E+00
   C  0.312704015E+01  0.671490055E-01 -0.839813891E-01
   H -0.175942934E+02  0.154674022E+01 -0.210824217E+01
   H  0.170264286E+02 -0.125929129E+01  0.165049417E+01
     4
 # iter = 42000  time[fs]=42.00000
   C -0.341875726E+01 -0.439096803E-01  0.138193176E+00
   C  0.320397459E+01  0.697573872E-01 -0.867901745E-01
   H -0.179860776E+02  0.158240534E+01 -0.215621146E+01
   H  0.173994479E+02 -0.128627014E+01  0.168734080E+01
     4
 # iter = 42500  time[fs]=42.50000
   C -0.350095957E+01 -0.452650549E-01  0.141987599E+00
   C  0.328119753E+01  0.723728291E-01 -0.896112378E-01
   H -0.183784022E+02  0.161812524E+01 -0.220425486E+01
   H  0.177730048E+02 -0.131329206E+01  0.172424563E+01
     4
 # iter = 43000  time[fs]=43.00000
   C -0.358343614E+01 -0.466276458E-01  0.145795591E+00
   C  0.335869543E+01  0.749950577E-01 -0.924440922E-01
   H -0.187712446E+02  0.165389761E+01 -0.225236944E+01
   H  0.181470772E+02 -0.134035538E+01  0.176120622E+01
     4
 # iter = 43500  time[fs]=43.50000
   C -0.366617455E+01 -0.479973615E-01  0.149616433E+00
   C  0.343645550E+01  0.776236860E-01 -0.952884059E-01
   H -0.191645844E+02  0.168971949E+01 -0.230055323E+01
   H  0.185216433E+02 -0.136745932E+01  0.179821951E+01
     4
 # iter = 44000  time[fs]=44.00000
   C -0.374916309E+01 -0.493740202E-01  0.153449541E+00
   C  0.351446585E+01  0.802584231E-01 -0.981437891E-01
   H -0.195584019E+02  0.172558855E+01 -0.234880387E+01
   H  0.188966830E+02 -0.139460267E+01  0.183528308E+01
     4
 # iter = 44500  time[fs]=44.50000
   C -0.383239068E+01 -0.507573426E-01  0.157294470E+00
   C  0.359271544E+01  0.828990791E-01 -0.101009787E+00
   H -0.199526783E+02  0.176150315E+01 -0.239711865E+01
   H  0.192721781E+02 -0.142178374E+01  0.187239517E+01
     4
 # iter = 45000  time[fs]=45.00000
   C -0.391584690E+01 -0.521470506E-01  0.161150811E+00
   C  0.367119391E+01  0.855454832E-01 -0.103885960E+00
   H -0.203473954E+02  0.179746179E+01 -0.244549491E+01
   H  0.196481113E+02 -0.144900090E+01  0.190955421E+01
     4
 # iter = 45500  time[fs]=45.50000
   C -0.399952202E+01 -0.535429144E-01  0.165018143E+00
   C  0.374989151E+01  0.881974442E-01 -0.106771920E+00
   H -0.207425365E+02  0.183346288E+01 -0.249393033E+01
   H  0.200244662E+02 -0.147625276E+01  0.194675851E+01
     4
 # iter = 46000  time[fs]=46.00000
   C -0.408340690E+01 -0.549447358E-01  0.168896047E+00
   C  0.382879906E+01  0.908547630E-01 -0.109667315E+00
   H -0.211380858E+02  0.186950481E+01 -0.254242281E+01
   H  0.204012272E+02 -0.150353812E+01  0.198400638E+01
     4
 # iter = 46500  time[fs]=46.50000
   C -0.416749294E+01 -0.563523225E-01  0.172784130E+00
   C  0.390790792E+01  0.935172531E-01 -0.112571811E+00
   H -0.215340283E+02  0.190558609E+01 -0.259097035E+01
   H  0.207783795E+02 -0.153085582E+01  0.202129623E+01
     4
 # iter = 47000  time[fs]=47.00000
   C -0.425177203E+01 -0.577654819E-01  0.176682028E+00
   C  0.398720996E+01  0.961847435E-01 -0.115485081E+00
   H -0.219303499E+02  0.194170532E+01 -0.263957100E+01
   H  0.211559091E+02 -0.155820472E+01  0.205862661E+01
     4
 # iter = 47500  time[fs]=47.50000
   C -0.433623651E+01 -0.591840279E-01  0.180589397E+00
   C  0.406669752E+01  0.988570736E-01 -0.118406814E+00
   H -0.223270371E+02  0.197786121E+01 -0.268822292E+01
   H  0.215338028E+02 -0.158558373E+01  0.209599615E+01
     4
 # iter = 48000  time[fs]=48.00000
   C -0.442087917E+01 -0.606077848E-01  0.184505910E+00
   C  0.414636337E+01  0.101534088E+00 -0.121336716E+00
   H -0.227240770E+02  0.201405254E+01 -0.273692435E+01
   H  0.219120481E+02 -0.161299182E+01  0.213340354E+01
     4
 # iter = 48500  time[fs]=48.50000
   C -0.450569317E+01 -0.620365865E-01  0.188431254E+00
   C  0.422620065E+01  0.104215638E+00 -0.124274509E+00
   H -0.231214577E+02  0.205027809E+01 -0.278567362E+01
   H  0.222906330E+02 -0.164042800E+01  0.217084751E+01
     4
 # iter = 49000  time[fs]=49.00000
   C -0.459067208E+01 -0.634702746E-01  0.192365131E+00
   C  0.430620292E+01  0.106901580E+00 -0.127219928E+00
   H -0.235191677E+02  0.208653676E+01 -0.283446918E+01
   H  0.226695461E+02 -0.166789137E+01  0.220832688E+01
     4
 # iter = 49500  time[fs]=49.50000
   C -0.467580978E+01 -0.649086971E-01  0.196307257E+00
   C  0.438636406E+01  0.109591777E+00 -0.130172721E+00
   H -0.239171959E+02  0.212282746E+01 -0.288330951E+01
   H  0.230487767E+02 -0.169538104E+01  0.224584050E+01
     4
 # iter = 50000  time[fs]=50.00000
   C -0.476110048E+01 -0.663517085E-01  0.200257364E+00
   C  0.446667825E+01  0.112286101E+00 -0.133132647E+00
   H -0.243155321E+02  0.215914918E+01 -0.293219319E+01
   H  0.234283144E+02 -0.172289616E+01  0.228338730E+01
     4
 # iter = 50500  time[fs]=50.50000
   C -0.484653870E+01 -0.677991695E-01  0.204215194E+00
   C  0.454714002E+01  0.114984425E+00 -0.136099477E+00
   H -0.247141662E+02  0.219550094E+01 -0.298111884E+01
   H  0.238081496E+02 -0.175043594E+01  0.232096624E+01
     4
 # iter = 51000  time[fs]=51.00000
   C -0.493211924E+01 -0.692509471E-01  0.208180503E+00
   C  0.462774415E+01  0.117686631E+00 -0.139072992E+00
   H -0.251130888E+02  0.223188181E+01 -0.303008518E+01
   H  0.241882727E+02 -0.177799962E+01  0.235857635E+01
     4
 # iter = 51500  time[fs]=51.50000
   C -0.501783716E+01 -0.707069138E-01  0.212153057E+00
   C  0.470848567E+01  0.120392605E+00 -0.142052983E+00
   H -0.255122910E+02  0.226829090E+01 -0.307909096E+01
   H  0.245686751E+02 -0.180558646E+01  0.239621667E+01
     4
 # iter = 52000  time[fs]=52.00000
   C -0.510368774E+01 -0.721669476E-01  0.216132632E+00
   C  0.478935990E+01  0.123102236E+00 -0.145039250E+00
   H -0.259117641E+02  0.230472738E+01 -0.312813498E+01
   H  0.249493480E+02 -0.183319576E+01  0.243388630E+01
     4
 # iter = 52500  time[fs]=52.50000
   C -0.518966653E+01 -0.736309312E-01  0.220119014E+00
   C  0.487036235E+01  0.125815420E+00 -0.148031604E+00
   H -0.263115000E+02  0.234119042E+01 -0.317721613E+01
   H  0.253302835E+02 -0.186082687E+01  0.247158440E+01
     4
 # iter = 53000  time[fs]=53.00000
   C -0.527576926E+01 -0.750987524E-01  0.224112001E+00
   C  0.495148876E+01  0.128532056E+00 -0.151029862E+00
   H -0.267114907E+02  0.237767926E+01 -0.322633330E+01
   H  0.257114736E+02 -0.188847915E+01  0.250931012E+01
     4
 # iter = 53500  time[fs]=53.50000
   C -0.536199190E+01 -0.765703035E-01  0.228111396E+00
   C  0.503273507E+01  0.131252047E+00 -0.154033849E+00
   H -0.271117288E+02  0.241419314E+01 -0.327548548E+01
   H  0.260929111E+02 -0.191615198E+01  0.254706269E+01
     4
 # iter = 54000  time[fs]=54.00000
   C -0.544833056E+01 -0.780454812E-01  0.232117013E+00
   C  0.511409743E+01  0.133975300E+00 -0.157043399E+00
   H -0.275122070E+02  0.245073137E+01 -0.332467165E+01
   H  0.264745887E+02 -0.194384478E+01  0.258484136E+01
     4
 # iter = 54500  time[fs]=54.50000
   C -0.553478158E+01 -0.795241860E-01  0.236128672E+00
   C  0.519557213E+01  0.136701727E+00 -0.160058351E+00
   H -0.279129186E+02  0.248729326E+01 -0.337389087E+01
   H  0.268564997E+02 -0.197155699E+01  0.262264538E+01
     4
 # iter = 55000  time[fs]=55.00000
   C -0.562134144E+01 -0.810063227E-01  0.240146202E+00
   C  0.527715565E+01  0.139431241E+00 -0.163078552E+00
   H -0.283138569E+02  0.252387816E+01 -0.342314223E+01
   H  0.272386374E+02 -0.199928808E+01  0.266047408E+01
     4
 # iter = 55500  time[fs]=55.50000
   C -0.570800677E+01 -0.824917993E-01  0.244169439E+00
   C  0.535884465E+01  0.142163760E+00 -0.166103854E+00
   H -0.287150156E+02  0.256048543E+01 -0.347242485E+01
   H  0.276209957E+02 -0.202703753E+01  0.269832679E+01
     4
 # iter = 56000  time[fs]=56.00000
   C -0.579477437E+01 -0.839805279E-01  0.248198224E+00
   C  0.544063589E+01  0.144899205E+00 -0.169134118E+00
   H -0.291163886E+02  0.259711449E+01 -0.352173788E+01
   H  0.280035685E+02 -0.205480484E+01  0.273620285E+01
     4
 # iter = 56500  time[fs]=56.50000
   C -0.588164116E+01 -0.854724234E-01  0.252232406E+00
   C  0.552252632E+01  0.147637499E+00 -0.172169207E+00
   H -0.295179702E+02  0.263376475E+01 -0.357108052E+01
   H  0.283863501E+02 -0.208258955E+01  0.277410167E+01
     4
 # iter = 57000  time[fs]=57.00000
   C -0.596860422E+01 -0.869674043E-01  0.256271840E+00
   C  0.560451298E+01  0.150378570E+00 -0.175208991E+00
   H -0.299197547E+02  0.267043565E+01 -0.362045199E+01
   H  0.287693348E+02 -0.211039119E+01  0.281202264E+01
     4
 # iter = 57500  time[fs]=57.50000
   C -0.605566072E+01 -0.884653919E-01  0.260316386E+00
   C  0.568659307E+01  0.153122346E+00 -0.178253346E+00
   H -0.303217368E+02  0.270712667E+01 -0.366985155E+01
   H  0.291525174E+02 -0.213820933E+01  0.284996520E+01
     4
 # iter = 58000  time[fs]=58.00000
   C -0.614280798E+01 -0.899663105E-01  0.264365908E+00
   C  0.576876389E+01  0.155868759E+00 -0.181302150E+00
   H -0.307239114E+02  0.274383728E+01 -0.371927847E+01
   H  0.295358928E+02 -0.216604354E+01  0.288792880E+01
     4
 # iter = 58500  time[fs]=58.50000
   C -0.623004341E+01 -0.914700870E-01  0.268420279E+00
   C  0.585102286E+01  0.158617743E+00 -0.184355289E+00
   H -0.311262733E+02  0.278056700E+01 -0.376873207E+01
   H  0.299194559E+02 -0.219389342E+01  0.292591291E+01
     4
 # iter = 59000  time[fs]=59.00000
   C -0.631736454E+01 -0.929766510E-01  0.272479373E+00
   C  0.593336749E+01  0.161369236E+00 -0.187412651E+00
   H -0.315288180E+02  0.281731535E+01 -0.381821168E+01
   H  0.303032021E+02 -0.222175858E+01  0.296391703E+01
     4
 # iter = 59500  time[fs]=59.50000
   C -0.640476900E+01 -0.944859348E-01  0.276543070E+00
   C  0.601579542E+01  0.164123176E+00 -0.190474128E+00
   H -0.319315408E+02  0.285408188E+01 -0.386771666E+01
   H  0.306871268E+02 -0.224963865E+01  0.300194067E+01
     4
 # iter = 60000  time[fs]=60.00000
   C -0.649225449E+01 -0.959978727E-01  0.280611256E+00
   C  0.609830435E+01  0.166879505E+00 -0.193539619E+00
   H -0.323344372E+02  0.289086613E+01 -0.391724640E+01
   H  0.310712255E+02 -0.227753325E+01  0.303998335E+01
     4
 # iter = 60500  time[fs]=60.50000
   C -0.657981884E+01 -0.975124016E-01  0.284683819E+00
   C  0.618089211E+01  0.169638165E+00 -0.196609023E+00
   H -0.327375031E+02  0.292766768E+01 -0.396680029E+01
   H  0.314554941E+02 -0.230544203E+01  0.307804462E+01
     4
 # iter = 61000  time[fs]=61.00000
   C -0.666745994E+01 -0.990294605E-01  0.288760652E+00
   C  0.626355657E+01  0.172399101E+00 -0.199682244E+00
   H -0.331407342E+02  0.296448612E+01 -0.401637776E+01
   H  0.318399284E+02 -0.233336467E+01  0.311612405E+01
     4
 # iter = 61500  time[fs]=61.50000
   C -0.675517576E+01 -0.100548990E+00  0.292841652E+00
   C  0.634629572E+01  0.175162261E+00 -0.202759190E+00
   H -0.335441267E+02  0.300132106E+01 -0.406597826E+01
   H  0.322245244E+02 -0.236130084E+01  0.315422120E+01
     4
 # iter = 62000  time[fs]=62.00000
   C -0.684296436E+01 -0.102070934E+00  0.296926719E+00
   C  0.642910760E+01  0.177927594E+00 -0.205839772E+00
   H -0.339476767E+02  0.303817212E+01 -0.411560125E+01
   H  0.326092785E+02 -0.238925021E+01  0.319233567E+01
     4
 # iter = 62500  time[fs]=62.50000
   C -0.693082386E+01 -0.103595237E+00  0.301015756E+00
   C  0.651199036E+01  0.180695049E+00 -0.208923905E+00
   H -0.343513805E+02  0.307503891E+01 -0.416524621E+01
   H  0.329941869E+02 -0.241721249E+01  0.323046706E+01
     4
 # iter = 63000  time[fs]=63.00000
   C -0.701875246E+01 -0.105121846E+00  0.305108672E+00
   C  0.659494217E+01  0.183464578E+00 -0.212011503E+00
   H -0.347552345E+02  0.311192109E+01 -0.421491265E+01
   H  0.333792460E+02 -0.244518739E+01  0.326861500E+01
     4
 # iter = 63500  time[fs]=63.50000
   C -0.710674843E+01 -0.106650709E+00  0.309205375E+00
   C  0.667796130E+01  0.186236137E+00 -0.215102489E+00
   H -0.351592354E+02  0.314881831E+01 -0.426460008E+01
   H  0.337644524E+02 -0.247317461E+01  0.330677911E+01
     4
 # iter = 64000  time[fs]=64.00000
   C -0.719481009E+01 -0.108181777E+00  0.313305780E+00
   C  0.676104609E+01  0.189009678E+00 -0.218196783E+00
   H -0.355633798E+02  0.318573024E+01 -0.431430804E+01
   H  0.341498028E+02 -0.250117389E+01  0.334495904E+01
     4
 # iter = 64500  time[fs]=64.50000
   C -0.728293583E+01 -0.109715001E+00  0.317409803E+00
   C  0.684419491E+01  0.191785161E+00 -0.221294312E+00
   H -0.359676644E+02  0.322265655E+01 -0.436403608E+01
   H  0.345352940E+02 -0.252918497E+01  0.338315443E+01
     4
 # iter = 65000  time[fs]=65.00000
   C -0.737112409E+01 -0.111250334E+00  0.321517363E+00
   C  0.692740621E+01  0.194562541E+00 -0.224395001E+00
   H -0.363720862E+02  0.325959693E+01 -0.441378375E+01
   H  0.349209229E+02 -0.255720757E+01  0.342136497E+01
     4
 # iter = 65500  time[fs]=65.50000
   C -0.745937337E+01 -0.112787732E+00  0.325628380E+00
   C  0.701067848E+01  0.197341779E+00 -0.227498783E+00
   H -0.367766422E+02  0.329655108E+01 -0.446355064E+01
   H  0.353066864E+02 -0.258524146E+01  0.345959031E+01
     4
 # iter = 66000  time[fs]=66.00000
   C -0.754768222E+01 -0.114327150E+00  0.329742781E+00
   C  0.709401029E+01  0.200122835E+00 -0.230605588E+00
   H -0.371813294E+02  0.333351870E+01 -0.451333634E+01
   H  0.356925818E+02 -0.261328640E+01  0.349783016E+01
     4
 # iter = 66500  time[fs]=66.50000
   C -0.763604924E+01 -0.115868547E+00  0.333860490E+00
   C  0.717740022E+01  0.202905670E+00 -0.233715350E+00
   H -0.375861450E+02  0.337049952E+01 -0.456314044E+01
   H  0.360786061E+02 -0.264134215E+01  0.353608420E+01
     4
 # iter = 67000  time[fs]=67.00000
   C -0.772447309E+01 -0.117411880E+00  0.337981438E+00
   C  0.726084693E+01  0.205690249E+00 -0.236828007E+00
   H -0.379910863E+02  0.340749325E+01 -0.461296258E+01
   H  0.364647566E+02 -0.266940849E+01  0.357435214E+01
     4
 # iter = 67500  time[fs]=67.50000
   C -0.781295246E+01 -0.118957111E+00  0.342105554E+00
   C  0.734434911E+01  0.208476534E+00 -0.239943497E+00
   H -0.383961507E+02  0.344449963E+01 -0.466280236E+01
   H  0.368510307E+02 -0.269748519E+01  0.361263370E+01
     4
 # iter = 68000  time[fs]=68.00000
   C -0.790148608E+01 -0.120504200E+00  0.346232773E+00
   C  0.742790550E+01  0.211264492E+00 -0.243061760E+00
   H -0.388013356E+02  0.348151841E+01 -0.471265944E+01
   H  0.372374259E+02 -0.272557205E+01  0.365092859E+01
     4
 # iter = 68500  time[fs]=68.50000
   C -0.799007274E+01 -0.122053110E+00  0.350363030E+00
   C  0.751151489E+01  0.214054088E+00 -0.246182738E+00
   H -0.392066385E+02  0.351854932E+01 -0.476253346E+01
   H  0.376239396E+02 -0.275366886E+01  0.368923656E+01
     4
 # iter = 69000  time[fs]=69.00000
   C -0.807871125E+01 -0.123603804E+00  0.354496263E+00
   C  0.759517608E+01  0.216845289E+00 -0.249306376E+00
   H -0.396120569E+02  0.355559214E+01 -0.481242408E+01
   H  0.380105694E+02 -0.278177542E+01  0.372755734E+01
     4
 # iter = 69500  time[fs]=69.50000
   C -0.816740047E+01 -0.125156247E+00  0.358632410E+00
   C  0.767888794E+01  0.219638064E+00 -0.252432618E+00
   H -0.400175887E+02  0.359264661E+01 -0.486233098E+01
   H  0.383973131E+02 -0.280989154E+01  0.376589068E+01
     4
 # iter = 70000  time[fs]=70.00000
   C -0.825613930E+01 -0.126710405E+00  0.362771412E+00
   C  0.776264936E+01  0.222432381E+00 -0.255561412E+00
   H -0.404232314E+02  0.362971252E+01 -0.491225383E+01
   H  0.387841683E+02 -0.283801703E+01  0.380423633E+01
     4
 # iter = 70500  time[fs]=70.50000
   C -0.834492667E+01 -0.128266244E+00  0.366913212E+00
   C  0.784645927E+01  0.225228211E+00 -0.258692708E+00
   H -0.408289830E+02  0.366678964E+01 -0.496219232E+01
   H  0.391711329E+02 -0.286615170E+01  0.384259405E+01
     4
 # iter = 71000  time[fs]=71.00000
   C -0.843376154E+01 -0.129823732E+00  0.371057756E+00
   C  0.793031664E+01  0.228025524E+00 -0.261826454E+00
   H -0.412348412E+02  0.370387776E+01 -0.501214616E+01
   H  0.395582047E+02 -0.289429538E+01  0.388096362E+01
     4
 # iter = 71500  time[fs]=71.50000
   C -0.852264291E+01 -0.131382837E+00  0.375204988E+00
   C  0.801422046E+01  0.230824293E+00 -0.264962604E+00
   H -0.416408040E+02  0.374097666E+01 -0.506211504E+01
   H  0.399453816E+02 -0.292244790E+01  0.391934480E+01
     4
 # iter = 72000  time[fs]=72.00000
   C -0.861156980E+01 -0.132943529E+00  0.379354857E+00
   C  0.809816976E+01  0.233624489E+00 -0.268101109E+00
   H -0.420468694E+02  0.377808614E+01 -0.511209869E+01
   H  0.403326617E+02 -0.295060909E+01  0.395773739E+01
     4
 # iter = 72500  time[fs]=72.50000
   C -0.870054127E+01 -0.134505779E+00  0.383507312E+00
   C  0.818216359E+01  0.236426085E+00 -0.271241926E+00
   H -0.424530354E+02  0.381520600E+01 -0.516209682E+01
   H  0.407200429E+02 -0.297877879E+01  0.399614116E+01
     4
 # iter = 73000  time[fs]=73.00000
   C -0.878955640E+01 -0.136069556E+00  0.387662303E+00
   C  0.826620103E+01  0.239229057E+00 -0.274385009E+00
   H -0.428593001E+02  0.385233606E+01 -0.521210917E+01
   H  0.411075234E+02 -0.300695684E+01  0.403455591E+01
     4
 # iter = 73500  time[fs]=73.50000
   C -0.887861431E+01 -0.137634833E+00  0.391819782E+00
   C  0.835028122E+01  0.242033377E+00 -0.277530315E+00
   H -0.432656617E+02  0.388947612E+01 -0.526213548E+01
   H  0.414951013E+02 -0.303514308E+01  0.407298144E+01
     4
 # iter = 74000  time[fs]=74.00000
   C -0.896771414E+01 -0.139201582E+00  0.395979702E+00
   C  0.843440327E+01  0.244839022E+00 -0.280677804E+00
   H -0.436721183E+02  0.392662600E+01 -0.531217549E+01
   H  0.418827748E+02 -0.306333737E+01  0.411141755E+01
     4
 # iter = 74500  time[fs]=74.50000
   C -0.905685504E+01 -0.140769777E+00  0.400142019E+00
   C  0.851856635E+01  0.247645967E+00 -0.283827433E+00
   H -0.440786683E+02  0.396378552E+01 -0.536222895E+01
   H  0.422705421E+02 -0.309153956E+01  0.414986406E+01
     4
 # iter = 75000  time[fs]=75.00000
   C -0.914603621E+01 -0.142339393E+00  0.404306688E+00
   C  0.860276966E+01  0.250454190E+00 -0.286979164E+00
   H -0.444853100E+02  0.400095452E+01 -0.541229563E+01
   H  0.426584017E+02 -0.311974950E+01  0.418832077E+01
     4
 # iter = 75500  time[fs]=75.50000
   C -0.923525687E+01 -0.143910402E+00  0.408473666E+00
   C  0.868701240E+01  0.253263667E+00 -0.290132958E+00
   H -0.448920415E+02  0.403813281E+01 -0.546237528E+01
   H  0.430463517E+02 -0.314796707E+01  0.422678752E+01
     4
 # iter = 76000  time[fs]=76.00000
   C -0.932451623E+01 -0.145482782E+00  0.412642912E+00
   C  0.877129381E+01  0.256074376E+00 -0.293288778E+00
   H -0.452988615E+02  0.407532025E+01 -0.551246769E+01
   H  0.434343906E+02 -0.317619213E+01  0.426526411E+01
     4
 # iter = 76500  time[fs]=76.50000
   C -0.941381356E+01 -0.147056507E+00  0.416814384E+00
   C  0.885561315E+01  0.258886296E+00 -0.296446588E+00
   H -0.457057682E+02  0.411251666E+01 -0.556257262E+01
   H  0.438225169E+02 -0.320442454E+01  0.430375039E+01
     4
 # iter = 77000  time[fs]=77.00000
   C -0.950314814E+01 -0.148631555E+00  0.420988042E+00
   C  0.893996969E+01  0.261699405E+00 -0.299606351E+00
   H -0.461127602E+02  0.414972190E+01 -0.561268986E+01
   H  0.442107289E+02 -0.323266417E+01  0.434224617E+01
     4
 # iter = 77500  time[fs]=77.50000
   C -0.959251926E+01 -0.150207903E+00  0.425163849E+00
   C  0.902436272E+01  0.264513684E+00 -0.302768034E+00
   H -0.465198360E+02  0.418693581E+01 -0.566281919E+01
   H  0.445990253E+02 -0.326091092E+01  0.438075131E+01
     4
 # iter = 78000  time[fs]=78.00000
   C -0.968192624E+01 -0.151785529E+00  0.429341767E+00
   C  0.910879158E+01  0.267329111E+00 -0.305931602E+00
   H -0.469269941E+02  0.422415825E+01 -0.571296043E+01
   H  0.449874045E+02 -0.328916464E+01  0.441926565E+01
     4
 # iter = 78500  time[fs]=78.50000
   C -0.977136842E+01 -0.153364410E+00  0.433521759E+00
   C  0.919325558E+01  0.270145668E+00 -0.309097024E+00
   H -0.473342332E+02  0.426138907E+01 -0.576311335E+01
   H  0.453758651E+02 -0.331742523E+01  0.445778902E+01
     4
 # iter = 79000  time[fs]=79.00000
   C -0.986084514E+01 -0.154944526E+00  0.437703790E+00
   C  0.927775409E+01  0.272963336E+00 -0.312264267E+00
   H -0.477415517E+02  0.429862813E+01 -0.581327777E+01
   H  0.457644057E+02 -0.334569257E+01  0.449632128E+01
     4
 # iter = 79500  time[fs]=79.50000
   C -0.995035578E+01 -0.156525857E+00  0.441887824E+00
   C  0.936228648E+01  0.275782096E+00 -0.315433299E+00
   H -0.481489485E+02  0.433587530E+01 -0.586345349E+01
   H  0.461530251E+02 -0.337396655E+01  0.453486228E+01
     4
 # iter = 80000  time[fs]=80.00000
   C -0.100398997E+02 -0.158108382E+00  0.446073828E+00
   C  0.944685213E+01  0.278601930E+00 -0.318604092E+00
   H -0.485564222E+02  0.437313043E+01 -0.591364034E+01
   H  0.465417219E+02 -0.340224706E+01  0.457341188E+01
