     4
 # iter = 25000  time[fs]=25.00000
   C -0.906817070E+00  0.397298885E-02 -0.248821980E-01
   C  0.104218005E+01 -0.224634337E-02  0.204265289E-01
   H -0.520236435E+01  0.338089543E+00 -0.384016172E+00
   H  0.533451661E+01 -0.908467468E-01  0.537631241E+00
     4
 # iter = 25500  time[fs]=25.50000
   C -0.948026376E+00  0.140990731E-02 -0.258592155E-01
   C  0.108568328E+01 -0.381185966E-02  0.179527039E-01
   H -0.553728347E+01  0.350499219E+00 -0.417120274E+00
   H  0.564459958E+01 -0.105860162E+00  0.561612567E+00
     4
 # iter = 26000  time[fs]=26.00000
   C -0.993611454E+00 -0.207725540E-02 -0.278305634E-01
   C  0.113162537E+01 -0.639759193E-02  0.145321728E-01
   H -0.588028103E+01  0.357682692E+00 -0.455840223E+00
   H  0.595197919E+01 -0.126340579E+00  0.580477407E+00
     4
 # iter = 26500  time[fs]=26.50000
   C -0.104053404E+01 -0.373799486E-02 -0.280335511E-01
   C  0.118272741E+01 -0.699086495E-02  0.131646548E-01
   H -0.621496462E+01  0.375703485E+00 -0.484067696E+00
   H  0.627247381E+01 -0.136186678E+00  0.610291521E+00
     4
 # iter = 27000  time[fs]=27.00000
   C -0.108838760E+01 -0.343754118E-02 -0.263229164E-01
   C  0.123886740E+01 -0.544048761E-02  0.139904454E-01
   H -0.654028738E+01  0.405340637E+00 -0.500987298E+00
   H  0.660663403E+01 -0.134597036E+00  0.651824812E+00
     4
 # iter = 27500  time[fs]=27.50000
   C -0.113896762E+01 -0.322455542E-02 -0.247383902E-01
   C  0.129755503E+01 -0.398391473E-02  0.147630215E-01
   H -0.686800998E+01  0.434613554E+00 -0.518549855E+00
   H  0.694226538E+01 -0.133542448E+00  0.693078377E+00
     4
 # iter = 28000  time[fs]=28.00000
   C -0.119349154E+01 -0.454862274E-02 -0.247221170E-01
   C  0.135697541E+01 -0.420411025E-02  0.138918538E-01
   H -0.720642166E+01  0.455043444E+00 -0.545208528E+00
   H  0.727070662E+01 -0.141491976E+00  0.725559021E+00
     4
 # iter = 28500  time[fs]=28.50000
   C -0.125116392E+01 -0.682500139E-02 -0.256832492E-01
   C  0.141755854E+01 -0.545975267E-02  0.120119398E-01
   H -0.755194178E+01  0.470041964E+00 -0.577528794E+00
   H  0.759522417E+01 -0.155017704E+00  0.752674408E+00
     4
 # iter = 29000  time[fs]=29.00000
   C -0.131035847E+01 -0.861803948E-02 -0.261811258E-01
   C  0.148068430E+01 -0.617938796E-02  0.106894807E-01
   H -0.789603552E+01  0.487994321E+00 -0.607105185E+00
   H  0.792408295E+01 -0.165716319E+00  0.782810516E+00
     4
 # iter = 29500  time[fs]=29.50000
   C -0.137040703E+01 -0.943202644E-02 -0.257158968E-01
   C  0.154672271E+01 -0.581997041E-02  0.104632040E-01
   H -0.823568219E+01  0.511791489E+00 -0.631029170E+00
   H  0.826006363E+01 -0.170684207E+00  0.818855548E+00
     4
 # iter = 30000  time[fs]=30.00000
   C -0.143184925E+01 -0.996244060E-02 -0.249796126E-01
   C  0.161475779E+01 -0.514156978E-02  0.105695083E-01
   H -0.857484152E+01  0.537361662E+00 -0.653357398E+00
   H  0.859898993E+01 -0.173986811E+00  0.856730147E+00
     4
 # iter = 30500  time[fs]=30.50000
   C -0.149532045E+01 -0.109849668E-01 -0.247451374E-01
   C  0.168380118E+01 -0.499219617E-02  0.101574863E-01
   H -0.891795507E+01  0.560164620E+00 -0.678616740E+00
   H  0.893622769E+01 -0.180159389E+00  0.891886627E+00
     4
 # iter = 31000  time[fs]=31.00000
   C -0.156070522E+01 -0.125103759E-01 -0.250209385E-01
   C  0.175371502E+01 -0.538341361E-02  0.921318464E-02
   H -0.926500266E+01  0.580132006E+00 -0.706863562E+00
   H  0.927162861E+01 -0.189263024E+00  0.924252942E+00
     4
 # iter = 31500  time[fs]=31.50000
   C -0.162738408E+01 -0.140326160E-01 -0.252990848E-01
   C  0.182493923E+01 -0.576165271E-02  0.828820138E-02
   H -0.961295138E+01  0.600216943E+00 -0.735133924E+00
   H  0.960807726E+01 -0.198335917E+00  0.956781179E+00
     4
 # iter = 32000  time[fs]=32.00000
   C -0.169494106E+01 -0.152378698E-01 -0.252642200E-01
   C  0.189771469E+01 -0.578371352E-02  0.772411654E-02
   H -0.995990024E+01  0.622248925E+00 -0.761588627E+00
   H  0.994734094E+01 -0.205541372E+00  0.991299301E+00
     4
 # iter = 32500  time[fs]=32.50000
   C -0.176341675E+01 -0.162588516E-01 -0.250477933E-01
   C  0.197180392E+01 -0.559487513E-02  0.737432427E-02
   H -0.103065660E+02  0.645447255E+00 -0.786999687E+00
   H  0.102885807E+02 -0.211655339E+00  0.102702342E+01
     4
 # iter = 33000  time[fs]=33.00000
   C -0.183300186E+01 -0.173694280E-01 -0.249226339E-01
   C  0.204682402E+01 -0.549485786E-02  0.693801700E-02
   H -0.106544967E+02  0.668206359E+00 -0.812964861E+00
   H  0.106301375E+02 -0.218279745E+00  0.106234438E+01
     4
 # iter = 33500  time[fs]=33.50000
   C -0.190370129E+01 -0.186496149E-01 -0.249679103E-01
   C  0.212261210E+01 -0.557138939E-02  0.632657364E-02
   H -0.110041122E+02  0.690054255E+00 -0.839949032E+00
   H  0.109714915E+02 -0.225882556E+00  0.109678768E+01
     4
 # iter = 34000  time[fs]=34.00000
   C -0.197532992E+01 -0.199822421E-01 -0.250657626E-01
   C  0.219922809E+01 -0.569654640E-02  0.566718297E-02
   H -0.113546837E+02  0.711672007E+00 -0.867264656E+00
   H  0.113132812E+02 -0.233778258E+00  0.113103289E+01
     4
 # iter = 34500  time[fs]=34.50000
   C -0.204771157E+01 -0.212527413E-01 -0.251010610E-01
   C  0.227673540E+01 -0.574527155E-02  0.508430000E-02
   H -0.117055020E+02  0.733725680E+00 -0.894239751E+00
   H  0.116561340E+02 -0.241296689E+00  0.116574474E+01
     4
 # iter = 35000  time[fs]=35.00000
   C -0.212079198E+01 -0.224627515E-01 -0.250749883E-01
   C  0.235507602E+01 -0.571962548E-02  0.457537198E-02
   H -0.120565404E+02  0.756202166E+00 -0.920882019E+00
   H  0.120000008E+02 -0.248447656E+00  0.120090845E+01
     4
 # iter = 35500  time[fs]=35.50000
   C -0.219458540E+01 -0.236774171E-01 -0.250523189E-01
   C  0.243412754E+01 -0.569113514E-02  0.406847108E-02
   H -0.124081470E+02  0.778717303E+00 -0.947570671E+00
   H  0.123444643E+02 -0.255612554E+00  0.123613804E+01
     4
 # iter = 36000  time[fs]=36.00000
   C -0.226908085E+01 -0.249320940E-01 -0.250681112E-01
   C  0.251380464E+01 -0.569874555E-02  0.352432652E-02
   H -0.127604982E+02  0.801061294E+00 -0.974510954E+00
   H  0.126892841E+02 -0.262998536E+00  0.127122215E+01
     4
 # iter = 36500  time[fs]=36.50000
   C -0.234422025E+01 -0.262110186E-01 -0.251063636E-01
   C  0.259408198E+01 -0.572548430E-02  0.295964699E-02
   H -0.131134741E+02  0.823323401E+00 -0.100160940E+01
   H  0.130345216E+02 -0.270513696E+00  0.130624880E+01
     4
 # iter = 37000  time[fs]=37.00000
   C -0.241993740E+01 -0.274866737E-01 -0.251393709E-01
   C  0.267495071E+01 -0.574151920E-02  0.240405256E-02
   H -0.134668884E+02  0.845661774E+00 -0.102870400E+01
   H  0.133803093E+02 -0.277997388E+00  0.134137504E+01
     4
 # iter = 37500  time[fs]=37.50000
   C -0.249618994E+01 -0.287521334E-01 -0.251600598E-01
   C  0.275638269E+01 -0.573953440E-02  0.186469009E-02
   H -0.138206769E+02  0.868114342E+00 -0.105575321E+01
   H  0.137266612E+02 -0.285409451E+00  0.137663770E+01
     4
 # iter = 38000  time[fs]=38.00000
   C -0.257295547E+01 -0.300174999E-01 -0.251784192E-01
   C  0.283833410E+01 -0.573083233E-02  0.133012403E-02
   H -0.141748770E+02  0.890619628E+00 -0.108281520E+01
   H  0.140734939E+02 -0.292809357E+00  0.141197423E+01
     4
 # iter = 38500  time[fs]=38.50000
   C -0.265021276E+01 -0.312914471E-01 -0.252030378E-01
   C  0.292076534E+01 -0.572514483E-02  0.790519306E-03
   H -0.145295192E+02  0.913124654E+00 -0.110993984E+01
   H  0.144207336E+02 -0.300248221E+00  0.144733063E+01
     4
 # iter = 39000  time[fs]=39.00000
   C -0.272793380E+01 -0.325734728E-01 -0.252333513E-01
   C  0.300364919E+01 -0.572215804E-02  0.246111335E-03
   H -0.148845817E+02  0.935630224E+00 -0.113712347E+01
   H  0.147683622E+02 -0.307723465E+00  0.148270680E+01
     4
 # iter = 39500  time[fs]=39.50000
   C -0.280608867E+01 -0.338590328E-01 -0.252647734E-01
   C  0.308696502E+01 -0.571712822E-02 -0.298413878E-03
   H -0.152400206E+02  0.958160897E+00 -0.116433883E+01
   H  0.151163863E+02 -0.315208862E+00  0.151812647E+01
     4
 # iter = 40000  time[fs]=40.00000
   C -0.288465168E+01 -0.351458884E-01 -0.252950389E-01
   C  0.317069162E+01 -0.570782421E-02 -0.840865697E-03
   H -0.155958066E+02  0.980727870E+00 -0.119157222E+01
   H  0.154648006E+02 -0.322691661E+00  0.155360005E+01
     4
 # iter = 40500  time[fs]=40.50000
   C -0.296360197E+01 -0.364348601E-01 -0.253249551E-01
   C  0.325480621E+01 -0.569535213E-02 -0.138237638E-02
   H -0.159519292E+02  0.100332456E+01 -0.121882789E+01
   H  0.158135829E+02 -0.330177007E+00  0.158912022E+01
     4
 # iter = 41000  time[fs]=41.00000
   C -0.304292076E+01 -0.377272547E-01 -0.253558268E-01
   C  0.333928707E+01 -0.568134135E-02 -0.192458949E-02
   H -0.163083821E+02  0.102594165E+01 -0.124611297E+01
   H  0.161627094E+02 -0.337672876E+00  0.162467695E+01
     4
 # iter = 41500  time[fs]=41.50000
   C -0.312258957E+01 -0.390232556E-01 -0.253878443E-01
   C  0.342411516E+01 -0.566618355E-02 -0.246790105E-02
   H -0.166651530E+02  0.104857646E+01 -0.127342805E+01
   H  0.165121638E+02 -0.345180664E+00  0.166026692E+01
     4
 # iter = 42000  time[fs]=42.00000
   C -0.320259051E+01 -0.403222851E-01 -0.254204441E-01
   C  0.350927360E+01 -0.564942957E-02 -0.301185798E-02
   H -0.170222260E+02  0.107123088E+01 -0.130076934E+01
   H  0.168619351E+02 -0.352697300E+00  0.169589140E+01
     4
 # iter = 42500  time[fs]=42.50000
   C -0.328290699E+01 -0.416238832E-01 -0.254531865E-01
   C  0.359474661E+01 -0.563075103E-02 -0.355612128E-02
   H -0.173795870E+02  0.109390618E+01 -0.132813375E+01
   H  0.172120127E+02 -0.360220393E+00  0.173155107E+01
     4
 # iter = 43000  time[fs]=43.00000
   C -0.336352390E+01 -0.429279726E-01 -0.254860197E-01
   C  0.368051909E+01 -0.561023025E-02 -0.410075702E-02
   H -0.177372243E+02  0.111660146E+01 -0.135552045E+01
   H  0.175623842E+02 -0.367749780E+00  0.176724450E+01
     4
 # iter = 43500  time[fs]=43.50000
   C -0.344442728E+01 -0.442346144E-01 -0.255190339E-01
   C  0.376657677E+01 -0.558809343E-02 -0.464597063E-02
   H -0.180951282E+02  0.113931509E+01 -0.138292947E+01
   H  0.179130375E+02 -0.375286096E+00  0.180296954E+01
     4
 # iter = 44000  time[fs]=44.00000
   C -0.352560400E+01 -0.455437845E-01 -0.255522371E-01
   C  0.385290646E+01 -0.556446626E-02 -0.519186335E-02
   H -0.184532887E+02  0.116204601E+01 -0.141036035E+01
   H  0.182639614E+02 -0.382829465E+00  0.183872463E+01
     4
 # iter = 44500  time[fs]=44.50000
   C -0.360704170E+01 -0.468553675E-01 -0.255855490E-01
   C  0.393949587E+01 -0.553936813E-02 -0.573842711E-02
   H -0.188116959E+02  0.118479374E+01 -0.143781213E+01
   H  0.186151459E+02 -0.390379472E+00  0.187450884E+01
     4
 # iter = 45000  time[fs]=45.00000
   C -0.368872878E+01 -0.481692431E-01 -0.256188861E-01
   C  0.402633353E+01 -0.551280623E-02 -0.628563930E-02
   H -0.191703406E+02  0.120755790E+01 -0.146528381E+01
   H  0.189665817E+02 -0.397935656E+00  0.191032136E+01
     4
 # iter = 45500  time[fs]=45.50000
   C -0.377065439E+01 -0.494853269E-01 -0.256522019E-01
   C  0.411340865E+01 -0.548482076E-02 -0.683350844E-02
   H -0.195292141E+02  0.123033796E+01 -0.149277467E+01
   H  0.193182597E+02 -0.405497761E+00  0.194616123E+01
     4
 # iter = 46000  time[fs]=46.00000
   C -0.385280835E+01 -0.508035559E-01 -0.256854727E-01
   C  0.420071105E+01 -0.545546958E-02 -0.738205933E-02
   H -0.198883082E+02  0.125313329E+01 -0.152028408E+01
   H  0.196701713E+02 -0.413065645E+00  0.198202745E+01
     4
 # iter = 46500  time[fs]=46.50000
   C -0.393518112E+01 -0.521238669E-01 -0.257186752E-01
   C  0.428823121E+01 -0.542480466E-02 -0.793130979E-02
   H -0.202476152E+02  0.127594334E+01 -0.154781146E+01
   H  0.200223084E+02 -0.420639155E+00  0.201791907E+01
     4
 # iter = 47000  time[fs]=47.00000
   C -0.401776369E+01 -0.534461918E-01 -0.257517816E-01
   C  0.437596014E+01 -0.539286730E-02 -0.848126620E-02
   H -0.206071278E+02  0.129876761E+01 -0.157535619E+01
   H  0.203746631E+02 -0.428218101E+00  0.205383526E+01
     4
 # iter = 47500  time[fs]=47.50000
   C -0.410054758E+01 -0.547704633E-01 -0.257847651E-01
   C  0.446388941E+01 -0.535969452E-02 -0.903193020E-02
   H -0.209668391E+02  0.132160565E+01 -0.160291769E+01
   H  0.207272283E+02 -0.435802289E+00  0.208977522E+01
     4
 # iter = 48000  time[fs]=48.00000
   C -0.418352478E+01 -0.560966187E-01 -0.258176034E-01
   C  0.455201106E+01 -0.532532362E-02 -0.958330343E-02
   H -0.213267423E+02  0.134445703E+01 -0.163049539E+01
   H  0.210799968E+02 -0.443391545E+00  0.212573820E+01
     4
 # iter = 48500  time[fs]=48.50000
   C -0.426668776E+01 -0.574245996E-01 -0.258502786E-01
   C  0.464031755E+01 -0.528979200E-02 -0.101353875E-01
   H -0.216868311E+02  0.136732131E+01 -0.165808879E+01
   H  0.214329621E+02 -0.450985709E+00  0.216172346E+01
     4
 # iter = 49000  time[fs]=49.00000
   C -0.435002939E+01 -0.587543502E-01 -0.258827747E-01
   C  0.472880179E+01 -0.525313560E-02 -0.106881827E-01
   H -0.220470996E+02  0.139019808E+01 -0.168569739E+01
   H  0.217861178E+02 -0.458584633E+00  0.219773030E+01
     4
 # iter = 49500  time[fs]=49.50000
   C -0.443354293E+01 -0.600858167E-01 -0.259150777E-01
   C  0.481745707E+01 -0.521538839E-02 -0.112416874E-01
   H -0.224075421E+02  0.141308696E+01 -0.171332071E+01
   H  0.221394580E+02 -0.466188170E+00  0.223375806E+01
     4
 # iter = 50000  time[fs]=50.00000
   C -0.451722200E+01 -0.614189474E-01 -0.259471748E-01
   C  0.490627703E+01 -0.517658272E-02 -0.117958987E-01
   H -0.227681530E+02  0.143598758E+01 -0.174095831E+01
   H  0.224929768E+02 -0.473796180E+00  0.226980610E+01
     4
 # iter = 50500  time[fs]=50.50000
   C -0.460106055E+01 -0.627536929E-01 -0.259790552E-01
   C  0.499525565E+01 -0.513674967E-02 -0.123508129E-01
   H -0.231289273E+02  0.145889959E+01 -0.176860976E+01
   H  0.228466689E+02 -0.481408530E+00  0.230587381E+01
     4
 # iter = 51000  time[fs]=51.00000
   C -0.468505287E+01 -0.640900056E-01 -0.260107093E-01
   C  0.508438722E+01 -0.509591915E-02 -0.129064255E-01
   H -0.234898599E+02  0.148182265E+01 -0.179627463E+01
   H  0.232005290E+02 -0.489025091E+00  0.234196063E+01
     4
 # iter = 51500  time[fs]=51.50000
   C -0.476919350E+01 -0.654278404E-01 -0.260421291E-01
   C  0.517366634E+01 -0.505411992E-02 -0.134627312E-01
   H -0.238509461E+02  0.150475644E+01 -0.182395254E+01
   H  0.235545520E+02 -0.496645743E+00  0.237806598E+01
     4
 # iter = 52000  time[fs]=52.00000
   C -0.485347731E+01 -0.667671537E-01 -0.260733076E-01
   C  0.526308786E+01 -0.501137956E-02 -0.140197243E-01
   H -0.242121813E+02  0.152770065E+01 -0.185164312E+01
   H  0.239087332E+02 -0.504270368E+00  0.241418936E+01
     4
 # iter = 52500  time[fs]=52.50000
   C -0.493789937E+01 -0.681079038E-01 -0.261042388E-01
   C  0.535264690E+01 -0.496772455E-02 -0.145773984E-01
   H -0.245735613E+02  0.155065499E+01 -0.187934600E+01
   H  0.242630680E+02 -0.511898854E+00  0.245033024E+01
     4
 # iter = 53000  time[fs]=53.00000
   C -0.502245502E+01 -0.694500506E-01 -0.261349177E-01
   C  0.544233881E+01 -0.492318033E-02 -0.151357468E-01
   H -0.249350819E+02  0.157361917E+01 -0.190706083E+01
   H  0.246175521E+02 -0.519531096E+00  0.248648814E+01
     4
 # iter = 53500  time[fs]=53.50000
   C -0.510713983E+01 -0.707935556E-01 -0.261653401E-01
   C  0.553215917E+01 -0.487777136E-02 -0.156947624E-01
   H -0.252967391E+02  0.159659293E+01 -0.193478729E+01
   H  0.249721813E+02 -0.527166989E+00  0.252266260E+01
     4
 # iter = 54000  time[fs]=54.00000
   C -0.519194956E+01 -0.721383819E-01 -0.261955026E-01
   C  0.562210377E+01 -0.483152116E-02 -0.162544379E-01
   H -0.256585291E+02  0.161957600E+01 -0.196252506E+01
   H  0.253269514E+02 -0.534806435E+00  0.255885316E+01
     4
 # iter = 54500  time[fs]=54.50000
   C -0.527688019E+01 -0.734844940E-01 -0.262254023E-01
   C  0.571216860E+01 -0.478445237E-02 -0.168147654E-01
   H -0.260204483E+02  0.164256814E+01 -0.199027383E+01
   H  0.256818588E+02 -0.542449340E+00  0.259505940E+01
     4
 # iter = 55000  time[fs]=55.00000
   C -0.536192787E+01 -0.748318576E-01 -0.262550371E-01
   C  0.580234983E+01 -0.473658674E-02 -0.173757374E-01
   H -0.263824931E+02  0.166556910E+01 -0.201803332E+01
   H  0.260368996E+02 -0.550095613E+00  0.263128090E+01
     4
 # iter = 55500  time[fs]=55.50000
   C -0.544708893E+01 -0.761804400E-01 -0.262844053E-01
   C  0.589264381E+01 -0.468794523E-02 -0.179373456E-01
   H -0.267446601E+02  0.168857866E+01 -0.204580323E+01
   H  0.263920703E+02 -0.557745167E+00  0.266751727E+01
     4
 # iter = 56000  time[fs]=56.00000
   C -0.553235988E+01 -0.775302096E-01 -0.263135057E-01
   C  0.598304704E+01 -0.463854803E-02 -0.184995821E-01
   H -0.271069463E+02  0.171159659E+01 -0.207358330E+01
   H  0.267473675E+02 -0.565397917E+00  0.270376812E+01
     4
 # iter = 56500  time[fs]=56.50000
   C -0.561773735E+01 -0.788811358E-01 -0.263423375E-01
   C  0.607355621E+01 -0.458841455E-02 -0.190624386E-01
   H -0.274693483E+02  0.173462268E+01 -0.210137328E+01
   H  0.271027880E+02 -0.573053783E+00  0.274003310E+01
     4
 # iter = 57000  time[fs]=57.00000
   C -0.570321816E+01 -0.802331894E-01 -0.263709006E-01
   C  0.616416811E+01 -0.453756354E-02 -0.196259069E-01
   H -0.278318634E+02  0.175765672E+01 -0.212917291E+01
   H  0.274583284E+02 -0.580712687E+00  0.277631184E+01
     4
 # iter = 57500  time[fs]=57.50000
   C -0.578879924E+01 -0.815863422E-01 -0.263991947E-01
   C  0.625487970E+01 -0.448601305E-02 -0.201899787E-01
   H -0.281944885E+02  0.178069853E+01 -0.215698194E+01
   H  0.278139859E+02 -0.588374553E+00  0.281260401E+01
     4
 # iter = 58000  time[fs]=58.00000
   C -0.587447765E+01 -0.829405669E-01 -0.264272202E-01
   C  0.634568806E+01 -0.443378047E-02 -0.207546458E-01
   H -0.285572209E+02  0.180374791E+01 -0.218480016E+01
   H  0.281697575E+02 -0.596039311E+00  0.284890928E+01
     4
 # iter = 58500  time[fs]=58.50000
   C -0.596025059E+01 -0.842958373E-01 -0.264549776E-01
   C  0.643659040E+01 -0.438088261E-02 -0.213198998E-01
   H -0.289200581E+02  0.182680467E+01 -0.221262733E+01
   H  0.285256404E+02 -0.603706890E+00  0.288522732E+01
     4
 # iter = 59000  time[fs]=59.00000
   C -0.604611536E+01 -0.856521280E-01 -0.264824678E-01
   C  0.652758404E+01 -0.432733565E-02 -0.218857325E-01
   H -0.292829973E+02  0.184986864E+01 -0.224046325E+01
   H  0.288816318E+02 -0.611377223E+00  0.292155785E+01
     4
 # iter = 59500  time[fs]=59.50000
   C -0.613206939E+01 -0.870094147E-01 -0.265096918E-01
   C  0.661866640E+01 -0.427315525E-02 -0.224521356E-01
   H -0.296460361E+02  0.187293965E+01 -0.226830769E+01
   H  0.292377292E+02 -0.619050246E+00  0.295790056E+01
     4
 # iter = 60000  time[fs]=60.00000
   C -0.621811019E+01 -0.883676737E-01 -0.265366508E-01
   C  0.670983503E+01 -0.421835650E-02 -0.230191010E-01
   H -0.300091722E+02  0.189601753E+01 -0.229616047E+01
   H  0.295939300E+02 -0.626725896E+00  0.299425517E+01
     4
 # iter = 60500  time[fs]=60.50000
   C -0.630423539E+01 -0.897268823E-01 -0.265633463E-01
   C  0.680108755E+01 -0.416295397E-02 -0.235866207E-01
   H -0.303724032E+02  0.191910213E+01 -0.232402139E+01
   H  0.299502318E+02 -0.634404113E+00  0.303062141E+01
     4
 # iter = 61000  time[fs]=61.00000
   C -0.639044271E+01 -0.910870185E-01 -0.265897796E-01
   C  0.689242170E+01 -0.410696178E-02 -0.241546864E-01
   H -0.307357269E+02  0.194219330E+01 -0.235189026E+01
   H  0.303066322E+02 -0.642084838E+00  0.306699902E+01
     4
 # iter = 61500  time[fs]=61.50000
   C -0.647672996E+01 -0.924480610E-01 -0.266159526E-01
   C  0.698383529E+01 -0.405039353E-02 -0.247232904E-01
   H -0.310991412E+02  0.196529088E+01 -0.237976691E+01
   H  0.306631289E+02 -0.649768015E+00  0.310338773E+01
     4
 # iter = 62000  time[fs]=62.00000
   C -0.656309501E+01 -0.938099892E-01 -0.266418671E-01
   C  0.707532621E+01 -0.399326240E-02 -0.252924248E-01
   H -0.314626440E+02  0.198839473E+01 -0.240765116E+01
   H  0.310197199E+02 -0.657453590E+00  0.313978730E+01
     4
 # iter = 62500  time[fs]=62.50000
   C -0.664953585E+01 -0.951727834E-01 -0.266675248E-01
   C  0.716689246E+01 -0.393558112E-02 -0.258620817E-01
   H -0.318262334E+02  0.201150472E+01 -0.243554283E+01
   H  0.313764029E+02 -0.665141511E+00  0.317619749E+01
     4
 # iter = 63000  time[fs]=63.00000
   C -0.673605053E+01 -0.965364242E-01 -0.266929279E-01
   C  0.725853210E+01 -0.387736201E-02 -0.264322534E-01
   H -0.321899073E+02  0.203462070E+01 -0.246344178E+01
   H  0.317331759E+02 -0.672831725E+00  0.321261807E+01
     4
 # iter = 63500  time[fs]=63.50000
   C -0.682263715E+01 -0.979008930E-01 -0.267180785E-01
   C  0.735024324E+01 -0.381861700E-02 -0.270029325E-01
   H -0.325536639E+02  0.205774256E+01 -0.249134783E+01
   H  0.320900369E+02 -0.680524185E+00  0.324904882E+01
     4
 # iter = 64000  time[fs]=64.00000
   C -0.690929392E+01 -0.992661719E-01 -0.267429785E-01
   C  0.744202409E+01 -0.375935763E-02 -0.275741114E-01
   H -0.329175014E+02  0.208087016E+01 -0.251926084E+01
   H  0.324469840E+02 -0.688218842E+00  0.328548952E+01
     4
 # iter = 64500  time[fs]=64.50000
   C -0.699601909E+01 -0.100632243E+00 -0.267676304E-01
   C  0.753387291E+01 -0.369959508E-02 -0.281457828E-01
   H -0.332814181E+02  0.210400339E+01 -0.254718066E+01
   H  0.328040154E+02 -0.695915650E+00  0.332193996E+01
     4
 # iter = 65000  time[fs]=65.00000
   C -0.708281098E+01 -0.101999091E+00 -0.267920362E-01
   C  0.762578803E+01 -0.363934017E-02 -0.287179394E-01
   H -0.336454122E+02  0.212714212E+01 -0.257510715E+01
   H  0.331611293E+02 -0.703614564E+00  0.335839993E+01
     4
 # iter = 65500  time[fs]=65.50000
   C -0.716966796E+01 -0.103366697E+00 -0.268161984E-01
   C  0.771776785E+01 -0.357860340E-02 -0.292905741E-01
   H -0.340094821E+02  0.215028625E+01 -0.260304017E+01
   H  0.335183238E+02 -0.711315542E+00  0.339486925E+01
     4
 # iter = 66000  time[fs]=66.00000
   C -0.725658847E+01 -0.104735047E+00 -0.268401191E-01
   C  0.780981079E+01 -0.351739493E-02 -0.298636797E-01
   H -0.343736263E+02  0.217343566E+01 -0.263097958E+01
   H  0.338755974E+02 -0.719018540E+00  0.343134772E+01
     4
 # iter = 66500  time[fs]=66.50000
   C -0.734357101E+01 -0.106104125E+00 -0.268638009E-01
   C  0.790191537E+01 -0.345572462E-02 -0.304372495E-01
   H -0.347378432E+02  0.219659024E+01 -0.265892526E+01
   H  0.342329484E+02 -0.726723518E+00  0.346783515E+01
     4
 # iter = 67000  time[fs]=67.00000
   C -0.743061411E+01 -0.107473917E+00 -0.268872460E-01
   C  0.799408012E+01 -0.339360202E-02 -0.310112765E-01
   H -0.351021312E+02  0.221974990E+01 -0.268687707E+01
   H  0.345903752E+02 -0.734430437E+00  0.350433137E+01
     4
 # iter = 67500  time[fs]=67.50000
   C -0.751771637E+01 -0.108844407E+00 -0.269104569E-01
   C  0.808630366E+01 -0.333103642E-02 -0.315857541E-01
   H -0.354664890E+02  0.224291453E+01 -0.271483490E+01
   H  0.349478762E+02 -0.742139259E+00  0.354083620E+01
     4
 # iter = 68000  time[fs]=68.00000
   C -0.760487643E+01 -0.110215581E+00 -0.269334360E-01
   C  0.817858462E+01 -0.326803680E-02 -0.321606757E-01
   H -0.358309152E+02  0.226608403E+01 -0.274279863E+01
   H  0.353054501E+02 -0.749849945E+00  0.357734948E+01
     4
 # iter = 68500  time[fs]=68.50000
   C -0.769209297E+01 -0.111587427E+00 -0.269561857E-01
   C  0.827092171E+01 -0.320461189E-02 -0.327360348E-01
   H -0.361954083E+02  0.228925830E+01 -0.277076814E+01
   H  0.356630953E+02 -0.757562460E+00  0.361387103E+01
     4
 # iter = 69000  time[fs]=69.00000
   C -0.777936472E+01 -0.112959931E+00 -0.269787084E-01
   C  0.836331364E+01 -0.314077018E-02 -0.333118250E-01
   H -0.365599671E+02  0.231243727E+01 -0.279874331E+01
   H  0.360208105E+02 -0.765276768E+00  0.365040070E+01
     4
 # iter = 69500  time[fs]=69.50000
   C -0.786669045E+01 -0.114333080E+00 -0.270010065E-01
   C  0.845575922E+01 -0.307651990E-02 -0.338880402E-01
   H -0.369245903E+02  0.233562083E+01 -0.282672405E+01
   H  0.363785942E+02 -0.772992836E+00  0.368693833E+01
     4
 # iter = 70000  time[fs]=70.00000
   C -0.795406898E+01 -0.115706861E+00 -0.270230825E-01
   C  0.854825724E+01 -0.301186903E-02 -0.344646741E-01
   H -0.372892766E+02  0.235880890E+01 -0.285471024E+01
   H  0.367364452E+02 -0.780710630E+00  0.372348378E+01
     4
 # iter = 70500  time[fs]=70.50000
   C -0.804149915E+01 -0.117081262E+00 -0.270449387E-01
   C  0.864080656E+01 -0.294682534E-02 -0.350417206E-01
   H -0.376540249E+02  0.238200139E+01 -0.288270179E+01
   H  0.370943621E+02 -0.788430119E+00  0.376003690E+01
     4
 # iter = 71000  time[fs]=71.00000
   C -0.812897984E+01 -0.118456272E+00 -0.270665776E-01
   C  0.873340608E+01 -0.288139639E-02 -0.356191740E-01
   H -0.380188339E+02  0.240519823E+01 -0.291069858E+01
   H  0.374523438E+02 -0.796151270E+00  0.379659754E+01
     4
 # iter = 71500  time[fs]=71.50000
   C -0.821650998E+01 -0.119831880E+00 -0.270880016E-01
   C  0.882605472E+01 -0.281558950E-02 -0.361970283E-01
   H -0.383837025E+02  0.242839933E+01 -0.293870054E+01
   H  0.378103890E+02 -0.803874054E+00  0.383316557E+01
     4
 # iter = 72000  time[fs]=72.00000
   C -0.830408852E+01 -0.121208073E+00 -0.271092130E-01
   C  0.891875144E+01 -0.274941182E-02 -0.367752778E-01
   H -0.387486296E+02  0.245160461E+01 -0.296670755E+01
   H  0.381684965E+02 -0.811598440E+00  0.386974086E+01
     4
 # iter = 72500  time[fs]=72.50000
   C -0.839171445E+01 -0.122584841E+00 -0.271302143E-01
   C  0.901149523E+01 -0.268287028E-02 -0.373539170E-01
   H -0.391136141E+02  0.247481401E+01 -0.299471953E+01
   H  0.385266652E+02 -0.819324400E+00  0.390632326E+01
     4
 # iter = 73000  time[fs]=73.00000
   C -0.847938678E+01 -0.123962174E+00 -0.271510077E-01
   C  0.910428512E+01 -0.261597162E-02 -0.379329402E-01
   H -0.394786550E+02  0.249802744E+01 -0.302273639E+01
   H  0.388848940E+02 -0.827051905E+00  0.394291266E+01
     4
 # iter = 73500  time[fs]=73.50000
   C -0.856710456E+01 -0.125340062E+00 -0.271715956E-01
   C  0.919712016E+01 -0.254872242E-02 -0.385123422E-01
   H -0.398437512E+02  0.252124483E+01 -0.305075805E+01
   H  0.392431818E+02 -0.834780929E+00  0.397950894E+01
     4
 # iter = 74000  time[fs]=74.00000
   C -0.865486687E+01 -0.126718494E+00 -0.271919804E-01
   C  0.928999942E+01 -0.248112906E-02 -0.390921175E-01
   H -0.402089018E+02  0.254446612E+01 -0.307878441E+01
   H  0.396015274E+02 -0.842511445E+00  0.401611196E+01
     4
 # iter = 74500  time[fs]=74.50000
   C -0.874267280E+01 -0.128097460E+00 -0.272121642E-01
   C  0.938292202E+01 -0.241319775E-02 -0.396722609E-01
   H -0.405741058E+02  0.256769124E+01 -0.310681540E+01
   H  0.399599300E+02 -0.850243427E+00  0.405272161E+01
     4
 # iter = 75000  time[fs]=75.00000
   C -0.883052149E+01 -0.129476952E+00 -0.272321495E-01
   C  0.947588709E+01 -0.234493456E-02 -0.402527674E-01
   H -0.409393622E+02  0.259092011E+01 -0.313485093E+01
   H  0.403183885E+02 -0.857976849E+00  0.408933778E+01
     4
 # iter = 75500  time[fs]=75.50000
   C -0.891841210E+01 -0.130856960E+00 -0.272519384E-01
   C  0.956889379E+01 -0.227634538E-02 -0.408336318E-01
   H -0.413046701E+02  0.261415269E+01 -0.316289093E+01
   H  0.406769019E+02 -0.865711688E+00  0.412596036E+01
     4
 # iter = 76000  time[fs]=76.00000
   C -0.900634379E+01 -0.132237474E+00 -0.272715332E-01
   C  0.966194130E+01 -0.220743596E-02 -0.414148493E-01
   H -0.416700286E+02  0.263738889E+01 -0.319093532E+01
   H  0.410354692E+02 -0.873447918E+00  0.416258924E+01
     4
 # iter = 76500  time[fs]=76.50000
   C -0.909431578E+01 -0.133618487E+00 -0.272909361E-01
   C  0.975502883E+01 -0.213821189E-02 -0.419964150E-01
   H -0.420354369E+02  0.266062867E+01 -0.321898403E+01
   H  0.413940896E+02 -0.881185517E+00  0.419922431E+01
     4
 # iter = 77000  time[fs]=77.00000
   C -0.918232729E+01 -0.134999990E+00 -0.273101493E-01
   C  0.984815561E+01 -0.206867861E-02 -0.425783242E-01
   H -0.424008941E+02  0.268387196E+01 -0.324703698E+01
   H  0.417527622E+02 -0.888924462E+00  0.423586547E+01
     4
 # iter = 77500  time[fs]=77.50000
   C -0.927037756E+01 -0.136381974E+00 -0.273291749E-01
   C  0.994132089E+01 -0.199884146E-02 -0.431605721E-01
   H -0.427663994E+02  0.270711870E+01 -0.327509411E+01
   H  0.421114860E+02 -0.896664730E+00  0.427251262E+01
     4
 # iter = 78000  time[fs]=78.00000
   C -0.935846587E+01 -0.137764432E+00 -0.273480151E-01
   C  0.100345239E+02 -0.192870560E-02 -0.437431542E-01
   H -0.431319520E+02  0.273036885E+01 -0.330315534E+01
   H  0.424702601E+02 -0.904406300E+00  0.430916566E+01
     4
 # iter = 78500  time[fs]=78.50000
   C -0.944659150E+01 -0.139147355E+00 -0.273666719E-01
   C  0.101277641E+02 -0.185827608E-02 -0.443260660E-01
   H -0.434975511E+02  0.275362233E+01 -0.333122060E+01
   H  0.428290839E+02 -0.912149151E+00  0.434582449E+01
     4
 # iter = 79000  time[fs]=79.00000
   C -0.953475376E+01 -0.140530735E+00 -0.273851476E-01
   C  0.102210406E+02 -0.178755784E-02 -0.449093030E-01
   H -0.438631958E+02  0.277687910E+01 -0.335928984E+01
   H  0.431879564E+02 -0.919893263E+00  0.438248902E+01
     4
 # iter = 79500  time[fs]=79.50000
   C -0.962295198E+01 -0.141914566E+00 -0.274034441E-01
   C  0.103143528E+02 -0.171655568E-02 -0.454928609E-01
   H -0.442288856E+02  0.280013911E+01 -0.338736299E+01
   H  0.435468769E+02 -0.927638614E+00  0.441915916E+01
     4
 # iter = 80000  time[fs]=80.00000
   C -0.971118549E+01 -0.143298840E+00 -0.274215635E-01
   C  0.104077000E+02 -0.164527428E-02 -0.460767355E-01
   H -0.445946196E+02  0.282340230E+01 -0.341543998E+01
   H  0.439058445E+02 -0.935385185E+00  0.445583482E+01
