     4
 # iter = 25000  time[fs]=25.00000
   C -0.990412125E+00 -0.217413036E-01  0.230457475E-01
   C  0.100525315E+01  0.212317955E-01  0.398061073E-01
   H -0.528059348E+01 -0.129843131E+00 -0.350286833E+00
   H  0.540230577E+01  0.425584072E+00  0.461047397E+00
     4
 # iter = 25500  time[fs]=25.50000
   C -0.103862195E+01 -0.232885347E-01  0.232505541E-01
   C  0.104844035E+01  0.185632235E-01  0.367138949E-01
   H -0.562484751E+01 -0.147009050E+00 -0.383871539E+00
   H  0.571299194E+01  0.442664298E+00  0.477085275E+00
     4
 # iter = 26000  time[fs]=26.00000
   C -0.109238647E+01 -0.256820594E-01  0.226839091E-01
   C  0.109522126E+01  0.147612575E-01  0.324239681E-01
   H -0.597717585E+01 -0.169653838E+00 -0.423071879E+00
   H  0.602085051E+01  0.454545730E+00  0.487934865E+00
     4
 # iter = 26500  time[fs]=26.50000
   C -0.114905181E+01 -0.266795114E-01  0.235831628E-01
   C  0.114880128E+01  0.134481312E-01  0.305624008E-01
   H -0.632118471E+01 -0.181686747E+00 -0.451781247E+00
   H  0.634171745E+01  0.477303815E+00  0.509669865E+00
     4
 # iter = 27000  time[fs]=27.00000
   C -0.120810023E+01 -0.261588008E-01  0.260653769E-01
   C  0.120895097E+01  0.147927352E-01  0.313021700E-01
   H -0.665582641E+01 -0.182305162E+00 -0.469184330E+00
   H  0.667615795E+01  0.511716434E+00  0.543066763E+00
     4
 # iter = 27500  time[fs]=27.50000
   C -0.127080728E+01 -0.257677557E-01  0.284778054E-01
   C  0.127258346E+01  0.160812991E-01  0.319336606E-01
   H -0.699286086E+01 -0.183468869E+00 -0.487230648E+00
   H  0.701198963E+01  0.545791286E+00  0.576132135E+00
     4
 # iter = 28000  time[fs]=28.00000
   C -0.133799746E+01 -0.266708961E-01  0.296512451E-01
   C  0.133743660E+01  0.153924071E-01  0.305394809E-01
   H -0.734057712E+01 -0.193638970E+00 -0.514372481E+00
   H  0.734056154E+01  0.571040868E+00  0.600377575E+00
     4
 # iter = 28500  time[fs]=28.50000
   C -0.140888492E+01 -0.283872379E-01  0.300623019E-01
   C  0.140397089E+01  0.134927960E-01  0.278901472E-01
   H -0.769539538E+01 -0.209389351E+00 -0.547175808E+00
   H  0.766514905E+01  0.590877910E+00  0.619215085E+00
     4
 # iter = 29000  time[fs]=29.00000
   C -0.148202825E+01 -0.297481602E-01  0.308755408E-01
   C  0.147380354E+01  0.122739927E-01  0.258807063E-01
   H -0.804878208E+01 -0.222322644E+00 -0.577236234E+00
   H  0.799402489E+01  0.613692866E+00  0.641034522E+00
     4
 # iter = 29500  time[fs]=29.50000
   C -0.155677557E+01 -0.303469279E-01  0.324939549E-01
   C  0.154733868E+01  0.123863586E-01  0.251647972E-01
   H -0.839771736E+01 -0.229536818E+00 -0.601645655E+00
   H  0.832997634E+01  0.642377778E+00  0.668727434E+00
     4
 # iter = 30000  time[fs]=30.00000
   C -0.163346510E+01 -0.307418989E-01  0.343557514E-01
   C  0.162343277E+01  0.129070725E-01  0.248226331E-01
   H -0.874616120E+01 -0.235093351E+00 -0.624460331E+00
   H  0.866883269E+01  0.672856564E+00  0.698217322E+00
     4
 # iter = 30500  time[fs]=30.50000
   C -0.171252440E+01 -0.315571202E-01  0.358337496E-01
   C  0.170086068E+01  0.128078957E-01  0.238287560E-01
   H -0.909855539E+01 -0.243523252E+00 -0.650206683E+00
   H  0.900596458E+01  0.700584418E+00  0.724959029E+00
     4
 # iter = 31000  time[fs]=31.00000
   C -0.179378447E+01 -0.327981602E-01  0.369195351E-01
   C  0.177943031E+01  0.120717106E-01  0.221685740E-01
   H -0.945488038E+01 -0.254887086E+00 -0.678941139E+00
   H  0.934122794E+01  0.725491899E+00  0.748882820E+00
     4
 # iter = 31500  time[fs]=31.50000
   C -0.187667801E+01 -0.340527901E-01  0.380227565E-01
   C  0.185965216E+01  0.113646352E-01  0.205104946E-01
   H -0.981210408E+01 -0.266225062E+00 -0.707700161E+00
   H  0.967751109E+01  0.750533458E+00  0.772942891E+00
     4
 # iter = 32000  time[fs]=32.00000
   C -0.196081050E+01 -0.350647658E-01  0.393973178E-01
   C  0.194179992E+01  0.110990635E-01  0.192689898E-01
   H -0.101683262E+02 -0.275701606E+00 -0.734644816E+00
   H  0.100165846E+02  0.777539152E+00  0.798969083E+00
     4
 # iter = 32500  time[fs]=32.50000
   C -0.204616377E+01 -0.359395717E-01  0.409356114E-01
   C  0.202557223E+01  0.110976149E-01  0.182685669E-01
   H -0.105242638E+02 -0.284091688E+00 -0.760547065E+00
   H  0.103576123E+02  0.805726935E+00  0.826179164E+00
     4
 # iter = 33000  time[fs]=33.00000
   C -0.213284719E+01 -0.368972246E-01  0.424156945E-01
   C  0.211049457E+01  0.109966334E-01  0.171472840E-01
   H -0.108814653E+02 -0.292995621E+00 -0.787004512E+00
   H  0.106989377E+02  0.833489309E+00  0.852965469E+00
     4
 # iter = 33500  time[fs]=33.50000
   C -0.222082512E+01 -0.380011096E-01  0.437724345E-01
   C  0.219636040E+01  0.106888334E-01  0.157994092E-01
   H -0.112403507E+02 -0.302880722E+00 -0.814482007E+00
   H  0.110400430E+02  0.860353260E+00  0.878854846E+00
     4
 # iter = 34000  time[fs]=34.00000
   C -0.230991279E+01 -0.391552358E-01  0.451002353E-01
   C  0.228323418E+01  0.103276713E-01  0.143798083E-01
   H -0.116001919E+02 -0.313061804E+00 -0.842292109E+00
   H  0.113815688E+02  0.886999733E+00  0.904528113E+00
     4
 # iter = 34500  time[fs]=34.50000
   C -0.239993667E+01 -0.402658829E-01  0.464913739E-01
   C  0.237118608E+01  0.100633078E-01  0.130399224E-01
   H -0.119602797E+02 -0.322869041E+00 -0.869762927E+00
   H  0.117241441E+02  0.914094714E+00  0.930651146E+00
     4
 # iter = 35000  time[fs]=35.00000
   C -0.249082531E+01 -0.413335123E-01  0.479440746E-01
   C  0.246014073E+01  0.989246533E-02  0.117776392E-01
   H -0.123205880E+02 -0.332312034E+00 -0.896902171E+00
   H  0.120677215E+02  0.941624547E+00  0.957210192E+00
     4
 # iter = 35500  time[fs]=35.50000
   C -0.258256574E+01 -0.424100968E-01  0.494051654E-01
   C  0.254994597E+01  0.972805995E-02  0.105069364E-01
   H -0.126814649E+02 -0.341771685E+00 -0.924089014E+00
   H  0.124118848E+02  0.969204278E+00  0.983820213E+00
     4
 # iter = 36000  time[fs]=36.00000
   C -0.267512714E+01 -0.435236066E-01  0.508455812E-01
   C  0.264049530E+01  0.952247405E-02  0.918116504E-02
   H -0.130430870E+02 -0.351454814E+00 -0.951528677E+00
   H  0.127563949E+02  0.996623481E+00  0.101027070E+01
     4
 # iter = 36500  time[fs]=36.50000
   C -0.276844295E+01 -0.446607298E-01  0.522776319E-01
   C  0.273175535E+01  0.929573295E-02  0.782123511E-02
   H -0.134053348E+02 -0.361269443E+00 -0.979127708E+00
   H  0.131013143E+02  0.102397104E+01  0.103665047E+01
     4
 # iter = 37000  time[fs]=37.00000
   C -0.286244200E+01 -0.457987161E-01  0.537231495E-01
   C  0.282371325E+01  0.908346936E-02  0.646358894E-02
   H -0.137680219E+02 -0.371054924E+00 -0.100672410E+01
   H  0.134467765E+02  0.105140480E+01  0.106311732E+01
     4
 # iter = 37500  time[fs]=37.50000
   C -0.295707419E+01 -0.469315397E-01  0.551873172E-01
   C  0.291633333E+01  0.889417161E-02  0.511745682E-02
   H -0.141310844E+02 -0.380771005E+00 -0.103427632E+01
   H  0.137927964E+02  0.107896233E+01  0.108970874E+01
     4
 # iter = 38000  time[fs]=38.00000
   C -0.305230710E+01 -0.480670076E-01  0.566615529E-01
   C  0.300956133E+01  0.871388442E-02  0.376956466E-02
   H -0.144945597E+02 -0.390476994E+00 -0.106184251E+01
   H  0.141392911E+02  0.110658173E+01  0.111636280E+01
     4
 # iter = 38500  time[fs]=38.50000
   C -0.314811068E+01 -0.492118171E-01  0.581384456E-01
   C  0.310334840E+01  0.853059360E-02  0.240852459E-02
   H -0.148584785E+02 -0.400223856E+00 -0.108947254E+01
   H  0.144861877E+02  0.113420965E+01  0.114302608E+01
     4
 # iter = 39000  time[fs]=39.00000
   C -0.324445054E+01 -0.503652795E-01  0.596180258E-01
   C  0.319766096E+01  0.834445911E-02  0.103507335E-02
   H -0.152228192E+02 -0.410008920E+00 -0.111716273E+01
   H  0.148334687E+02  0.116184655E+01  0.116969903E+01
     4
 # iter = 39500  time[fs]=39.50000
   C -0.334129184E+01 -0.515234693E-01  0.611036107E-01
   C  0.329247358E+01  0.816102454E-02 -0.344713472E-03
   H -0.155875378E+02 -0.419805889E+00 -0.114488581E+01
   H  0.151811413E+02  0.118951671E+01  0.119640586E+01
     4
 # iter = 40000  time[fs]=40.00000
   C -0.343860414E+01 -0.526843558E-01  0.625966682E-01
   C  0.338776033E+01  0.798282461E-02 -0.172780971E-02
   H -0.159526051E+02 -0.429601940E+00 -0.117262807E+01
   H  0.155292006E+02  0.121723103E+01  0.122315746E+01
     4
 # iter = 40500  time[fs]=40.50000
   C -0.353636173E+01 -0.538484095E-01  0.640962060E-01
   C  0.348349349E+01  0.780838498E-02 -0.311523497E-02
   H -0.163180108E+02 -0.439402134E+00 -0.120039375E+01
   H  0.158776249E+02  0.124498266E+01  0.124994692E+01
     4
 # iter = 41000  time[fs]=41.00000
   C -0.363454133E+01 -0.550165167E-01  0.656008536E-01
   C  0.357964679E+01  0.763561900E-02 -0.450865458E-02
   H -0.166837485E+02 -0.449214368E+00 -0.122818995E+01
   H  0.162263908E+02  0.127276198E+01  0.127676463E+01
     4
 # iter = 41500  time[fs]=41.50000
   C -0.373312060E+01 -0.561886740E-01  0.671101645E-01
   C  0.367619727E+01  0.746395246E-02 -0.590825177E-02
   H -0.170498059E+02 -0.459039970E+00 -0.125601726E+01
   H  0.165754824E+02  0.130056610E+01  0.130360765E+01
     4
 # iter = 42000  time[fs]=42.00000
   C -0.383207828E+01 -0.573642790E-01  0.686243220E-01
   C  0.377312470E+01  0.729384185E-02 -0.731320675E-02
   H -0.174161674E+02 -0.468875807E+00 -0.128387186E+01
   H  0.169248891E+02  0.132839665E+01  0.133047758E+01
     4
 # iter = 42500  time[fs]=42.50000
   C -0.393139470E+01 -0.585428396E-01  0.701434276E-01
   C  0.387041019E+01  0.712561038E-02 -0.872285818E-02
   H -0.177828187E+02 -0.478719431E+00 -0.131175065E+01
   H  0.172746004E+02  0.135625467E+01  0.135737544E+01
     4
 # iter = 43000  time[fs]=43.00000
   C -0.403105188E+01 -0.597241862E-01  0.716672864E-01
   C  0.396803574E+01  0.695909610E-02 -0.101370530E-01
   H -0.181497482E+02 -0.488570624E+00 -0.133965280E+01
   H  0.176246044E+02  0.138413906E+01  0.138430012E+01
     4
 # iter = 43500  time[fs]=43.50000
   C -0.413103323E+01 -0.609082730E-01  0.731956035E-01
   C  0.406598445E+01  0.679397274E-02 -0.115558235E-01
   H -0.185169461E+02 -0.498429968E+00 -0.136757830E+01
   H  0.179748891E+02  0.141204798E+01  0.141124974E+01
     4
 # iter = 44000  time[fs]=44.00000
   C -0.423132322E+01 -0.620949949E-01  0.747281650E-01
   C  0.416424068E+01  0.663004374E-02 -0.129790916E-01
   H -0.188844026E+02 -0.508297539E+00 -0.139552668E+01
   H  0.183254435E+02  0.143998016E+01  0.143822304E+01
     4
 # iter = 44500  time[fs]=44.50000
   C -0.433190729E+01 -0.632841825E-01  0.762648417E-01
   C  0.426278996E+01  0.646724814E-02 -0.144066613E-01
   H -0.192521078E+02 -0.518172873E+00 -0.142349697E+01
   H  0.186762580E+02  0.146793495E+01  0.146521934E+01
     4
 # iter = 45000  time[fs]=45.00000
   C -0.443277184E+01 -0.644756700E-01  0.778055189E-01
   C  0.436161878E+01  0.630554597E-02 -0.158383321E-01
   H -0.196200524E+02 -0.528055470E+00 -0.145148816E+01
   H  0.190273233E+02  0.149591180E+01  0.149223805E+01
     4
 # iter = 45500  time[fs]=45.50000
   C -0.453390418E+01 -0.656693277E-01  0.793500631E-01
   C  0.446071450E+01  0.614486283E-02 -0.172739527E-01
   H -0.199882276E+02 -0.537945030E+00 -0.147949948E+01
   H  0.193786306E+02  0.152390999E+01  0.151927847E+01
     4
 # iter = 46000  time[fs]=46.00000
   C -0.463529245E+01 -0.668650496E-01  0.808983328E-01
   C  0.456006525E+01  0.598510766E-02 -0.187134024E-01
   H -0.203566254E+02 -0.547841374E+00 -0.150753033E+01
   H  0.197301713E+02  0.155192874E+01  0.154633979E+01
     4
 # iter = 46500  time[fs]=46.50000
   C -0.473692550E+01 -0.680627351E-01  0.824501955E-01
   C  0.465965989E+01  0.582620066E-02 -0.201565620E-01
   H -0.207252381E+02 -0.557744312E+00 -0.153558008E+01
   H  0.200819375E+02  0.157996734E+01  0.157342129E+01
     4
 # iter = 47000  time[fs]=47.00000
   C -0.483879289E+01 -0.692622847E-01  0.840055313E-01
   C  0.475948801E+01  0.566807852E-02 -0.216033075E-01
   H -0.210940584E+02 -0.567653620E+00 -0.156364811E+01
   H  0.204339216E+02  0.160802515E+01  0.160052231E+01
     4
 # iter = 47500  time[fs]=47.50000
   C -0.494088480E+01 -0.704636036E-01  0.855642276E-01
   C  0.485953979E+01  0.551068621E-02 -0.230535177E-01
   H -0.214630791E+02 -0.577569071E+00 -0.159173381E+01
   H  0.207861163E+02  0.163610157E+01  0.162764225E+01
     4
 # iter = 48000  time[fs]=48.00000
   C -0.504319199E+01 -0.716666052E-01  0.871261756E-01
   C  0.495980604E+01  0.535397108E-02 -0.245070788E-01
   H -0.218322937E+02 -0.587490459E+00 -0.161983662E+01
   H  0.211385147E+02  0.166419603E+01  0.165478052E+01
     4
 # iter = 48500  time[fs]=48.50000
   C -0.514570577E+01 -0.728712097E-01  0.886912703E-01
   C  0.506027807E+01  0.519788275E-02 -0.259638845E-01
   H -0.222016959E+02 -0.597417597E+00 -0.164795600E+01
   H  0.214911104E+02  0.169230797E+01  0.168193655E+01
     4
 # iter = 49000  time[fs]=49.00000
   C -0.524841793E+01 -0.740773425E-01  0.902594113E-01
   C  0.516094769E+01  0.504237464E-02 -0.274238330E-01
   H -0.225712796E+02 -0.607350307E+00 -0.167609145E+01
   H  0.218438971E+02  0.172043686E+01  0.170910981E+01
     4
 # iter = 49500  time[fs]=49.50000
   C -0.535132074E+01 -0.752849337E-01  0.918305029E-01
   C  0.526180720E+01  0.488740437E-02 -0.288868268E-01
   H -0.229410392E+02 -0.617288417E+00 -0.170424247E+01
   H  0.221968688E+02  0.174858218E+01  0.173629976E+01
     4
 # iter = 50000  time[fs]=50.00000
   C -0.545440690E+01 -0.764939175E-01  0.934044540E-01
   C  0.536284930E+01  0.473293308E-02 -0.303527719E-01
   H -0.233109691E+02 -0.627231761E+00 -0.173240860E+01
   H  0.225500200E+02  0.177674346E+01  0.176350593E+01
     4
 # iter = 50500  time[fs]=50.50000
   C -0.555766950E+01 -0.777042323E-01  0.949811772E-01
   C  0.546406710E+01  0.457892481E-02 -0.318215788E-01
   H -0.236810642E+02 -0.637180180E+00 -0.176058939E+01
   H  0.229033450E+02  0.180492024E+01  0.179072784E+01
     4
 # iter = 51000  time[fs]=51.00000
   C -0.566110199E+01 -0.789158204E-01  0.965605890E-01
   C  0.556545409E+01  0.442534614E-02 -0.332931619E-01
   H -0.240513194E+02 -0.647133526E+00 -0.178878442E+01
   H  0.232568389E+02  0.183311206E+01  0.181796503E+01
     4
 # iter = 51500  time[fs]=51.50000
   C -0.576469820E+01 -0.801286275E-01  0.981426094E-01
   C  0.566700409E+01  0.427216613E-02 -0.347674391E-01
   H -0.244217301E+02 -0.657091654E+00 -0.181699328E+01
   H  0.236104966E+02  0.186131851E+01  0.184521709E+01
     4
 # iter = 52000  time[fs]=52.00000
   C -0.586845225E+01 -0.813426025E-01  0.997271617E-01
   C  0.576871124E+01  0.411935609E-02 -0.362443319E-01
   H -0.247922916E+02 -0.667054426E+00 -0.184521558E+01
   H  0.239643135E+02  0.188953918E+01  0.187248359E+01
     4
 # iter = 52500  time[fs]=52.50000
   C -0.597235858E+01 -0.825576975E-01  0.101314172E+00
   C  0.587057000E+01  0.396688945E-02 -0.377237649E-01
   H -0.251629996E+02 -0.677021711E+00 -0.187345095E+01
   H  0.243182849E+02  0.191777369E+01  0.189976413E+01
     4
 # iter = 53000  time[fs]=53.00000
   C -0.607641190E+01 -0.837738669E-01  0.102903571E+00
   C  0.597257509E+01  0.381474150E-02 -0.392056659E-01
   H -0.255338500E+02 -0.686993384E+00 -0.190169903E+01
   H  0.246724066E+02  0.194602164E+01  0.192705835E+01
     4
 # iter = 53500  time[fs]=53.50000
   C -0.618060719E+01 -0.849910681E-01  0.104495290E+00
   C  0.607472150E+01  0.366288930E-02 -0.406899655E-01
   H -0.259048387E+02 -0.696969321E+00 -0.192995947E+01
   H  0.250266743E+02  0.197428270E+01  0.195436586E+01
     4
 # iter = 54000  time[fs]=54.00000
   C -0.628493967E+01 -0.862092607E-01  0.106089265E+00
   C  0.617700447E+01  0.351131150E-02 -0.421765973E-01
   H -0.262759620E+02 -0.706949409E+00 -0.195823195E+01
   H  0.253810841E+02  0.200255651E+01  0.198168633E+01
     4
 # iter = 54500  time[fs]=54.50000
   C -0.638940479E+01 -0.874284064E-01  0.107685434E+00
   C  0.627941948E+01  0.335998824E-02 -0.436654974E-01
   H -0.266472161E+02 -0.716933535E+00 -0.198651614E+01
   H  0.257356322E+02  0.203084274E+01  0.200901942E+01
     4
 # iter = 55000  time[fs]=55.00000
   C -0.649399823E+01 -0.886484692E-01  0.109283736E+00
   C  0.638196219E+01  0.320890100E-02 -0.451566044E-01
   H -0.270185975E+02 -0.726921593E+00 -0.201481175E+01
   H  0.260903148E+02  0.205914108E+01  0.203636480E+01
     4
 # iter = 55500  time[fs]=55.50000
   C -0.659871585E+01 -0.898694149E-01  0.110884115E+00
   C  0.648462850E+01  0.305803255E-02 -0.466498593E-01
   H -0.273901029E+02 -0.736913480E+00 -0.204311849E+01
   H  0.264451285E+02  0.208745121E+01  0.206372216E+01
     4
 # iter = 56000  time[fs]=56.00000
   C -0.670355372E+01 -0.910912109E-01  0.112486514E+00
   C  0.658741448E+01  0.290736678E-02 -0.481452054E-01
   H -0.277617290E+02 -0.746909097E+00 -0.207143606E+01
   H  0.268000698E+02  0.211577285E+01  0.209109119E+01
     4
 # iter = 56500  time[fs]=56.50000
   C -0.680850809E+01 -0.923138266E-01  0.114090882E+00
   C  0.669031639E+01  0.275688868E-02 -0.496425883E-01
   H -0.281334727E+02 -0.756908349E+00 -0.209976420E+01
   H  0.271551355E+02  0.214410570E+01  0.211847163E+01
     4
 # iter = 57000  time[fs]=57.00000
   C -0.691357537E+01 -0.935372328E-01  0.115697167E+00
   C  0.679333065E+01  0.260658423E-02 -0.511419552E-01
   H -0.285053310E+02 -0.766911144E+00 -0.212810264E+01
   H  0.275103225E+02  0.217244950E+01  0.214586317E+01
     4
 # iter = 57500  time[fs]=57.50000
   C -0.701875212E+01 -0.947614016E-01  0.117305319E+00
   C  0.689645385E+01  0.245644033E-02 -0.526432558E-01
   H -0.288773009E+02 -0.776917396E+00 -0.215645115E+01
   H  0.278656276E+02  0.220080399E+01  0.217326556E+01
     4
 # iter = 58000  time[fs]=58.00000
   C -0.712403508E+01 -0.959863068E-01  0.118915292E+00
   C  0.699968272E+01  0.230644471E-02 -0.541464413E-01
   H -0.292493797E+02 -0.786927019E+00 -0.218480946E+01
   H  0.282210480E+02  0.222916890E+01  0.220067854E+01
     4
 # iter = 58500  time[fs]=58.50000
   C -0.722942110E+01 -0.972119233E-01  0.120527040E+00
   C  0.710301413E+01  0.215658592E-02 -0.556514649E-01
   H -0.296215648E+02 -0.796939931E+00 -0.221317736E+01
   H  0.285765809E+02  0.225754399E+01  0.222810186E+01
     4
 # iter = 59000  time[fs]=59.00000
   C -0.733490719E+01 -0.984382272E-01  0.122140518E+00
   C  0.720644509E+01  0.200685323E-02 -0.571582813E-01
   H -0.299938534E+02 -0.806956054E+00 -0.224155462E+01
   H  0.289322236E+02  0.228592903E+01  0.225553528E+01
     4
 # iter = 59500  time[fs]=59.50000
   C -0.744049046E+01 -0.996651956E-01  0.123755686E+00
   C  0.730997273E+01  0.185723659E-02 -0.586668468E-01
   H -0.303662432E+02 -0.816975311E+00 -0.226994101E+01
   H  0.292879735E+02  0.231432379E+01  0.228297857E+01
     4
 # iter = 60000  time[fs]=60.00000
   C -0.754616815E+01 -0.100892807E+00  0.125372500E+00
   C  0.741359431E+01  0.170772659E-02 -0.601771195E-01
   H -0.307387318E+02 -0.826997631E+00 -0.229833633E+01
   H  0.296438279E+02  0.234272804E+01  0.231043149E+01
     4
 # iter = 60500  time[fs]=60.50000
   C -0.765193763E+01 -0.102121041E+00  0.126990923E+00
   C  0.751730719E+01  0.155831439E-02 -0.616890588E-01
   H -0.311113167E+02 -0.837022941E+00 -0.232674037E+01
   H  0.299997846E+02  0.237114158E+01  0.233789385E+01
     4
 # iter = 61000  time[fs]=61.00000
   C -0.775779636E+01 -0.103349877E+00  0.128610916E+00
   C  0.762110884E+01  0.140899174E-02 -0.632026254E-01
   H -0.314839959E+02 -0.847051173E+00 -0.235515295E+01
   H  0.303558412E+02  0.239956419E+01  0.236536541E+01
     4
 # iter = 61500  time[fs]=61.50000
   C -0.786374191E+01 -0.104579296E+00  0.130232442E+00
   C  0.772499684E+01  0.125975087E-02 -0.647177815E-01
   H -0.318567670E+02 -0.857082262E+00 -0.238357386E+01
   H  0.307119953E+02  0.242799569E+01  0.239284600E+01
     4
 # iter = 62000  time[fs]=62.00000
   C -0.796977192E+01 -0.105809281E+00  0.131855466E+00
   C  0.782896886E+01  0.111058448E-02 -0.662344905E-01
   H -0.322296281E+02 -0.867116144E+00 -0.241200294E+01
   H  0.310682449E+02  0.245643586E+01  0.242033540E+01
     4
 # iter = 62500  time[fs]=62.50000
   C -0.807588416E+01 -0.107039815E+00  0.133479954E+00
   C  0.793302266E+01  0.961485748E-03 -0.677527171E-01
   H -0.326025771E+02 -0.877152757E+00 -0.244043999E+01
   H  0.314245877E+02  0.248488454E+01  0.244783343E+01
     4
 # iter = 63000  time[fs]=63.00000
   C -0.818207647E+01 -0.108270880E+00  0.135105872E+00
   C  0.803715609E+01  0.812448245E-03 -0.692724271E-01
   H -0.329756121E+02 -0.887192042E+00 -0.246888485E+01
   H  0.317810218E+02  0.251334154E+01  0.247533990E+01
     4
 # iter = 63500  time[fs]=63.50000
   C -0.828834676E+01 -0.109502462E+00  0.136733189E+00
   C  0.814136707E+01  0.663465937E-03 -0.707935875E-01
   H -0.333487311E+02 -0.897233940E+00 -0.249733735E+01
   H  0.321375451E+02  0.254180668E+01  0.250285465E+01
     4
 # iter = 64000  time[fs]=64.00000
   C -0.839469304E+01 -0.110734544E+00  0.138361872E+00
   C  0.824565361E+01  0.514533152E-03 -0.723161663E-01
   H -0.337219324E+02 -0.907278396E+00 -0.252579733E+01
   H  0.324941557E+02  0.257027979E+01  0.253037748E+01
     4
 # iter = 64500  time[fs]=64.50000
   C -0.850111338E+01 -0.111967112E+00  0.139991893E+00
   C  0.835001380E+01  0.365644561E-03 -0.738401325E-01
   H -0.340952142E+02 -0.917325357E+00 -0.255426464E+01
   H  0.328508518E+02  0.259876071E+01  0.255790825E+01
     4
 # iter = 65000  time[fs]=65.00000
   C -0.860760592E+01 -0.113200153E+00  0.141623222E+00
   C  0.845444578E+01  0.216795150E-03 -0.753654563E-01
   H -0.344685747E+02 -0.927374768E+00 -0.258273913E+01
   H  0.332076316E+02  0.262724929E+01  0.258544678E+01
     4
 # iter = 65500  time[fs]=65.50000
   C -0.871416888E+01 -0.114433653E+00  0.143255831E+00
   C  0.855894778E+01  0.679802046E-04 -0.768921085E-01
   H -0.348420124E+02 -0.937426580E+00 -0.261122065E+01
   H  0.335644933E+02  0.265574536E+01  0.261299292E+01
     4
 # iter = 66000  time[fs]=66.00000
   C -0.882080053E+01 -0.115667599E+00  0.144889693E+00
   C  0.866351808E+01 -0.808047100E-04 -0.784200610E-01
   H -0.352155256E+02 -0.947480744E+00 -0.263970905E+01
   H  0.339214352E+02  0.268424877E+01  0.264054653E+01
     4
 # iter = 66500  time[fs]=66.50000
   C -0.892749922E+01 -0.116901980E+00  0.146524781E+00
   C  0.876815503E+01 -0.229563767E-03 -0.799492868E-01
   H -0.355891127E+02 -0.957537212E+00 -0.266820420E+01
   H  0.342784557E+02  0.271275939E+01  0.266810744E+01
     4
 # iter = 67000  time[fs]=67.00000
   C -0.903426333E+01 -0.118136782E+00  0.148161071E+00
   C  0.887285703E+01 -0.378300894E-03 -0.814797592E-01
   H -0.359627723E+02 -0.967595937E+00 -0.269670597E+01
   H  0.346355533E+02  0.274127706E+01  0.269567552E+01
     4
 # iter = 67500  time[fs]=67.50000
   C -0.914109133E+01 -0.119371995E+00  0.149798536E+00
   C  0.897762253E+01 -0.527019788E-03 -0.830114529E-01
   H -0.363365029E+02 -0.977656875E+00 -0.272521422E+01
   H  0.349927263E+02  0.276980166E+01  0.272325062E+01
     4
 # iter = 68000  time[fs]=68.00000
   C -0.924798171E+01 -0.120607608E+00  0.151437153E+00
   C  0.908245006E+01 -0.675723929E-03 -0.845443428E-01
   H -0.367103031E+02 -0.987719982E+00 -0.275372884E+01
   H  0.353499732E+02  0.279833305E+01  0.275083262E+01
     4
 # iter = 68500  time[fs]=68.50000
   C -0.935493304E+01 -0.121843610E+00  0.153076899E+00
   C  0.918733817E+01 -0.824416594E-03 -0.860784050E-01
   H -0.370841714E+02 -0.997785216E+00 -0.278224969E+01
   H  0.357072927E+02  0.282687110E+01  0.277842138E+01
     4
 # iter = 69000  time[fs]=69.00000
   C -0.946194391E+01 -0.123079992E+00  0.154717750E+00
   C  0.929228547E+01 -0.973100869E-03 -0.876136160E-01
   H -0.374581066E+02 -0.100785254E+01 -0.281077667E+01
   H  0.360646833E+02  0.285541569E+01  0.280601678E+01
     4
 # iter = 69500  time[fs]=69.50000
   C -0.956901299E+01 -0.124316743E+00  0.156359686E+00
   C  0.939729062E+01 -0.112177966E-02 -0.891499532E-01
   H -0.378321074E+02 -0.101792190E+01 -0.283930965E+01
   H  0.364221436E+02  0.288396669E+01  0.283361869E+01
     4
 # iter = 70000  time[fs]=70.00000
   C -0.967613896E+01 -0.125553853E+00  0.158002685E+00
   C  0.950235233E+01 -0.127045570E-02 -0.906873945E-01
   H -0.382061724E+02 -0.102799327E+01 -0.286784852E+01
   H  0.367796724E+02  0.291252398E+01  0.286122699E+01
     4
 # iter = 70500  time[fs]=70.50000
   C -0.978332056E+01 -0.126791315E+00  0.159646725E+00
   C  0.960746933E+01 -0.141913157E-02 -0.922259186E-01
   H -0.385803005E+02 -0.103806662E+01 -0.289639317E+01
   H  0.371372682E+02  0.294108746E+01  0.288884156E+01
     4
 # iter = 71000  time[fs]=71.00000
   C -0.989055658E+01 -0.128029120E+00  0.161291787E+00
   C  0.971264042E+01 -0.156780970E-02 -0.937655046E-01
   H -0.389544906E+02 -0.104814189E+01 -0.292494351E+01
   H  0.374949299E+02  0.296965700E+01  0.291646229E+01
     4
 # iter = 71500  time[fs]=71.50000
   C -0.999784584E+01 -0.129267258E+00  0.162937852E+00
   C  0.981786442E+01 -0.171649236E-02 -0.953061324E-01
   H -0.393287413E+02 -0.105821906E+01 -0.295349942E+01
   H  0.378526563E+02  0.299823250E+01  0.294408906E+01
     4
 # iter = 72000  time[fs]=72.00000
   C -0.101051872E+02 -0.130505721E+00  0.164584900E+00
   C  0.992314018E+01 -0.186518173E-02 -0.968477822E-01
   H -0.397030516E+02 -0.106829810E+01 -0.298206080E+01
   H  0.382104461E+02  0.302681385E+01  0.297172178E+01
     4
 # iter = 72500  time[fs]=72.50000
   C -0.102125795E+02 -0.131744503E+00  0.166232912E+00
   C  0.100284666E+02 -0.201387982E-02 -0.983904351E-01
   H -0.400774205E+02 -0.107837896E+01 -0.301062756E+01
   H  0.385682982E+02  0.305540094E+01  0.299936034E+01
     4
 # iter = 73000  time[fs]=73.00000
   C -0.103200217E+02 -0.132983595E+00  0.167881872E+00
   C  0.101338426E+02 -0.216258853E-02 -0.999340724E-01
   H -0.404518468E+02 -0.108846162E+01 -0.303919960E+01
   H  0.389262114E+02  0.308399369E+01  0.302700462E+01
     4
 # iter = 73500  time[fs]=73.50000
   C -0.104275128E+02 -0.134222990E+00  0.169531760E+00
   C  0.102392672E+02 -0.231130968E-02 -0.101478676E+00
   H -0.408263294E+02 -0.109854605E+01 -0.306777683E+01
   H  0.392841848E+02  0.311259198E+01  0.305465455E+01
     4
 # iter = 74000  time[fs]=74.00000
   C -0.105350518E+02 -0.135462681E+00  0.171182561E+00
   C  0.103447394E+02 -0.246004495E-02 -0.103024229E+00
   H -0.412008675E+02 -0.110863220E+01 -0.309635916E+01
   H  0.396422171E+02  0.314119573E+01  0.308231000E+01
     4
 # iter = 74500  time[fs]=74.50000
   C -0.106426376E+02 -0.136702660E+00  0.172834258E+00
   C  0.104502581E+02 -0.260879594E-02 -0.104570713E+00
   H -0.415754601E+02 -0.111872006E+01 -0.312494650E+01
   H  0.400003074E+02  0.316980484E+01  0.310997090E+01
     4
 # iter = 75000  time[fs]=75.00000
   C -0.107502694E+02 -0.137942923E+00  0.174486835E+00
   C  0.105558225E+02 -0.275756414E-02 -0.106118112E+00
   H -0.419501060E+02 -0.112880960E+01 -0.315353877E+01
   H  0.403584547E+02  0.319841922E+01  0.313763715E+01
     4
 # iter = 75500  time[fs]=75.50000
   C -0.108579462E+02 -0.139183461E+00  0.176140276E+00
   C  0.106614316E+02 -0.290635097E-02 -0.107666410E+00
   H -0.423248046E+02 -0.113890078E+01 -0.318213588E+01
   H  0.407166580E+02  0.322703878E+01  0.316530866E+01
     4
 # iter = 76000  time[fs]=76.00000
   C -0.109656671E+02 -0.140424270E+00  0.177794565E+00
   C  0.107670845E+02 -0.305515775E-02 -0.109215591E+00
   H -0.426995547E+02 -0.114899357E+01 -0.321073775E+01
   H  0.410749163E+02  0.325566344E+01  0.319298534E+01
     4
 # iter = 76500  time[fs]=76.50000
   C -0.110734312E+02 -0.141665342E+00  0.179449689E+00
   C  0.108727804E+02 -0.320398572E-02 -0.110765640E+00
   H -0.430743556E+02 -0.115908796E+01 -0.323934431E+01
   H  0.414332286E+02  0.328429311E+01  0.322066711E+01
     4
 # iter = 77000  time[fs]=77.00000
   C -0.111812378E+02 -0.142906673E+00  0.181105631E+00
   C  0.109785184E+02 -0.335283607E-02 -0.112316541E+00
   H -0.434492064E+02 -0.116918391E+01 -0.326795547E+01
   H  0.417915942E+02  0.331292770E+01  0.324835389E+01
     4
 # iter = 77500  time[fs]=77.50000
   C -0.112890859E+02 -0.144148256E+00  0.182762379E+00
   C  0.110842977E+02 -0.350170989E-02 -0.113868281E+00
   H -0.438241062E+02 -0.117928139E+01 -0.329657116E+01
   H  0.421500120E+02  0.334156715E+01  0.327604558E+01
     4
 # iter = 78000  time[fs]=78.00000
   C -0.113969748E+02 -0.145390086E+00  0.184419919E+00
   C  0.111901176E+02 -0.365060822E-02 -0.115420844E+00
   H -0.441990542E+02 -0.118938039E+01 -0.332519130E+01
   H  0.425084813E+02  0.337021136E+01  0.330374212E+01
     4
 # iter = 78500  time[fs]=78.50000
   C -0.115049037E+02 -0.146632157E+00  0.186078237E+00
   C  0.112959772E+02 -0.379953203E-02 -0.116974218E+00
   H -0.445740497E+02 -0.119948087E+01 -0.335381583E+01
   H  0.428670011E+02  0.339886027E+01  0.333144343E+01
     4
 # iter = 79000  time[fs]=79.00000
   C -0.116128719E+02 -0.147874466E+00  0.187737320E+00
   C  0.114018758E+02 -0.394848223E-02 -0.118528387E+00
   H -0.449490919E+02 -0.120958282E+01 -0.338244467E+01
   H  0.432255707E+02  0.342751380E+01  0.335914942E+01
     4
 # iter = 79500  time[fs]=79.50000
   C -0.117208787E+02 -0.149117006E+00  0.189397155E+00
   C  0.115078127E+02 -0.409745967E-02 -0.120083340E+00
   H -0.453241799E+02 -0.121968621E+01 -0.341107776E+01
   H  0.435841892E+02  0.345617188E+01  0.338686004E+01
     4
 # iter = 80000  time[fs]=80.00000
   C -0.118289232E+02 -0.150359773E+00  0.191057730E+00
   C  0.116137872E+02 -0.424646516E-02 -0.121639064E+00
   H -0.456993131E+02 -0.122979101E+01 -0.343971503E+01
   H  0.439428559E+02  0.348483443E+01  0.341457519E+01
