     4
 # iter = 25000  time[fs]=25.00000
   C -0.969620238E+00  0.236288035E-01 -0.381140727E-01
   C  0.101985827E+01 -0.115043010E-01  0.429443422E-01
   H -0.521259402E+01  0.382374382E+00 -0.201042645E+00
   H  0.534236187E+01 -0.305584483E+00 -0.465010113E+00
     4
 # iter = 25500  time[fs]=25.50000
   C -0.101548141E+01  0.216562213E-01 -0.388357687E-01
   C  0.106248221E+01 -0.129371296E-01  0.446414304E-01
   H -0.555586531E+01  0.397821829E+00 -0.218601958E+00
   H  0.565500107E+01 -0.334375437E+00 -0.502576101E+00
     4
 # iter = 26000  time[fs]=26.00000
   C -0.106516620E+01  0.188711750E-01 -0.405130214E-01
   C  0.110693948E+01 -0.155219750E-01  0.453963249E-01
   H -0.590989548E+01  0.408267017E+00 -0.241756936E+00
   H  0.596792711E+01 -0.368945571E+00 -0.546128630E+00
     4
 # iter = 26500  time[fs]=26.50000
   C -0.111590134E+01  0.177984090E-01 -0.406061187E-01
   C  0.115629938E+01 -0.159376857E-01  0.485073613E-01
   H -0.625797674E+01  0.429737890E+00 -0.254407756E+00
   H  0.629662900E+01 -0.393166559E+00 -0.579517070E+00
     4
 # iter = 27000  time[fs]=27.00000
   C -0.116733152E+01  0.185581665E-01 -0.389811214E-01
   C  0.121049679E+01 -0.140149642E-01  0.541236544E-01
   H -0.659879665E+01  0.462991052E+00 -0.255739451E+00
   H  0.664137220E+01 -0.406208825E+00 -0.601892375E+00
     4
 # iter = 27500  time[fs]=27.50000
   C -0.122112388E+01  0.192637259E-01 -0.375123555E-01
   C  0.126685390E+01 -0.122155580E-01  0.597656544E-01
   H -0.694389040E+01  0.496033628E+00 -0.257697135E+00
   H  0.698971468E+01 -0.420014761E+00 -0.625179813E+00
     4
 # iter = 28000  time[fs]=28.00000
   C -0.127841363E+01  0.185794803E-01 -0.375244708E-01
   C  0.132343209E+01 -0.122806416E-01  0.636765947E-01
   H -0.730135352E+01  0.520375438E+00 -0.268729985E+00
   H  0.733278138E+01 -0.443029262E+00 -0.657809663E+00
     4
 # iter = 28500  time[fs]=28.50000
   C -0.133848554E+01  0.170403190E-01 -0.384730258E-01
   C  0.138076045E+01 -0.135019011E-01  0.665511860E-01
   H -0.766743823E+01  0.539413306E+00 -0.285404820E+00
   H  0.767365436E+01 -0.471805949E+00 -0.696323288E+00
     4
 # iter = 29000  time[fs]=29.00000
   C -0.139985967E+01  0.159636873E-01 -0.390322187E-01
   C  0.144040926E+01 -0.141468454E-01  0.701100218E-01
   H -0.803346479E+01  0.561517081E+00 -0.299319778E+00
   H  0.802043838E+01 -0.497926619E+00 -0.732292011E+00
     4
 # iter = 29500  time[fs]=29.50000
   C -0.146193498E+01  0.158033053E-01 -0.387409451E-01
   C  0.150283162E+01 -0.136158367E-01  0.749422841E-01
   H -0.839628575E+01  0.589566080E+00 -0.307567931E+00
   H  0.837577350E+01 -0.518473888E+00 -0.762789196E+00
     4
 # iter = 30000  time[fs]=30.00000
   C -0.152521878E+01  0.159181733E-01 -0.382336595E-01
   C  0.156705949E+01 -0.127446160E-01  0.802030173E-01
   H -0.875974915E+01  0.619480911E+00 -0.314204923E+00
   H  0.873535930E+01 -0.537499962E+00 -0.791858763E+00
     4
 # iter = 30500  time[fs]=30.50000
   C -0.159030488E+01  0.155937602E-01 -0.382191179E-01
   C  0.163204086E+01 -0.124659397E-01  0.849513432E-01
   H -0.912819833E+01  0.646715127E+00 -0.323756406E+00
   H  0.909445189E+01 -0.559528120E+00 -0.824016633E+00
     4
 # iter = 31000  time[fs]=31.00000
   C -0.165709601E+01  0.148188085E-01 -0.387035036E-01
   C  0.169765662E+01 -0.127914824E-01  0.891684267E-01
   H -0.950152702E+01  0.671193459E+00 -0.336279090E+00
   H  0.945280587E+01 -0.584609233E+00 -0.859307195E+00
     4
 # iter = 31500  time[fs]=31.50000
   C -0.172503059E+01  0.140572794E-01 -0.392183899E-01
   C  0.176442052E+01 -0.131106316E-01  0.934585509E-01
   H -0.987662644E+01  0.695861792E+00 -0.348810457E+00
   H  0.981321952E+01 -0.609772756E+00 -0.894754171E+00
     4
 # iter = 32000  time[fs]=32.00000
   C -0.179373306E+01  0.135965918E-01 -0.394724062E-01
   C  0.183262399E+01 -0.130445783E-01  0.981949092E-01
   H -0.102515279E+02  0.722543400E+00 -0.359512404E+00
   H  0.101773831E+02 -0.633174128E+00 -0.928507861E+00
     4
 # iter = 32500  time[fs]=32.50000
   C -0.186324656E+01  0.133138598E-01 -0.395849259E-01
   C  0.190202878E+01 -0.127526008E-01  0.103213224E+00
   H -0.106268871E+02  0.750452830E+00 -0.369157189E+00
   H  0.105443887E+02 -0.655582009E+00 -0.961332276E+00
     4
 # iter = 33000  time[fs]=33.00000
   C -0.193375136E+01  0.129565595E-01 -0.398053472E-01
   C  0.197223402E+01 -0.125641566E-01  0.108179576E+00
   H -0.110041974E+02  0.777980566E+00 -0.379342513E+00
   H  0.109125151E+02 -0.678591643E+00 -0.994818449E+00
     4
 # iter = 33500  time[fs]=33.50000
   C -0.200525631E+01  0.124504302E-01 -0.402051481E-01
   C  0.204307897E+01 -0.125752978E-01  0.112993924E+00
   H -0.113838296E+02  0.804650775E+00 -0.390533540E+00
   H  0.112811864E+02 -0.702664998E+00 -0.102942454E+01
     4
 # iter = 34000  time[fs]=34.00000
   C -0.207759505E+01  0.119025313E-01 -0.406747875E-01
   C  0.211464634E+01 -0.126446316E-01  0.117794085E+00
   H -0.117650111E+02  0.831140691E+00 -0.402043361E+00
   H  0.116509908E+02 -0.727111193E+00 -0.106445621E+01
     4
 # iter = 34500  time[fs]=34.50000
   C -0.215060893E+01  0.114176032E-01 -0.411073044E-01
   C  0.218702098E+01 -0.126339789E-01  0.122715024E+00
   H -0.121469928E+02  0.858112883E+00 -0.413200621E+00
   H  0.120225096E+02 -0.751255199E+00 -0.109923529E+01
     4
 # iter = 35000  time[fs]=35.00000
   C -0.222425089E+01  0.109936407E-01 -0.415027110E-01
   C  0.226015251E+01 -0.125452124E-01  0.127751971E+00
   H -0.125297118E+02  0.885551255E+00 -0.424013432E+00
   H  0.123956521E+02 -0.775102344E+00 -0.113376424E+01
     4
 # iter = 35500  time[fs]=35.50000
   C -0.229853648E+01  0.105703228E-01 -0.419195347E-01
   C  0.233391825E+01 -0.124567557E-01  0.132823881E+00
   H -0.129134832E+02  0.913069041E+00 -0.434861286E+00
   H  0.127699630E+02 -0.799029908E+00 -0.116841770E+01
     4
 # iter = 36000  time[fs]=36.00000
   C -0.237345769E+01  0.101147531E-01 -0.423890555E-01
   C  0.240823522E+01 -0.124111860E-01  0.137885806E+00
   H -0.132984534E+02  0.940454031E+00 -0.445949744E+00
   H  0.131451673E+02 -0.823241263E+00 -0.120339661E+01
     4
 # iter = 36500  time[fs]=36.50000
   C -0.244896297E+01  0.964106060E-02 -0.428956839E-01
   C  0.248308541E+01 -0.123895289E-01  0.142954565E+00
   H -0.136844752E+02  0.967793194E+00 -0.457185735E+00
   H  0.135212946E+02 -0.847641045E+00 -0.123860339E+01
     4
 # iter = 37000  time[fs]=37.00000
   C -0.252499306E+01  0.917421329E-02 -0.434131299E-01
   C  0.255846807E+01 -0.123586760E-01  0.148061306E+00
   H -0.140713371E+02  0.995242554E+00 -0.468407625E+00
   H  0.138984482E+02 -0.872065426E+00 -0.127387216E+01
     4
 # iter = 37500  time[fs]=37.50000
   C -0.260151039E+01  0.872028627E-02 -0.439341182E-01
   C  0.263436036E+01 -0.123103438E-01  0.153212524E+00
   H -0.144589520E+02  0.102283811E+01 -0.479574248E+00
   H  0.142766156E+02 -0.896471307E+00 -0.130915790E+01
     4
 # iter = 38000  time[fs]=38.00000
   C -0.267849553E+01  0.826973205E-02 -0.444671049E-01
   C  0.271072145E+01 -0.122567769E-01  0.158394338E+00
   H -0.148473360E+02  0.105051666E+01 -0.490744058E+00
   H  0.146556883E+02 -0.920915434E+00 -0.134451562E+01
     4
 # iter = 38500  time[fs]=38.50000
   C -0.275593001E+01  0.781434078E-02 -0.450193049E-01
   C  0.278751445E+01 -0.122085105E-01  0.163594717E+00
   H -0.152365000E+02  0.107822360E+01 -0.501967237E+00
   H  0.150355700E+02 -0.945446399E+00 -0.137999226E+01
     4
 # iter = 39000  time[fs]=39.00000
   C -0.283378896E+01  0.735435846E-02 -0.455895637E-01
   C  0.286471558E+01 -0.121650340E-01  0.168812794E+00
   H -0.156264045E+02  0.110595823E+01 -0.513240401E+00
   H  0.154162214E+02 -0.970059284E+00 -0.141558139E+01
     4
 # iter = 39500  time[fs]=39.50000
   C -0.291204563E+01  0.689376563E-02 -0.461730695E-01
   C  0.294230775E+01 -0.121209735E-01  0.174052679E+00
   H -0.160169886E+02  0.113374373E+01 -0.524536602E+00
   H  0.157976297E+02 -0.994725684E+00 -0.145125319E+01
     4
 # iter = 40000  time[fs]=40.00000
   C -0.299067708E+01  0.643444161E-02 -0.467671808E-01
   C  0.302027278E+01 -0.120737370E-01  0.179315800E+00
   H -0.164082077E+02  0.116158999E+01 -0.535842413E+00
   H  0.161797715E+02 -0.101943082E+01 -0.148699157E+01
     4
 # iter = 40500  time[fs]=40.50000
   C -0.306966471E+01  0.597546970E-02 -0.473721142E-01
   C  0.309859031E+01 -0.120244203E-01  0.184599983E+00
   H -0.168000371E+02  0.118948924E+01 -0.547162335E+00
   H  0.165626077E+02 -0.104417795E+01 -0.152279855E+01
     4
 # iter = 41000  time[fs]=41.00000
   C -0.314899172E+01  0.551550009E-02 -0.479885756E-01
   C  0.317724078E+01 -0.119747071E-01  0.189902550E+00
   H -0.171924569E+02  0.121743104E+01 -0.558503748E+00
   H  0.169460989E+02 -0.106897328E+01 -0.155867917E+01
     4
 # iter = 41500  time[fs]=41.50000
   C -0.322864158E+01  0.505422823E-02 -0.486162756E-01
   C  0.325620724E+01 -0.119249278E-01  0.195222250E+00
   H -0.175854425E+02  0.124541169E+01 -0.569867495E+00
   H  0.173302142E+02 -0.109381655E+01 -0.159463212E+01
     4
 # iter = 42000  time[fs]=42.00000
   C -0.330859819E+01  0.459206034E-02 -0.492542601E-01
   C  0.333547482E+01 -0.118744959E-01  0.200558813E+00
   H -0.179789665E+02  0.127343209E+01 -0.581249999E+00
   H  0.177149291E+02 -0.111870315E+01 -0.163065174E+01
     4
 # iter = 42500  time[fs]=42.50000
   C -0.338884661E+01  0.412930448E-02 -0.499017140E-01
   C  0.341502954E+01 -0.118229660E-01  0.205911890E+00
   H -0.183730038E+02  0.130149261E+01 -0.592648398E+00
   H  0.181002200E+02 -0.114362924E+01 -0.166673326E+01
     4
 # iter = 43000  time[fs]=43.00000
   C -0.346937322E+01  0.366592625E-02 -0.505582023E-01
   C  0.349485794E+01 -0.117703523E-01  0.211280728E+00
   H -0.187675329E+02  0.132959151E+01 -0.604062085E+00
   H  0.184860628E+02 -0.116859327E+01 -0.170287424E+01
     4
 # iter = 43500  time[fs]=43.50000
   C -0.355016542E+01  0.320177233E-02 -0.512234428E-01
   C  0.357494727E+01 -0.117168340E-01  0.216664457E+00
   H -0.191625344E+02  0.135772635E+01 -0.615491281E+00
   H  0.188724340E+02 -0.119359462E+01 -0.173907319E+01
     4
 # iter = 44000  time[fs]=44.00000
   C -0.363121134E+01  0.273677530E-02 -0.518970984E-01
   C  0.365528569E+01 -0.116624855E-01  0.222062360E+00
   H -0.195579895E+02  0.138589533E+01 -0.626935725E+00
   H  0.192593121E+02 -0.121863219E+01 -0.177532825E+01
     4
 # iter = 44500  time[fs]=44.50000
   C -0.371249976E+01  0.227095809E-02 -0.525787697E-01
   C  0.373586222E+01 -0.116072695E-01  0.227473872E+00
   H -0.199538800E+02  0.141409727E+01 -0.638394637E+00
   H  0.196466773E+02 -0.124370443E+01 -0.181163709E+01
     4
 # iter = 45000  time[fs]=45.00000
   C -0.379402016E+01  0.180435457E-02 -0.532680724E-01
   C  0.381666659E+01 -0.115511400E-01  0.232898476E+00
   H -0.203501889E+02  0.144233114E+01 -0.649867221E+00
   H  0.200345109E+02 -0.126880981E+01 -0.184799749E+01
     4
 # iter = 45500  time[fs]=45.50000
   C -0.387576268E+01  0.133697127E-02 -0.539646729E-01
   C  0.389768908E+01 -0.114940919E-01  0.238335650E+00
   H -0.207468999E+02  0.147059576E+01 -0.661352899E+00
   H  0.204227951E+02 -0.129394706E+01 -0.188440749E+01
     4
 # iter = 46000  time[fs]=46.00000
   C -0.395771807E+01  0.868799972E-03 -0.546682739E-01
   C  0.397892057E+01 -0.114361432E-01  0.243784881E+00
   H -0.211439982E+02  0.149888996E+01 -0.672851231E+00
   H  0.208115132E+02 -0.131911507E+01 -0.192086537E+01
     4
 # iter = 46500  time[fs]=46.50000
   C -0.403987761E+01  0.399837368E-03 -0.553785930E-01
   C  0.406035246E+01 -0.113773094E-01  0.249245689E+00
   H -0.215414695E+02  0.152721260E+01 -0.684361783E+00
   H  0.212006490E+02 -0.134431279E+01 -0.195736946E+01
     4
 # iter = 47000  time[fs]=47.00000
   C -0.412223309E+01 -0.699111083E-04 -0.560953575E-01
   C  0.414197667E+01 -0.113175971E-01  0.254717629E+00
   H -0.219393002E+02  0.155556268E+01 -0.695884100E+00
   H  0.215901877E+02 -0.136953917E+01 -0.199391814E+01
     4
 # iter = 47500  time[fs]=47.50000
   C -0.420477676E+01 -0.540436813E-03 -0.568183078E-01
   C  0.422378558E+01 -0.112570114E-01  0.260200285E+00
   H -0.223374775E+02  0.158393924E+01 -0.707417738E+00
   H  0.219801149E+02 -0.139479319E+01 -0.203050987E+01
     4
 # iter = 48000  time[fs]=48.00000
   C -0.428750130E+01 -0.101173182E-02 -0.575472009E-01
   C  0.430577197E+01 -0.111955604E-01  0.265693260E+00
   H -0.227359893E+02  0.161234139E+01 -0.718962285E+00
   H  0.223704171E+02 -0.142007392E+01 -0.206714317E+01
     4
 # iter = 48500  time[fs]=48.50000
   C -0.437039979E+01 -0.148378883E-02 -0.582818084E-01
   C  0.438792907E+01 -0.111332548E-01  0.271196178E+00
   H -0.231348240E+02  0.164076825E+01 -0.730517361E+00
   H  0.227610815E+02 -0.144538045E+01 -0.210381667E+01
     4
 # iter = 49000  time[fs]=49.00000
   C -0.445346571E+01 -0.195659998E-02 -0.590219145E-01
   C  0.447025042E+01 -0.110701058E-01  0.276708682E+00
   H -0.235339707E+02  0.166921900E+01 -0.742082605E+00
   H  0.231520958E+02 -0.147071194E+01 -0.214052904E+01
     4
 # iter = 49500  time[fs]=49.50000
   C -0.453669286E+01 -0.243015644E-02 -0.597673147E-01
   C  0.455272994E+01 -0.110061246E-01  0.282230433E+00
   H -0.239334190E+02  0.169769284E+01 -0.753657672E+00
   H  0.235434484E+02 -0.149606758E+01 -0.217727905E+01
     4
 # iter = 50000  time[fs]=50.00000
   C -0.462007538E+01 -0.290444874E-02 -0.605178151E-01
   C  0.463536187E+01 -0.109413226E-01  0.287761112E+00
   H -0.243331591E+02  0.172618904E+01 -0.765242232E+00
   H  0.239351283E+02 -0.152144660E+01 -0.221406548E+01
     4
 # iter = 50500  time[fs]=50.50000
   C -0.470360772E+01 -0.337946710E-02 -0.612732319E-01
   C  0.471814074E+01 -0.108757113E-01  0.293300413E+00
   H -0.247331813E+02  0.175470688E+01 -0.776835972E+00
   H  0.243271250E+02 -0.154684825E+01 -0.225088721E+01
     4
 # iter = 51000  time[fs]=51.00000
   C -0.478728458E+01 -0.385520159E-02 -0.620333908E-01
   C  0.480106135E+01 -0.108093029E-01  0.298848046E+00
   H -0.251334769E+02  0.178324569E+01 -0.788438595E+00
   H  0.247194284E+02 -0.157227185E+01 -0.228774314E+01
     4
 # iter = 51500  time[fs]=51.50000
   C -0.487110097E+01 -0.433164206E-02 -0.627981265E-01
   C  0.488411878E+01 -0.107421093E-01  0.304403737E+00
   H -0.255340372E+02  0.181180482E+01 -0.800049817E+00
   H  0.251120289E+02 -0.159771671E+01 -0.232463224E+01
     4
 # iter = 52000  time[fs]=52.00000
   C -0.495505211E+01 -0.480877821E-02 -0.635672818E-01
   C  0.496730835E+01 -0.106741428E-01  0.309967223E+00
   H -0.259348541E+02  0.184038364E+01 -0.811669369E+00
   H  0.255049175E+02 -0.162318220E+01 -0.236155350E+01
     4
 # iter = 52500  time[fs]=52.50000
   C -0.503913348E+01 -0.528659961E-02 -0.643407072E-01
   C  0.505062560E+01 -0.106054156E-01  0.315538253E+00
   H -0.263359197E+02  0.186898158E+01 -0.823296991E+00
   H  0.258980853E+02 -0.164866770E+01 -0.239850599E+01
     4
 # iter = 53000  time[fs]=53.00000
   C -0.512334077E+01 -0.576509579E-02 -0.651182605E-01
   C  0.513406629E+01 -0.105359400E-01  0.321116589E+00
   H -0.267372266E+02  0.189759806E+01 -0.834932439E+00
   H  0.262915242E+02 -0.167417263E+01 -0.243548880E+01
     4
 # iter = 53500  time[fs]=53.50000
   C -0.520766985E+01 -0.624425625E-02 -0.658998063E-01
   C  0.521762638E+01 -0.104657281E-01  0.326702005E+00
   H -0.271387677E+02  0.192623254E+01 -0.846575476E+00
   H  0.266852260E+02 -0.169969643E+01 -0.247250105E+01
     4
 # iter = 54000  time[fs]=54.00000
   C -0.529211683E+01 -0.672407051E-02 -0.666852155E-01
   C  0.530130202E+01 -0.103947921E-01  0.332294282E+00
   H -0.275405361E+02  0.195488452E+01 -0.858225878E+00
   H  0.270791831E+02 -0.172523856E+01 -0.250954192E+01
     4
 # iter = 54500  time[fs]=54.50000
   C -0.537667795E+01 -0.720452811E-02 -0.674743651E-01
   C  0.538508955E+01 -0.103231441E-01  0.337893213E+00
   H -0.279425254E+02  0.198355348E+01 -0.869883431E+00
   H  0.274733883E+02 -0.175079851E+01 -0.254661061E+01
     4
 # iter = 55000  time[fs]=55.00000
   C -0.546134966E+01 -0.768561865E-02 -0.682671375E-01
   C  0.546898545E+01 -0.102507960E-01  0.343498600E+00
   H -0.283447292E+02  0.201223897E+01 -0.881547927E+00
   H  0.278678346E+02 -0.177637579E+01 -0.258370634E+01
     4
 # iter = 55500  time[fs]=55.50000
   C -0.554612855E+01 -0.816733182E-02 -0.690634206E-01
   C  0.555298638E+01 -0.101777596E-01  0.349110253E+00
   H -0.287471415E+02  0.204094052E+01 -0.893219169E+00
   H  0.282625151E+02 -0.180196992E+01 -0.262082840E+01
     4
 # iter = 56000  time[fs]=56.00000
   C -0.563101135E+01 -0.864965738E-02 -0.698631074E-01
   C  0.563708914E+01 -0.101040467E-01  0.354727991E+00
   H -0.291497567E+02  0.206965770E+01 -0.904896969E+00
   H  0.286574236E+02 -0.182758044E+01 -0.265797606E+01
     4
 # iter = 56500  time[fs]=56.50000
   C -0.571599497E+01 -0.913258523E-02 -0.706660952E-01
   C  0.572129068E+01 -0.100296687E-01  0.360351639E+00
   H -0.295525691E+02  0.209839008E+01 -0.916581146E+00
   H  0.290525538E+02 -0.185320693E+01 -0.269514866E+01
     4
 # iter = 57000  time[fs]=57.00000
   C -0.580107641E+01 -0.961610536E-02 -0.714722862E-01
   C  0.580558805E+01 -0.995463708E-02  0.365981030E+00
   H -0.299555735E+02  0.212713727E+01 -0.928271525E+00
   H  0.294478997E+02 -0.187884895E+01 -0.273234554E+01
     4
 # iter = 57500  time[fs]=57.50000
   C -0.588625282E+01 -0.101002079E-01 -0.722815865E-01
   C  0.588997848E+01 -0.987896300E-02  0.371616005E+00
   H -0.303587649E+02  0.215589888E+01 -0.939967939E+00
   H  0.298434557E+02 -0.190450612E+01 -0.276956608E+01
     4
 # iter = 58000  time[fs]=58.00000
   C -0.597152148E+01 -0.105848831E-01 -0.730939063E-01
   C  0.597445926E+01 -0.980265749E-02  0.377256410E+00
   H -0.307621382E+02  0.218467454E+01 -0.951670228E+00
   H  0.302392163E+02 -0.193017803E+01 -0.280680967E+01
     4
 # iter = 58500  time[fs]=58.50000
   C -0.605687976E+01 -0.110701214E-01 -0.739091594E-01
   C  0.605902783E+01 -0.972573139E-02  0.382902098E+00
   H -0.311656888E+02  0.221346388E+01 -0.963378238E+00
   H  0.306351762E+02 -0.195586433E+01 -0.284407574E+01
     4
 # iter = 59000  time[fs]=59.00000
   C -0.614232514E+01 -0.115559134E-01 -0.747272633E-01
   C  0.614368172E+01 -0.964819538E-02  0.388552928E+00
   H -0.315694123E+02  0.224226657E+01 -0.975091821E+00
   H  0.310313304E+02 -0.198156464E+01 -0.288136372E+01
     4
 # iter = 59500  time[fs]=59.50000
   C -0.622785523E+01 -0.120422498E-01 -0.755481388E-01
   C  0.622841856E+01 -0.957005990E-02  0.394208763E+00
   H -0.319733041E+02  0.227108226E+01 -0.986810834E+00
   H  0.314276739E+02 -0.200727863E+01 -0.291867308E+01
     4
 # iter = 60000  time[fs]=60.00000
   C -0.631346769E+01 -0.125291214E-01 -0.763717099E-01
   C  0.631323608E+01 -0.949133526E-02  0.399869473E+00
   H -0.323773602E+02  0.229991065E+01 -0.998535139E+00
   H  0.318242021E+02 -0.203300595E+01 -0.295600330E+01
     4
 # iter = 60500  time[fs]=60.50000
   C -0.639916032E+01 -0.130165192E-01 -0.771979035E-01
   C  0.639813211E+01 -0.941203152E-02  0.405534933E+00
   H -0.327815764E+02  0.232875143E+01 -0.101026461E+01
   H  0.322209104E+02 -0.205874629E+01 -0.299335388E+01
     4
 # iter = 61000  time[fs]=61.00000
   C -0.648493098E+01 -0.135044345E-01 -0.780266495E-01
   C  0.648310453E+01 -0.933215859E-02  0.411205021E+00
   H -0.331859489E+02  0.235760429E+01 -0.102199911E+01
   H  0.326177944E+02 -0.208449934E+01 -0.303072434E+01
     4
 # iter = 61500  time[fs]=61.50000
   C -0.657077760E+01 -0.139928586E-01 -0.788578805E-01
   C  0.656815134E+01 -0.925172618E-02  0.416879620E+00
   H -0.335904740E+02  0.238646895E+01 -0.103373852E+01
   H  0.330148500E+02 -0.211026480E+01 -0.306811421E+01
     4
 # iter = 62000  time[fs]=62.00000
   C -0.665669821E+01 -0.144817831E-01 -0.796915316E-01
   C  0.665327060E+01 -0.917074378E-02  0.422558620E+00
   H -0.339951479E+02  0.241534513E+01 -0.104548272E+01
   H  0.334120730E+02 -0.213604238E+01 -0.310552304E+01
     4
 # iter = 62500  time[fs]=62.50000
   C -0.674269092E+01 -0.149711995E-01 -0.805275404E-01
   C  0.673846044E+01 -0.908922073E-02  0.428241911E+00
   H -0.343999673E+02  0.244423257E+01 -0.105723160E+01
   H  0.338094596E+02 -0.216183179E+01 -0.314295040E+01
     4
 # iter = 63000  time[fs]=63.00000
   C -0.682875389E+01 -0.154610998E-01 -0.813658469E-01
   C  0.682371906E+01 -0.900716617E-02  0.433929389E+00
   H -0.348049287E+02  0.247313101E+01 -0.106898505E+01
   H  0.342070059E+02 -0.218763278E+01 -0.318039587E+01
     4
 # iter = 63500  time[fs]=63.50000
   C -0.691488536E+01 -0.159514758E-01 -0.822063932E-01
   C  0.690904473E+01 -0.892458903E-02  0.439620954E+00
   H -0.352100289E+02  0.250204019E+01 -0.108074296E+01
   H  0.346047084E+02 -0.221344508E+01 -0.321785904E+01
     4
 # iter = 64000  time[fs]=64.00000
   C -0.700108362E+01 -0.164423199E-01 -0.830491236E-01
   C  0.699443580E+01 -0.884149808E-02  0.445316509E+00
   H -0.356152647E+02  0.253095989E+01 -0.109250524E+01
   H  0.350025634E+02 -0.223926843E+01 -0.325533952E+01
     4
 # iter = 64500  time[fs]=64.50000
   C -0.708734705E+01 -0.169336242E-01 -0.838939843E-01
   C  0.707989064E+01 -0.875790191E-02  0.451015961E+00
   H -0.360206330E+02  0.255988986E+01 -0.110427177E+01
   H  0.354005675E+02 -0.226510260E+01 -0.329283693E+01
     4
 # iter = 65000  time[fs]=65.00000
   C -0.717367406E+01 -0.174253812E-01 -0.847409235E-01
   C  0.716540771E+01 -0.867380893E-02  0.456719218E+00
   H -0.364261310E+02  0.258882988E+01 -0.111604246E+01
   H  0.357987175E+02 -0.229094735E+01 -0.333035091E+01
     4
 # iter = 65500  time[fs]=65.50000
   C -0.726006312E+01 -0.179175836E-01 -0.855898914E-01
   C  0.725098552E+01 -0.858922736E-02  0.462426194E+00
   H -0.368317558E+02  0.261777973E+01 -0.112781723E+01
   H  0.361970101E+02 -0.231680245E+01 -0.336788109E+01
     4
 # iter = 66000  time[fs]=66.00000
   C -0.734651277E+01 -0.184102240E-01 -0.864408395E-01
   C  0.733662262E+01 -0.850416525E-02  0.468136804E+00
   H -0.372375046E+02  0.264673920E+01 -0.113959598E+01
   H  0.365954423E+02 -0.234266768E+01 -0.340542714E+01
     4
 # iter = 66500  time[fs]=66.50000
   C -0.743302158E+01 -0.189032955E-01 -0.872937215E-01
   C  0.742231761E+01 -0.841863050E-02  0.473850967E+00
   H -0.376433747E+02  0.267570809E+01 -0.115137863E+01
   H  0.369940110E+02 -0.236854283E+01 -0.344298872E+01
     4
 # iter = 67000  time[fs]=67.00000
   C -0.751958818E+01 -0.193967910E-01 -0.881484922E-01
   C  0.750806916E+01 -0.833263083E-02  0.479568604E+00
   H -0.380493636E+02  0.270468619E+01 -0.116316508E+01
   H  0.373927133E+02 -0.239442768E+01 -0.348056551E+01
     4
 # iter = 67500  time[fs]=67.50000
   C -0.760621125E+01 -0.198907038E-01 -0.890051084E-01
   C  0.759387596E+01 -0.824617379E-02  0.485289638E+00
   H -0.384554688E+02  0.273367333E+01 -0.117495527E+01
   H  0.377915465E+02 -0.242032205E+01 -0.351815720E+01
     4
 # iter = 68000  time[fs]=68.00000
   C -0.769288950E+01 -0.203850272E-01 -0.898635279E-01
   C  0.767973676E+01 -0.815926677E-02  0.491013996E+00
   H -0.388616879E+02  0.276266930E+01 -0.118674911E+01
   H  0.381905077E+02 -0.244622572E+01 -0.355576347E+01
     4
 # iter = 68500  time[fs]=68.50000
   C -0.777962170E+01 -0.208797547E-01 -0.907237102E-01
   C  0.776565034E+01 -0.807191703E-02  0.496741605E+00
   H -0.392680184E+02  0.279167393E+01 -0.119854652E+01
   H  0.385895945E+02 -0.247213852E+01 -0.359338405E+01
     4
 # iter = 69000  time[fs]=69.00000
   C -0.786640665E+01 -0.213748799E-01 -0.915856160E-01
   C  0.785161552E+01 -0.798413165E-02  0.502472398E+00
   H -0.396744581E+02  0.282068705E+01 -0.121034744E+01
   H  0.389888041E+02 -0.249806026E+01 -0.363101863E+01
     4
 # iter = 69500  time[fs]=69.50000
   C -0.795324318E+01 -0.218703964E-01 -0.924492073E-01
   C  0.793763117E+01 -0.789591756E-02  0.508206307E+00
   H -0.400810048E+02  0.284970849E+01 -0.122215178E+01
   H  0.393881342E+02 -0.252399076E+01 -0.366866695E+01
     4
 # iter = 70000  time[fs]=70.00000
   C -0.804013017E+01 -0.223662983E-01 -0.933144473E-01
   C  0.802369619E+01 -0.780728155E-02  0.513943266E+00
   H -0.404876564E+02  0.287873807E+01 -0.123395949E+01
   H  0.397875823E+02 -0.254992986E+01 -0.370632874E+01
     4
 # iter = 70500  time[fs]=70.50000
   C -0.812706654E+01 -0.228625795E-01 -0.941813005E-01
   C  0.810980951E+01 -0.771823027E-02  0.519683213E+00
   H -0.408944108E+02  0.290777565E+01 -0.124577048E+01
   H  0.401871460E+02 -0.257587737E+01 -0.374400372E+01
     4
 # iter = 71000  time[fs]=71.00000
   C -0.821405123E+01 -0.233592341E-01 -0.950497323E-01
   C  0.819597009E+01 -0.762877022E-02  0.525426087E+00
   H -0.413012659E+02  0.293682106E+01 -0.125758471E+01
   H  0.405868231E+02 -0.260183315E+01 -0.378169166E+01
     4
 # iter = 71500  time[fs]=71.50000
   C -0.830108322E+01 -0.238562563E-01 -0.959197094E-01
   C  0.828217695E+01 -0.753890778E-02  0.531171829E+00
   H -0.417082198E+02  0.296587416E+01 -0.126940209E+01
   H  0.409866115E+02 -0.262779703E+01 -0.381939230E+01
     4
 # iter = 72000  time[fs]=72.00000
   C -0.838816152E+01 -0.243536406E-01 -0.967911993E-01
   C  0.836842910E+01 -0.744864917E-02  0.536920380E+00
   H -0.421152707E+02  0.299493480E+01 -0.128122258E+01
   H  0.413865089E+02 -0.265376885E+01 -0.385710541E+01
     4
 # iter = 72500  time[fs]=72.50000
   C -0.847528518E+01 -0.248513814E-01 -0.976641707E-01
   C  0.845472561E+01 -0.735800049E-02  0.542671686E+00
   H -0.425224165E+02  0.302400283E+01 -0.129304611E+01
   H  0.417865132E+02 -0.267974848E+01 -0.389483074E+01
     4
 # iter = 73000  time[fs]=73.00000
   C -0.856245326E+01 -0.253494733E-01 -0.985385932E-01
   C  0.854106557E+01 -0.726696774E-02  0.548425691E+00
   H -0.429296556E+02  0.305307812E+01 -0.130487263E+01
   H  0.421866225E+02 -0.270573576E+01 -0.393256808E+01
     4
 # iter = 73500  time[fs]=73.50000
   C -0.864966486E+01 -0.258479111E-01 -0.994144372E-01
   C  0.862744810E+01 -0.717555674E-02  0.554182344E+00
   H -0.433369862E+02  0.308216054E+01 -0.131670207E+01
   H  0.425868348E+02 -0.273173055E+01 -0.397031720E+01
     4
 # iter = 74000  time[fs]=74.00000
   C -0.873691911E+01 -0.263466894E-01 -0.100291674E+00
   C  0.871387232E+01 -0.708377324E-02  0.559941593E+00
   H -0.437444065E+02  0.311124995E+01 -0.132853438E+01
   H  0.429871482E+02 -0.275773272E+01 -0.400807789E+01
     4
 # iter = 74500  time[fs]=74.50000
   C -0.882421515E+01 -0.268458033E-01 -0.101170276E+00
   C  0.880033743E+01 -0.699162283E-02  0.565703389E+00
   H -0.441519151E+02  0.314034622E+01 -0.134036952E+01
   H  0.433875608E+02 -0.278374213E+01 -0.404584994E+01
     4
 # iter = 75000  time[fs]=75.00000
   C -0.891155217E+01 -0.273452477E-01 -0.102050216E+00
   C  0.888684259E+01 -0.689911101E-02  0.571467684E+00
   H -0.445595101E+02  0.316944924E+01 -0.135220742E+01
   H  0.437880708E+02 -0.280975865E+01 -0.408363315E+01
     4
 # iter = 75500  time[fs]=75.50000
   C -0.899892935E+01 -0.278450179E-01 -0.102931468E+00
   C  0.897338704E+01 -0.680624317E-02  0.577234429E+00
   H -0.449671901E+02  0.319855887E+01 -0.136404803E+01
   H  0.441886764E+02 -0.283578216E+01 -0.412142732E+01
     4
 # iter = 76000  time[fs]=76.00000
   C -0.908634593E+01 -0.283451089E-01 -0.103814006E+00
   C  0.905997000E+01 -0.671302456E-02  0.583003581E+00
   H -0.453749535E+02  0.322767501E+01 -0.137589132E+01
   H  0.445893760E+02 -0.286181253E+01 -0.415923225E+01
     4
 # iter = 76500  time[fs]=76.50000
   C -0.917380115E+01 -0.288455162E-01 -0.104697806E+00
   C  0.914659075E+01 -0.661946035E-02  0.588775095E+00
   H -0.457827989E+02  0.325679754E+01 -0.138773722E+01
   H  0.449901679E+02 -0.288784964E+01 -0.419704777E+01
     4
 # iter = 77000  time[fs]=77.00000
   C -0.926129426E+01 -0.293462352E-01 -0.105582844E+00
   C  0.923324854E+01 -0.652555558E-02  0.594548926E+00
   H -0.461907248E+02  0.328592635E+01 -0.139958569E+01
   H  0.453910503E+02 -0.291389338E+01 -0.423487368E+01
     4
 # iter = 77500  time[fs]=77.50000
   C -0.934882456E+01 -0.298472613E-01 -0.106469096E+00
   C  0.931994270E+01 -0.643131522E-02  0.600325035E+00
   H -0.465987299E+02  0.331506133E+01 -0.141143669E+01
   H  0.457920219E+02 -0.293994362E+01 -0.427270981E+01
     4
 # iter = 78000  time[fs]=78.00000
   C -0.943639135E+01 -0.303485901E-01 -0.107356540E+00
   C  0.940667253E+01 -0.633674412E-02  0.606103378E+00
   H -0.470068126E+02  0.334420237E+01 -0.142329018E+01
   H  0.461930809E+02 -0.296600027E+01 -0.431055598E+01
     4
 # iter = 78500  time[fs]=78.50000
   C -0.952399396E+01 -0.308502174E-01 -0.108245153E+00
   C  0.949343738E+01 -0.624184702E-02  0.611883918E+00
   H -0.474149718E+02  0.337334937E+01 -0.143514610E+01
   H  0.465942260E+02 -0.299206321E+01 -0.434841203E+01
     4
 # iter = 79000  time[fs]=79.00000
   C -0.961163172E+01 -0.313521390E-01 -0.109134914E+00
   C  0.958023659E+01 -0.614662857E-02  0.617666615E+00
   H -0.478232060E+02  0.340250223E+01 -0.144700443E+01
   H  0.469954556E+02 -0.301813233E+01 -0.438627779E+01
     4
 # iter = 79500  time[fs]=79.50000
   C -0.969930401E+01 -0.318543506E-01 -0.110025802E+00
   C  0.966706955E+01 -0.605109336E-02  0.623451431E+00
   H -0.482315141E+02  0.343166086E+01 -0.145886510E+01
   H  0.473967684E+02 -0.304420754E+01 -0.442415310E+01
     4
 # iter = 80000  time[fs]=80.00000
   C -0.978701018E+01 -0.323568481E-01 -0.110917796E+00
   C  0.975393564E+01 -0.595524584E-02  0.629238329E+00
   H -0.486398948E+02  0.346082515E+01 -0.147072810E+01
   H  0.477981628E+02 -0.307028873E+01 -0.446203781E+01
