     4
 # iter = 25000  time[fs]=25.00000
   C -0.982361611E+00  0.361252216E-02  0.119219902E-01
   C  0.990248691E+00  0.162089199E-01  0.381144231E-01
   H -0.523673694E+01  0.329914575E+00 -0.585752566E+00
   H  0.526022172E+01  0.242220320E+00  0.484857108E+00
     4
 # iter = 25500  time[fs]=25.50000
   C -0.102878345E+01 -0.551725093E-04  0.130285806E-01
   C  0.103060704E+01  0.136469265E-01  0.363474025E-01
   H -0.557588717E+01  0.339015072E+00 -0.631131941E+00
   H  0.557026613E+01  0.246716107E+00  0.506222143E+00
     4
 # iter = 26000  time[fs]=26.00000
   C -0.107928601E+01 -0.472640245E-02  0.131433272E-01
   C  0.107309991E+01  0.101234145E-01  0.336364463E-01
   H -0.592311280E+01  0.342875518E+00 -0.682248928E+00
   H  0.587762576E+01  0.245917997E+00  0.522439547E+00
     4
 # iter = 26500  time[fs]=26.50000
   C -0.113072207E+01 -0.751005181E-02  0.151612744E-01
   C  0.112036229E+01  0.853441045E-02  0.328699755E-01
   H -0.626202251E+01  0.357557395E+00 -0.722983019E+00
   H  0.619811334E+01  0.255909286E+00  0.549577717E+00
     4
 # iter = 27000  time[fs]=27.00000
   C -0.118270650E+01 -0.826091613E-02  0.192307090E-01
   C  0.117229500E+01  0.902301955E-02  0.341851476E-01
   H -0.659156856E+01  0.383840453E+00 -0.752506901E+00
   H  0.653227479E+01  0.277475733E+00  0.588409232E+00
     4
 # iter = 27500  time[fs]=27.50000
   C -0.123716401E+01 -0.912594239E-02  0.232070087E-01
   C  0.122652046E+01  0.943438199E-02  0.354225318E-01
   H -0.692350902E+01  0.409747066E+00 -0.782759511E+00
   H  0.686791186E+01  0.298632855E+00  0.626937874E+00
     4
 # iter = 28000  time[fs]=28.00000
   C -0.129540981E+01 -0.116237526E-01  0.255731255E-01
   C  0.128130991E+01  0.824362829E-02  0.350537596E-01
   H -0.726613128E+01  0.426800728E+00 -0.822184175E+00
   H  0.719636044E+01  0.310899801E+00  0.656672714E+00
     4
 # iter = 28500  time[fs]=28.50000
   C -0.135664300E+01 -0.151381728E-01  0.269461398E-01
   C  0.133709284E+01  0.606622319E-02  0.336916337E-01
   H -0.761585494E+01  0.438413187E+00 -0.867339599E+00
   H  0.752088470E+01  0.317694385E+00  0.681023087E+00
     4
 # iter = 29000  time[fs]=29.00000
   C -0.141918738E+01 -0.181602753E-01  0.288353877E-01
   C  0.139521108E+01  0.441277684E-02  0.328447857E-01
   H -0.796414634E+01  0.452968807E+00 -0.909815313E+00
   H  0.784974792E+01  0.327411168E+00  0.708376288E+00
     4
 # iter = 29500  time[fs]=29.50000
   C -0.148236951E+01 -0.201680007E-01  0.317630009E-01
   C  0.145603354E+01  0.380463525E-02  0.330331489E-01
   H -0.830798511E+01  0.473358652E+00 -0.946697707E+00
   H  0.818572947E+01  0.342946088E+00  0.741621799E+00
     4
 # iter = 30000  time[fs]=30.00000
   C -0.154678105E+01 -0.218898217E-01  0.350003378E-01
   C  0.151869059E+01  0.350954797E-02  0.335235106E-01
   H -0.865133020E+01  0.495512213E+00 -0.982037905E+00
   H  0.852465213E+01  0.360226912E+00  0.776681568E+00
     4
 # iter = 30500  time[fs]=30.50000
   C -0.161311140E+01 -0.241386014E-01  0.377341703E-01
   C  0.158224170E+01  0.271079245E-02  0.334985275E-01
   H -0.899862240E+01  0.514890606E+00 -0.102035777E+01
   H  0.886188104E+01  0.374712340E+00  0.809009105E+00
     4
 # iter = 31000  time[fs]=31.00000
   C -0.168125951E+01 -0.269245084E-01  0.399538061E-01
   C  0.164656330E+01  0.139652491E-02  0.329459901E-01
   H -0.934984154E+01  0.531425964E+00 -0.106170990E+01
   H  0.919726732E+01  0.386335877E+00  0.838533331E+00
     4
 # iter = 31500  time[fs]=31.50000
   C -0.175059298E+01 -0.297153948E-01  0.421907566E-01
   C  0.171208661E+01  0.987293739E-04  0.323977112E-01
   H -0.970195528E+01  0.548071322E+00 -0.110312753E+01
   H  0.953369508E+01  0.398054466E+00  0.868207128E+00
     4
 # iter = 32000  time[fs]=32.00000
   C -0.182069108E+01 -0.321810215E-01  0.447745583E-01
   C  0.177905033E+01 -0.852919704E-03  0.321833469E-01
   H -0.100530630E+02  0.566656258E+00 -0.114276875E+01
   H  0.987293129E+01  0.411700458E+00  0.899859197E+00
     4
 # iter = 32500  time[fs]=32.50000
   C -0.189161060E+01 -0.344599547E-01  0.475659076E-01
   C  0.184723213E+01 -0.159864444E-02  0.321627735E-01
   H -0.104038815E+02  0.586400592E+00 -0.118140279E+01
   H  0.102141368E+02  0.426494007E+00  0.932706376E+00
     4
 # iter = 33000  time[fs]=33.00000
   C -0.196356439E+01 -0.368390109E-01  0.502772323E-01
   C  0.191626899E+01 -0.242719485E-02  0.320474253E-01
   H -0.107559586E+02  0.605699392E+00 -0.122062469E+01
   H  0.105556525E+02  0.440829664E+00  0.965140204E+00
     4
 # iter = 33500  time[fs]=33.50000
   C -0.203656886E+01 -0.394016111E-01  0.528243487E-01
   C  0.198600894E+01 -0.342330951E-02  0.317528085E-01
   H -0.111097142E+02  0.624081084E+00 -0.126089708E+01
   H  0.108969584E+02  0.454236245E+00  0.996686766E+00
     4
 # iter = 34000  time[fs]=34.00000
   C -0.211043977E+01 -0.420242693E-01  0.553299827E-01
   C  0.205651372E+01 -0.446420298E-02  0.314019953E-01
   H -0.114644199E+02  0.642226913E+00 -0.130153056E+01
   H  0.112386931E+02  0.467396326E+00  0.102802616E+01
     4
 # iter = 34500  time[fs]=34.50000
   C -0.218500121E+01 -0.445862902E-01  0.579140827E-01
   C  0.212784799E+01 -0.542980825E-02  0.311153688E-01
   H -0.118193665E+02  0.660803105E+00 -0.134185147E+01
   H  0.115814840E+02  0.480977382E+00  0.105982359E+01
     4
 # iter = 35000  time[fs]=35.00000
   C -0.226020429E+01 -0.470890056E-01  0.605745894E-01
   C  0.219995908E+01 -0.632232576E-02  0.308910634E-01
   H -0.121745276E+02  0.679796816E+00 -0.138186587E+01
   H  0.119252819E+02  0.494967162E+00  0.109206475E+01
     4
 # iter = 35500  time[fs]=35.50000
   C -0.233607123E+01 -0.496004491E-01  0.632427657E-01
   C  0.227273203E+01 -0.721076168E-02  0.306604184E-01
   H -0.125302513E+02  0.698824196E+00 -0.142195141E+01
   H  0.122696696E+02  0.508982023E+00  0.112436407E+01
     4
 # iter = 36000  time[fs]=36.00000
   C -0.241259702E+01 -0.521574242E-01  0.658811298E-01
   C  0.234608720E+01 -0.813275124E-02  0.303861484E-01
   H -0.128867142E+02  0.717675714E+00 -0.146231192E+01
   H  0.126144068E+02  0.522812746E+00  0.115651058E+01
     4
 # iter = 36500  time[fs]=36.50000
   C -0.248972657E+01 -0.547431088E-01  0.685058522E-01
   C  0.242000239E+01 -0.907211089E-02  0.300847859E-01
   H -0.132437966E+02  0.736440827E+00 -0.150285269E+01
   H  0.129595550E+02  0.536549327E+00  0.118859267E+01
     4
 # iter = 37000  time[fs]=37.00000
   C -0.256739572E+01 -0.573283731E-01  0.711454389E-01
   C  0.249447097E+01 -0.100002668E-01  0.297852498E-01
   H -0.136013121E+02  0.755277858E+00 -0.154341057E+01
   H  0.133052469E+02  0.550350641E+00  0.122076770E+01
     4
 # iter = 37500  time[fs]=37.50000
   C -0.264556478E+01 -0.599057254E-01  0.738067857E-01
   C  0.256946758E+01 -0.109102926E-01  0.294948048E-01
   H -0.139591970E+02  0.774224913E+00 -0.158394296E+01
   H  0.136514966E+02  0.564255214E+00  0.125307284E+01
     4
 # iter = 38000  time[fs]=38.00000
   C -0.272421459E+01 -0.624855697E-01  0.764789203E-01
   C  0.264495155E+01 -0.118131610E-01  0.292028078E-01
   H -0.143174885E+02  0.793220703E+00 -0.162450701E+01
   H  0.139982206E+02  0.578202059E+00  0.128544579E+01
     4
 # iter = 38500  time[fs]=38.50000
   C -0.280332684E+01 -0.650768302E-01  0.791523774E-01
   C  0.272088608E+01 -0.127183224E-01  0.289001288E-01
   H -0.146762173E+02  0.812212421E+00 -0.166515168E+01
   H  0.143453456E+02  0.592138650E+00  0.131783284E+01
     4
 # iter = 39000  time[fs]=39.00000
   C -0.288287571E+01 -0.676788159E-01  0.818273331E-01
   C  0.279724619E+01 -0.136255519E-01  0.285873022E-01
   H -0.150353619E+02  0.831201028E+00 -0.170587243E+01
   H  0.146928532E+02  0.606066251E+00  0.135023414E+01
     4
 # iter = 39500  time[fs]=39.50000
   C -0.296283307E+01 -0.702866086E-01  0.845082161E-01
   C  0.287401307E+01 -0.145303539E-01  0.282691219E-01
   H -0.153948784E+02  0.850211223E+00 -0.174664124E+01
   H  0.150407504E+02  0.620009864E+00  0.138267366E+01
     4
 # iter = 40000  time[fs]=40.00000
   C -0.304317496E+01 -0.728977229E-01  0.871970464E-01
   C  0.295116724E+01 -0.154306423E-01  0.279479611E-01
   H -0.157547376E+02  0.869254336E+00 -0.178744366E+01
   H  0.153890320E+02  0.633981092E+00  0.141516202E+01
     4
 # iter = 40500  time[fs]=40.50000
   C -0.312388221E+01 -0.755128966E-01  0.898926443E-01
   C  0.302868762E+01 -0.163275353E-01  0.276229773E-01
   H -0.161149292E+02  0.888323919E+00 -0.182828324E+01
   H  0.157376759E+02  0.647973722E+00  0.144769211E+01
     4
 # iter = 41000  time[fs]=41.00000
   C -0.320493762E+01 -0.781333889E-01  0.925933307E-01
   C  0.310655404E+01 -0.172226482E-01  0.272928191E-01
   H -0.164754469E+02  0.907410767E+00 -0.186916646E+01
   H  0.160866585E+02  0.661978771E+00  0.148025410E+01
     4
 # iter = 41500  time[fs]=41.50000
   C -0.328632411E+01 -0.807592886E-01  0.952986180E-01
   C  0.318474886E+01 -0.181164007E-01  0.269573203E-01
   H -0.168362786E+02  0.926512337E+00 -0.191009332E+01
   H  0.164359634E+02  0.675993904E+00  0.151284484E+01
     4
 # iter = 42000  time[fs]=42.00000
   C -0.336802501E+01 -0.833898945E-01  0.980088284E-01
   C  0.326325644E+01 -0.190083986E-01  0.266171170E-01
   H -0.171974086E+02  0.945630612E+00 -0.195105944E+01
   H  0.167855800E+02  0.690021303E+00  0.154546578E+01
     4
 # iter = 42500  time[fs]=42.50000
   C -0.345002487E+01 -0.860246365E-01  0.100724172E+00
   C  0.334206211E+01 -0.198983600E-01  0.262727228E-01
   H -0.175588226E+02  0.964766962E+00 -0.199206121E+01
   H  0.171354977E+02  0.704062527E+00  0.157811776E+01
     4
 # iter = 43000  time[fs]=43.00000
   C -0.353230962E+01 -0.886633531E-01  0.103444468E+00
   C  0.342115183E+01 -0.207863944E-01  0.259242495E-01
   H -0.179205094E+02  0.983920594E+00 -0.203309731E+01
   H  0.174857043E+02  0.718116956E+00  0.161079950E+01
     4
 # iter = 43500  time[fs]=43.50000
   C -0.361486629E+01 -0.913060339E-01  0.106169402E+00
   C  0.350051231E+01 -0.216727466E-01  0.255716639E-01
   H -0.182824590E+02  0.100308997E+01 -0.207416728E+01
   H  0.178361876E+02  0.732183213E+00  0.164350900E+01
     4
 # iter = 44000  time[fs]=44.00000
   C -0.369768264E+01 -0.939525850E-01  0.108898758E+00
   C  0.358013124E+01 -0.225575619E-01  0.252150228E-01
   H -0.186446618E+02  0.102227411E+01 -0.211527022E+01
   H  0.181869367E+02  0.746260476E+00  0.167624484E+01
     4
 # iter = 44500  time[fs]=44.50000
   C -0.378074711E+01 -0.966028219E-01  0.111632427E+00
   C  0.365999715E+01 -0.234408807E-01  0.248544789E-01
   H -0.190071078E+02  0.104147263E+01 -0.215640475E+01
   H  0.185379417E+02  0.760348500E+00  0.170900622E+01
     4
 # iter = 45000  time[fs]=45.00000
   C -0.386404886E+01 -0.992565591E-01  0.114370314E+00
   C  0.374009932E+01 -0.243227296E-01  0.244901902E-01
   H -0.193697880E+02  0.106068523E+01 -0.219756950E+01
   H  0.188891934E+02  0.774447120E+00  0.174179244E+01
     4
 # iter = 45500  time[fs]=45.50000
   C -0.394757774E+01 -0.101913653E+00  0.117112296E+00
   C  0.382042764E+01 -0.252031645E-01  0.241222767E-01
   H -0.197326937E+02  0.107991144E+01 -0.223876333E+01
   H  0.192406828E+02  0.788556002E+00  0.177460267E+01
     4
 # iter = 46000  time[fs]=46.00000
   C -0.403132422E+01 -0.104573987E+00  0.119858235E+00
   C  0.390097259E+01 -0.260822571E-01  0.237508355E-01
   H -0.200958168E+02  0.109915072E+01 -0.227998529E+01
   H  0.195924015E+02  0.802674726E+00  0.180743601E+01
     4
 # iter = 46500  time[fs]=46.50000
   C -0.411527933E+01 -0.107237447E+00  0.122608004E+00
   C  0.398172522E+01 -0.269600713E-01  0.233759633E-01
   H -0.204591498E+02  0.111840258E+01 -0.232123445E+01
   H  0.199443413E+02  0.816802913E+00  0.184029164E+01
     4
 # iter = 47000  time[fs]=47.00000
   C -0.419943463E+01 -0.109903916E+00  0.125361488E+00
   C  0.406267713E+01 -0.278366595E-01  0.229977616E-01
   H -0.208226854E+02  0.113766660E+01 -0.236250988E+01
   H  0.202964945E+02  0.830940246E+00  0.187316880E+01
     4
 # iter = 47500  time[fs]=47.50000
   C -0.428378215E+01 -0.112573284E+00  0.128118579E+00
   C  0.414382037E+01 -0.287120689E-01  0.226163306E-01
   H -0.211864166E+02  0.115694237E+01 -0.240381069E+01
   H  0.206488541E+02  0.845086440E+00  0.190606681E+01
     4
 # iter = 48000  time[fs]=48.00000
   C -0.436831437E+01 -0.115245445E+00  0.130879171E+00
   C  0.422514745E+01 -0.295863453E-01  0.222317647E-01
   H -0.215503369E+02  0.117622953E+01 -0.244513603E+01
   H  0.210014130E+02  0.859241211E+00  0.193898499E+01
     4
 # iter = 48500  time[fs]=48.50000
   C -0.445302419E+01 -0.117920302E+00  0.133643161E+00
   C  0.430665129E+01 -0.304595341E-01  0.218441535E-01
   H -0.219144400E+02  0.119552770E+01 -0.248648512E+01
   H  0.213541648E+02  0.873404284E+00  0.197192270E+01
     4
 # iter = 49000  time[fs]=49.00000
   C -0.453790489E+01 -0.120597762E+00  0.136410450E+00
   C  0.438832521E+01 -0.313316779E-01  0.214535830E-01
   H -0.222787201E+02  0.121483653E+01 -0.252785720E+01
   H  0.217071033E+02  0.887575392E+00  0.200487932E+01
     4
 # iter = 49500  time[fs]=49.50000
   C -0.462295012E+01 -0.123277736E+00  0.139180943E+00
   C  0.447016288E+01 -0.322028169E-01  0.210601365E-01
   H -0.226431714E+02  0.123415568E+01 -0.256925155E+01
   H  0.220602224E+02  0.901754286E+00  0.203785426E+01
     4
 # iter = 50000  time[fs]=50.00000
   C -0.470815386E+01 -0.125960141E+00  0.141954550E+00
   C  0.455215829E+01 -0.330729887E-01  0.206638943E-01
   H -0.230077886E+02  0.125348484E+01 -0.261066749E+01
   H  0.224135165E+02  0.915940729E+00  0.207084698E+01
     4
 # iter = 50500  time[fs]=50.50000
   C -0.479351041E+01 -0.128644895E+00  0.144731183E+00
   C  0.463430577E+01 -0.339422291E-01  0.202649338E-01
   H -0.233725666E+02  0.127282370E+01 -0.265210436E+01
   H  0.227669803E+02  0.930134493E+00  0.210385693E+01
     4
 # iter = 51000  time[fs]=51.00000
   C -0.487901436E+01 -0.131331924E+00  0.147510758E+00
   C  0.471659993E+01 -0.348105723E-01  0.198633293E-01
   H -0.237375004E+02  0.129217198E+01 -0.269356153E+01
   H  0.231206086E+02  0.944335362E+00  0.213688361E+01
     4
 # iter = 51500  time[fs]=51.50000
   C -0.496466055E+01 -0.134021153E+00  0.150293195E+00
   C  0.479903563E+01 -0.356780505E-01  0.194591525E-01
   H -0.241025854E+02  0.131152939E+01 -0.273503840E+01
   H  0.234743965E+02  0.958543128E+00  0.216992652E+01
     4
 # iter = 52000  time[fs]=52.00000
   C -0.505044412E+01 -0.136712514E+00  0.153078414E+00
   C  0.488160803E+01 -0.365446945E-01  0.190524724E-01
   H -0.244678170E+02  0.133089567E+01 -0.277653440E+01
   H  0.238283392E+02  0.972757592E+00  0.220298521E+01
     4
 # iter = 52500  time[fs]=52.50000
   C -0.513636042E+01 -0.139405941E+00  0.155866342E+00
   C  0.496431249E+01 -0.374105335E-01  0.186433555E-01
   H -0.248331911E+02  0.135027057E+01 -0.281804899E+01
   H  0.241824322E+02  0.986978563E+00  0.223605923E+01
     4
 # iter = 53000  time[fs]=53.00000
   C -0.522240502E+01 -0.142101369E+00  0.158656905E+00
   C  0.504714461E+01 -0.382755953E-01  0.182318658E-01
   H -0.251987035E+02  0.136965384E+01 -0.285958164E+01
   H  0.245366714E+02  0.100120586E+01  0.226914814E+01
     4
 # iter = 53500  time[fs]=53.50000
   C -0.530857371E+01 -0.144798739E+00  0.161450036E+00
   C  0.513010020E+01 -0.391399064E-01  0.178180651E-01
   H -0.255643502E+02  0.138904526E+01 -0.290113184E+01
   H  0.248910524E+02  0.101543931E+01  0.230225155E+01
     4
 # iter = 54000  time[fs]=54.00000
   C -0.539486249E+01 -0.147497993E+00  0.164245666E+00
   C  0.521317526E+01 -0.400034920E-01  0.174020129E-01
   H -0.259301276E+02  0.140844459E+01 -0.294269912E+01
   H  0.252455714E+02  0.102967874E+01  0.233536905E+01
     4
 # iter = 54500  time[fs]=54.50000
   C -0.548126753E+01 -0.150199076E+00  0.167043731E+00
   C  0.529636598E+01 -0.408663761E-01  0.169837667E-01
   H -0.262960320E+02  0.142785162E+01 -0.298428301E+01
   H  0.256002246E+02  0.104392399E+01  0.236850026E+01
     4
 # iter = 55000  time[fs]=55.00000
   C -0.556778518E+01 -0.152901934E+00  0.169844169E+00
   C  0.537966873E+01 -0.417285815E-01  0.165633817E-01
   H -0.266620599E+02  0.144726615E+01 -0.302588306E+01
   H  0.259550083E+02  0.105817491E+01  0.240164484E+01
     4
 # iter = 55500  time[fs]=55.50000
   C -0.565441194E+01 -0.155606517E+00  0.172646920E+00
   C  0.546308004E+01 -0.425901303E-01  0.161409116E-01
   H -0.270282081E+02  0.146668798E+01 -0.306749886E+01
   H  0.263099190E+02  0.107243135E+01  0.243480241E+01
     4
 # iter = 56000  time[fs]=56.00000
   C -0.574114450E+01 -0.158312777E+00  0.175451927E+00
   C  0.554659658E+01 -0.434510433E-01  0.157164077E-01
   H -0.273944734E+02  0.148611692E+01 -0.310912999E+01
   H  0.266649534E+02  0.108669317E+01  0.246797267E+01
     4
 # iter = 56500  time[fs]=56.50000
   C -0.582797966E+01 -0.161020666E+00  0.178259133E+00
   C  0.563021519E+01 -0.443113405E-01  0.152899199E-01
   H -0.277608526E+02  0.150555279E+01 -0.315077605E+01
   H  0.270201083E+02  0.110096022E+01  0.250115526E+01
     4
 # iter = 57000  time[fs]=57.00000
   C -0.591491438E+01 -0.163730141E+00  0.181068485E+00
   C  0.571393282E+01 -0.451710409E-01  0.148614963E-01
   H -0.281273429E+02  0.152499541E+01 -0.319243668E+01
   H  0.273753806E+02  0.111523239E+01  0.253434990E+01
     4
 # iter = 57500  time[fs]=57.50000
   C -0.600194573E+01 -0.166441157E+00  0.183879931E+00
   C  0.579774658E+01 -0.460301628E-01  0.144311834E-01
   H -0.284939414E+02  0.154444462E+01 -0.323411149E+01
   H  0.277307672E+02  0.112950953E+01  0.256755628E+01
     4
 # iter = 58000  time[fs]=58.00000
   C -0.608907093E+01 -0.169153674E+00  0.186693420E+00
   C  0.588165369E+01 -0.468887236E-01  0.139990259E-01
   H -0.288606453E+02  0.156390024E+01 -0.327580015E+01
   H  0.280862653E+02  0.114379153E+01  0.260077412E+01
     4
 # iter = 58500  time[fs]=58.50000
   C -0.617628730E+01 -0.171867653E+00  0.189508905E+00
   C  0.596565147E+01 -0.477467403E-01  0.135650672E-01
   H -0.292274521E+02  0.158336212E+01 -0.331750232E+01
   H  0.284418721E+02  0.115807827E+01  0.263400313E+01
     4
 # iter = 59000  time[fs]=59.00000
   C -0.626359226E+01 -0.174583054E+00  0.192326338E+00
   C  0.604973737E+01 -0.486042286E-01  0.131293493E-01
   H -0.295943593E+02  0.160283012E+01 -0.335921766E+01
   H  0.287975850E+02  0.117236964E+01  0.266724304E+01
     4
 # iter = 59500  time[fs]=59.50000
   C -0.635098337E+01 -0.177299842E+00  0.195145674E+00
   C  0.613390894E+01 -0.494612041E-01  0.126919127E-01
   H -0.299613643E+02  0.162230409E+01 -0.340094586E+01
   H  0.291534014E+02  0.118666552E+01  0.270049361E+01
     4
 # iter = 60000  time[fs]=60.00000
   C -0.643845824E+01 -0.180017981E+00  0.197966869E+00
   C  0.621816383E+01 -0.503176815E-01  0.122527966E-01
   H -0.303284649E+02  0.164178388E+01 -0.344268663E+01
   H  0.295093188E+02  0.120096581E+01  0.273375458E+01
     4
 # iter = 60500  time[fs]=60.50000
   C -0.652601461E+01 -0.182737437E+00  0.200789881E+00
   C  0.630249977E+01 -0.511736749E-01  0.118120389E-01
   H -0.306956587E+02  0.166126936E+01 -0.348443966E+01
   H  0.298653349E+02  0.121527041E+01  0.276702572E+01
     4
 # iter = 61000  time[fs]=61.00000
   C -0.661365030E+01 -0.185458178E+00  0.203614670E+00
   C  0.638691459E+01 -0.520291980E-01  0.113696764E-01
   H -0.310629437E+02  0.168076040E+01 -0.352620468E+01
   H  0.302214472E+02  0.122957922E+01  0.280030678E+01
     4
 # iter = 61500  time[fs]=61.50000
   C -0.670136322E+01 -0.188180172E+00  0.206441194E+00
   C  0.647140620E+01 -0.528842637E-01  0.109257446E-01
   H -0.314303176E+02  0.170025687E+01 -0.356798140E+01
   H  0.305776537E+02  0.124389215E+01  0.283359755E+01
     4
 # iter = 62000  time[fs]=62.00000
   C -0.678915133E+01 -0.190903388E+00  0.209269417E+00
   C  0.655597261E+01 -0.537388845E-01  0.104802779E-01
   H -0.317977784E+02  0.171975865E+01 -0.360976958E+01
   H  0.309339521E+02  0.125820910E+01  0.286689781E+01
     4
 # iter = 62500  time[fs]=62.50000
   C -0.687701271E+01 -0.193627797E+00  0.212099301E+00
   C  0.664061186E+01 -0.545930727E-01  0.100333097E-01
   H -0.321653242E+02  0.173926563E+01 -0.365156895E+01
   H  0.312903404E+02  0.127252998E+01  0.290020735E+01
     4
 # iter = 63000  time[fs]=63.00000
   C -0.696494549E+01 -0.196353371E+00  0.214930810E+00
   C  0.672532211E+01 -0.554468396E-01  0.958487224E-02
   H -0.325329531E+02  0.175877768E+01 -0.369337927E+01
   H  0.316468166E+02  0.128685470E+01  0.293352596E+01
     4
 # iter = 63500  time[fs]=63.50000
   C -0.705294786E+01 -0.199080083E+00  0.217763909E+00
   C  0.681010156E+01 -0.563001966E-01  0.913499688E-02
   H -0.329006632E+02  0.177829470E+01 -0.373520029E+01
   H  0.320033787E+02  0.130118319E+01  0.296685346E+01
     4
 # iter = 64000  time[fs]=64.00000
   C -0.714101809E+01 -0.201807906E+00  0.220598564E+00
   C  0.689494849E+01 -0.571531542E-01  0.868371397E-02
   H -0.332684527E+02  0.179781659E+01 -0.377703180E+01
   H  0.323600248E+02  0.131551536E+01  0.300018965E+01
     4
 # iter = 64500  time[fs]=64.50000
   C -0.722915451E+01 -0.204536815E+00  0.223434743E+00
   C  0.697986124E+01 -0.580057230E-01  0.823105292E-02
   H -0.336363199E+02  0.181734323E+01 -0.381887355E+01
   H  0.327167532E+02  0.132985114E+01  0.303353435E+01
     4
 # iter = 65000  time[fs]=65.00000
   C -0.731735551E+01 -0.207266785E+00  0.226272414E+00
   C  0.706483819E+01 -0.588579127E-01  0.777704228E-02
   H -0.340042632E+02  0.183687452E+01 -0.386072535E+01
   H  0.330735620E+02  0.134419045E+01  0.306688738E+01
     4
 # iter = 65500  time[fs]=65.50000
   C -0.740561953E+01 -0.209997792E+00  0.229111546E+00
   C  0.714987781E+01 -0.597097331E-01  0.732170976E-02
   H -0.343722809E+02  0.185641038E+01 -0.390258697E+01
   H  0.334304495E+02  0.135853321E+01  0.310024856E+01
     4
 # iter = 66000  time[fs]=66.00000
   C -0.749394507E+01 -0.212729814E+00  0.231952109E+00
   C  0.723497860E+01 -0.605611933E-01  0.686508221E-02
   H -0.347403715E+02  0.187595070E+01 -0.394445822E+01
   H  0.337874142E+02  0.137287936E+01  0.313361774E+01
     4
 # iter = 66500  time[fs]=66.50000
   C -0.758233070E+01 -0.215462828E+00  0.234794074E+00
   C  0.732013911E+01 -0.614123023E-01  0.640718575E-02
   H -0.351085335E+02  0.189549540E+01 -0.398633889E+01
   H  0.341444544E+02  0.138722882E+01  0.316699474E+01
     4
 # iter = 67000  time[fs]=67.00000
   C -0.767077499E+01 -0.218196812E+00  0.237637414E+00
   C  0.740535797E+01 -0.622630688E-01  0.594804569E-02
   H -0.354767653E+02  0.191504438E+01 -0.402822881E+01
   H  0.345015686E+02  0.140158153E+01  0.320037942E+01
     4
 # iter = 67500  time[fs]=67.50000
   C -0.775927662E+01 -0.220931746E+00  0.240482100E+00
   C  0.749063381E+01 -0.631135009E-01  0.548768663E-02
   H -0.358450656E+02  0.193459756E+01 -0.407012777E+01
   H  0.348587552E+02  0.141593743E+01  0.323377161E+01
     4
 # iter = 68000  time[fs]=68.00000
   C -0.784783426E+01 -0.223667609E+00  0.243328107E+00
   C  0.757596535E+01 -0.639636069E-01  0.502613247E-02
   H -0.362134330E+02  0.195415486E+01 -0.411203561E+01
   H  0.352160128E+02  0.143029644E+01  0.326717118E+01
     4
 # iter = 68500  time[fs]=68.50000
   C -0.793644666E+01 -0.226404382E+00  0.246175408E+00
   C  0.766135133E+01 -0.648133943E-01  0.456340642E-02
   H -0.365818661E+02  0.197371619E+01 -0.415395215E+01
   H  0.355733400E+02  0.144465852E+01  0.330057797E+01
     4
 # iter = 69000  time[fs]=69.00000
   C -0.802511259E+01 -0.229142046E+00  0.249023979E+00
   C  0.774679052E+01 -0.656628706E-01  0.409953106E-02
   H -0.369503636E+02  0.199328149E+01 -0.419587721E+01
   H  0.359307354E+02  0.145902360E+01  0.333399185E+01
     4
 # iter = 69500  time[fs]=69.50000
   C -0.811383087E+01 -0.231880582E+00  0.251873794E+00
   C  0.783228176E+01 -0.665120433E-01  0.363452832E-02
   H -0.373189243E+02  0.201285066E+01 -0.423781064E+01
   H  0.362881976E+02  0.147339162E+01  0.336741268E+01
     4
 # iter = 70000  time[fs]=70.00000
   C -0.820260036E+01 -0.234619973E+00  0.254724832E+00
   C  0.791782390E+01 -0.673609191E-01  0.316841953E-02
   H -0.376875470E+02  0.203242364E+01 -0.427975228E+01
   H  0.366457255E+02  0.148776252E+01  0.340084033E+01
     4
 # iter = 70500  time[fs]=70.50000
   C -0.829141996E+01 -0.237360202E+00  0.257577067E+00
   C  0.800341585E+01 -0.682095049E-01  0.270122543E-02
   H -0.380562304E+02  0.205200036E+01 -0.432170197E+01
   H  0.370033177E+02  0.150213626E+01  0.343427468E+01
     4
 # iter = 71000  time[fs]=71.00000
   C -0.838028858E+01 -0.240101251E+00  0.260430479E+00
   C  0.808905653E+01 -0.690578073E-01  0.223296619E-02
   H -0.384249734E+02  0.207158074E+01 -0.436365955E+01
   H  0.373609730E+02  0.151651278E+01  0.346771559E+01
     4
 # iter = 71500  time[fs]=71.50000
   C -0.846920519E+01 -0.242843104E+00  0.263285045E+00
   C  0.817474491E+01 -0.699058326E-01  0.176366146E-02
   H -0.387937749E+02  0.209116472E+01 -0.440562489E+01
   H  0.377186902E+02  0.153089203E+01  0.350116295E+01
     4
 # iter = 72000  time[fs]=72.00000
   C -0.855816878E+01 -0.245585746E+00  0.266140744E+00
   C  0.826048000E+01 -0.707535869E-01  0.129333034E-02
   H -0.391626338E+02  0.211075224E+01 -0.444759784E+01
   H  0.380764681E+02  0.154527396E+01  0.353461663E+01
     4
 # iter = 72500  time[fs]=72.50000
   C -0.864717838E+01 -0.248329161E+00  0.268997556E+00
   C  0.834626082E+01 -0.716010761E-01  0.821991424E-03
   H -0.395315491E+02  0.213034322E+01 -0.448957826E+01
   H  0.384343057E+02  0.155965852E+01  0.356807654E+01
     4
 # iter = 73000  time[fs]=73.00000
   C -0.873623304E+01 -0.251073335E+00  0.271855460E+00
   C  0.843208642E+01 -0.724483061E-01  0.349662830E-03
   H -0.399005196E+02  0.214993760E+01 -0.453156601E+01
   H  0.387922019E+02  0.157404566E+01  0.360154254E+01
     4
 # iter = 73500  time[fs]=73.50000
   C -0.882533184E+01 -0.253818252E+00  0.274714437E+00
   C  0.851795590E+01 -0.732952824E-01 -0.123637811E-03
   H -0.402695444E+02  0.216953533E+01 -0.457356098E+01
   H  0.391501555E+02  0.158843534E+01  0.363501454E+01
     4
 # iter = 74000  time[fs]=74.00000
   C -0.891447388E+01 -0.256563898E+00  0.277574468E+00
   C  0.860386836E+01 -0.741420104E-01 -0.597893320E-03
   H -0.406386225E+02  0.218913634E+01 -0.461556302E+01
   H  0.395081656E+02  0.160282751E+01  0.366849243E+01
     4
 # iter = 74500  time[fs]=74.50000
   C -0.900365832E+01 -0.259310261E+00  0.280435534E+00
   C  0.868982296E+01 -0.749884954E-01 -0.107308696E-02
   H -0.410077529E+02  0.220874058E+01 -0.465757201E+01
   H  0.398662311E+02  0.161722213E+01  0.370197611E+01
     4
 # iter = 75000  time[fs]=75.00000
   C -0.909288430E+01 -0.262057326E+00  0.283297618E+00
   C  0.877581884E+01 -0.758347424E-01 -0.154920243E-02
   H -0.413769348E+02  0.222834799E+01 -0.469958783E+01
   H  0.402243511E+02  0.163161915E+01  0.373546547E+01
     4
 # iter = 75500  time[fs]=75.50000
   C -0.918215101E+01 -0.264805081E+00  0.286160701E+00
   C  0.886185521E+01 -0.766807564E-01 -0.202622383E-02
   H -0.417461672E+02  0.224795852E+01 -0.474161037E+01
   H  0.405825246E+02  0.164601854E+01  0.376896043E+01
     4
 # iter = 76000  time[fs]=76.00000
   C -0.927145766E+01 -0.267553514E+00  0.289024767E+00
   C  0.894793127E+01 -0.775265421E-01 -0.250413567E-02
   H -0.421154493E+02  0.226757211E+01 -0.478363951E+01
   H  0.409407507E+02  0.166042025E+01  0.380246087E+01
     4
 # iter = 76500  time[fs]=76.50000
   C -0.936080347E+01 -0.270302611E+00  0.291889799E+00
   C  0.903404627E+01 -0.783721043E-01 -0.298292283E-02
   H -0.424847801E+02  0.228718871E+01 -0.482567513E+01
   H  0.412990285E+02  0.167482424E+01  0.383596672E+01
     4
 # iter = 77000  time[fs]=77.00000
   C -0.945018771E+01 -0.273052361E+00  0.294755780E+00
   C  0.912019944E+01 -0.792174474E-01 -0.346257060E-02
   H -0.428541589E+02  0.230680827E+01 -0.486771713E+01
   H  0.416573570E+02  0.168923049E+01  0.386947787E+01
     4
 # iter = 77500  time[fs]=77.50000
   C -0.953960965E+01 -0.275802752E+00  0.297622695E+00
   C  0.920639008E+01 -0.800625757E-01 -0.394306459E-02
   H -0.432235848E+02  0.232643074E+01 -0.490976541E+01
   H  0.420157355E+02  0.170363894E+01  0.390299425E+01
     4
 # iter = 78000  time[fs]=78.00000
   C -0.962906857E+01 -0.278553773E+00  0.300490528E+00
   C  0.929261748E+01 -0.809074937E-01 -0.442439079E-02
   H -0.435930571E+02  0.234605608E+01 -0.495181985E+01
   H  0.423741631E+02  0.171804956E+01  0.393651577E+01
     4
 # iter = 78500  time[fs]=78.50000
   C -0.971856380E+01 -0.281305414E+00  0.303359263E+00
   C  0.937888095E+01 -0.817522053E-01 -0.490653552E-02
   H -0.439625750E+02  0.236568423E+01 -0.499388035E+01
   H  0.427326390E+02  0.173246232E+01  0.397004234E+01
     4
 # iter = 79000  time[fs]=79.00000
   C -0.980809465E+01 -0.284057663E+00  0.306228887E+00
   C  0.946517984E+01 -0.825967146E-01 -0.538948542E-02
   H -0.443321377E+02  0.238531515E+01 -0.503594683E+01
   H  0.430911624E+02  0.174687719E+01  0.400357388E+01
     4
 # iter = 79500  time[fs]=79.50000
   C -0.989766049E+01 -0.286810509E+00  0.309099385E+00
   C  0.955151349E+01 -0.834410255E-01 -0.587322747E-02
   H -0.447017445E+02  0.240494879E+01 -0.507801917E+01
   H  0.434497324E+02  0.176129412E+01  0.403711031E+01
     4
 # iter = 80000  time[fs]=80.00000
   C -0.998726068E+01 -0.289563943E+00  0.311970743E+00
   C  0.963788127E+01 -0.842851418E-01 -0.635774893E-02
   H -0.450713946E+02  0.242458512E+01 -0.512009729E+01
   H  0.438083484E+02  0.177571308E+01  0.407065156E+01
