     4
 # iter = 25000  time[fs]=25.00000
   C -0.987127903E+00  0.133166795E-01 -0.356123738E-01
   C  0.979069085E+00  0.183050168E-01 -0.283214446E-02
   H -0.526333331E+01 -0.405661472E+00  0.260023891E+00
   H  0.522893342E+01  0.296957361E+00  0.394746219E+00
     4
 # iter = 25500  time[fs]=25.50000
   C -0.103279480E+01  0.133436966E-01 -0.387245200E-01
   C  0.101784109E+01  0.161014045E-01 -0.704614805E-02
   H -0.560439704E+01 -0.441224425E+00  0.267369997E+00
   H  0.553981366E+01  0.308066910E+00  0.407223856E+00
     4
 # iter = 26000  time[fs]=26.00000
   C -0.108216477E+01  0.125978733E-01 -0.426944629E-01
   C  0.105832606E+01  0.127529347E-01 -0.123899332E-01
   H -0.595596589E+01 -0.482626735E+00  0.269584241E+00
   H  0.585117599E+01  0.314123736E+00  0.414779839E+00
     4
 # iter = 26500  time[fs]=26.50000
   C -0.113266119E+01  0.134251031E-01 -0.451675382E-01
   C  0.110368310E+01  0.116457365E-01 -0.154777149E-01
   H -0.630136930E+01 -0.513741514E+00  0.282710307E+00
   H  0.617848562E+01  0.331181388E+00  0.433449802E+00
     4
 # iter = 27000  time[fs]=27.00000
   C -0.118394729E+01  0.159417937E-01 -0.460198392E-01
   C  0.115386488E+01  0.129462284E-01 -0.161436746E-01
   H -0.663932561E+01 -0.533732010E+00  0.307517364E+00
   H  0.652198187E+01  0.360003469E+00  0.463982138E+00
     4
 # iter = 27500  time[fs]=27.50000
   C -0.123756003E+01  0.184033422E-01 -0.469895150E-01
   C  0.120615103E+01  0.141331882E-01 -0.169097942E-01
   H -0.698139568E+01 -0.554525682E+00  0.332022632E+00
   H  0.686919553E+01  0.388589131E+00  0.494362998E+00
     4
 # iter = 28000  time[fs]=28.00000
   C -0.129454343E+01  0.195751655E-01 -0.493054670E-01
   C  0.125857421E+01  0.134228049E-01 -0.195606961E-01
   H -0.733569627E+01 -0.584556236E+00  0.347744689E+00
   H  0.721122976E+01  0.408442977E+00  0.516086253E+00
     4
 # iter = 28500  time[fs]=28.50000
   C -0.135422692E+01  0.199556853E-01 -0.524641993E-01
   C  0.131168701E+01  0.115354330E-01 -0.233768231E-01
   H -0.769849692E+01 -0.620376233E+00  0.358088331E+00
   H  0.755115223E+01  0.422968375E+00  0.532546590E+00
     4
 # iter = 29000  time[fs]=29.00000
   C -0.141523156E+01  0.207680833E-01 -0.552380122E-01
   C  0.136710439E+01  0.102388097E-01 -0.265912100E-01
   H -0.806113218E+01 -0.653570933E+00  0.371430524E+00
   H  0.789705761E+01  0.440546380E+00  0.552117888E+00
     4
 # iter = 29500  time[fs]=29.50000
   C -0.147699321E+01  0.224345361E-01 -0.572007402E-01
   C  0.142529794E+01  0.101434661E-01 -0.285940776E-01
   H -0.842046675E+01 -0.681222247E+00  0.390656681E+00
   H  0.825157682E+01  0.464061504E+00  0.577678492E+00
     4
 # iter = 30000  time[fs]=30.00000
   C -0.153997515E+01  0.243621950E-01 -0.589417118E-01
   C  0.148528552E+01  0.103934504E-01 -0.302421037E-01
   H -0.878035922E+01 -0.707376243E+00  0.411692588E+00
   H  0.861040043E+01  0.489432136E+00  0.605141402E+00
     4
 # iter = 30500  time[fs]=30.50000
   C -0.160472123E+01  0.258897444E-01 -0.611191098E-01
   C  0.154599807E+01  0.100340651E-01 -0.324906696E-01
   H -0.914516197E+01 -0.736550117E+00  0.429996330E+00
   H  0.896877663E+01  0.512108801E+00  0.629952480E+00
     4
 # iter = 31000  time[fs]=31.00000
   C -0.167113519E+01  0.270074454E-01 -0.637398614E-01
   C  0.160731910E+01  0.905230408E-02 -0.353534135E-01
   H -0.951477642E+01 -0.768792890E+00  0.445496722E+00
   H  0.932645381E+01  0.532017410E+00  0.652033640E+00
     4
 # iter = 31500  time[fs]=31.50000
   C -0.173869092E+01  0.281458135E-01 -0.663709211E-01
   C  0.166977821E+01  0.807140846E-02 -0.382076753E-01
   H -0.988610038E+01 -0.801135041E+00  0.461143343E+00
   H  0.968622549E+01  0.552107856E+00  0.674331336E+00
     4
 # iter = 32000  time[fs]=32.00000
   C -0.180703508E+01  0.295715749E-01 -0.687432893E-01
   C  0.173367711E+01  0.747791159E-02 -0.406674581E-01
   H -0.102571708E+02 -0.831732173E+00  0.478762754E+00
   H  0.100497779E+02  0.574206184E+00  0.698668597E+00
     4
 # iter = 32500  time[fs]=32.50000
   C -0.187620273E+01  0.311710362E-01 -0.709686152E-01
   C  0.179877562E+01  0.710856970E-02 -0.428965015E-01
   H -0.106286487E+02 -0.861350926E+00  0.497572409E+00
   H  0.104161993E+02  0.597527012E+00  0.724257374E+00
     4
 # iter = 33000  time[fs]=33.00000
   C -0.194635640E+01  0.327102468E-01 -0.732790055E-01
   C  0.186466689E+01  0.662634742E-02 -0.452322981E-01
   H -0.110020316E+02 -0.891583949E+00  0.515965386E+00
   H  0.107837653E+02  0.620459960E+00  0.749484918E+00
     4
 # iter = 33500  time[fs]=33.50000
   C -0.201750008E+01  0.341203979E-01 -0.757415981E-01
   C  0.193118913E+01  0.593287116E-02 -0.477736406E-01
   H -0.113776943E+02 -0.922891796E+00  0.533468204E+00
   H  0.111518973E+02  0.642529338E+00  0.773873442E+00
     4
 # iter = 34000  time[fs]=34.00000
   C -0.208947565E+01  0.355006746E-01 -0.782556893E-01
   C  0.199842905E+01  0.517253224E-02 -0.503765211E-01
   H -0.117548677E+02 -0.954583338E+00  0.550760236E+00
   H  0.115211809E+02  0.664413571E+00  0.798099508E+00
     4
 # iter = 34500  time[fs]=34.50000
   C -0.216213249E+01  0.369480645E-01 -0.807229096E-01
   C  0.206647528E+01  0.448650484E-02 -0.529001176E-01
   H -0.121328056E+02 -0.985983361E+00  0.568505997E+00
   H  0.118921955E+02  0.686776342E+00  0.822825137E+00
     4
 # iter = 35000  time[fs]=35.00000
   C -0.223542363E+01  0.384605816E-01 -0.831439853E-01
   C  0.213527799E+01  0.387287616E-02 -0.553466659E-01
   H -0.125114481E+02 -0.101709646E+01  0.586691153E+00
   H  0.122648487E+02  0.709601958E+00  0.848033143E+00
     4
 # iter = 35500  time[fs]=35.50000
   C -0.230936038E+01  0.399821623E-01 -0.855738293E-01
   C  0.220471326E+01  0.325153748E-02 -0.577965718E-01
   H -0.128911125E+02 -0.104829889E+01  0.604930542E+00
   H  0.126386835E+02  0.732503646E+00  0.873335402E+00
     4
 # iter = 36000  time[fs]=36.00000
   C -0.238393247E+01  0.414821412E-01 -0.880420535E-01
   C  0.227469756E+01  0.257905082E-02 -0.602935463E-01
   H -0.132719475E+02 -0.107979326E+01  0.623013417E+00
   H  0.130134235E+02  0.755269310E+00  0.898518602E+00
     4
 # iter = 36500  time[fs]=36.50000
   C -0.245908946E+01  0.429734235E-01 -0.905347857E-01
   C  0.234521367E+01  0.187491315E-02 -0.628183435E-01
   H -0.136538079E+02 -0.111148376E+01  0.641028096E+00
   H  0.133890971E+02  0.777986288E+00  0.923668980E+00
     4
 # iter = 37000  time[fs]=37.00000
   C -0.253477397E+01  0.444789506E-01 -0.930281949E-01
   C  0.241626180E+01  0.117308608E-02 -0.653372328E-01
   H -0.140364839E+02 -0.114320623E+01  0.659131841E+00
   H  0.137658067E+02  0.800811007E+00  0.948941961E+00
     4
 # iter = 37500  time[fs]=37.50000
   C -0.261094890E+01  0.460041473E-01 -0.955160376E-01
   C  0.248781956E+01  0.482173318E-03 -0.678418233E-01
   H -0.144198901E+02 -0.117491716E+01  0.677361795E+00
   H  0.141435385E+02  0.823779733E+00  0.974372900E+00
     4
 # iter = 38000  time[fs]=38.00000
   C -0.268759414E+01  0.475399553E-01 -0.980066160E-01
   C  0.255984602E+01 -0.210192238E-03 -0.703446786E-01
   H -0.148040441E+02 -0.120667284E+01  0.695655790E+00
   H  0.145221835E+02  0.846829390E+00  0.999897886E+00
     4
 # iter = 38500  time[fs]=38.50000
   C -0.276469060E+01  0.490785553E-01 -0.100507051E+00
   C  0.263230422E+01 -0.914623116E-03 -0.728565928E-01
   H -0.151889580E+02 -0.123852145E+01  0.713960210E+00
   H  0.149016446E+02  0.869905519E+00  0.102546170E+01
     4
 # iter = 39000  time[fs]=39.00000
   C -0.284221339E+01  0.506199660E-01 -0.103016676E+00
   C  0.270517050E+01 -0.163043750E-02 -0.753770519E-01
   H -0.155745936E+02 -0.127045772E+01  0.732275257E+00
   H  0.152818817E+02  0.893007585E+00  0.105106311E+01
     4
 # iter = 39500  time[fs]=39.50000
   C -0.292013605E+01  0.521676699E-01 -0.105531408E+00
   C  0.277842801E+01 -0.235198074E-02 -0.779005566E-01
   H -0.159608912E+02 -0.130245296E+01  0.750624928E+00
   H  0.156628815E+02  0.916158920E+00  0.107672479E+01
     4
 # iter = 40000  time[fs]=40.00000
   C -0.299843572E+01  0.537232053E-01 -0.108049152E+00
   C  0.285205870E+01 -0.307644010E-02 -0.804244383E-01
   H -0.163478071E+02 -0.133449213E+01  0.769019904E+00
   H  0.160446199E+02  0.939369569E+00  0.110245621E+01
     4
 # iter = 40500  time[fs]=40.50000
   C -0.307709367E+01  0.552855232E-01 -0.110570438E+00
   C  0.292604225E+01 -0.380477272E-02 -0.829497877E-01
   H -0.167353176E+02 -0.136657820E+01  0.787453128E+00
   H  0.164270576E+02  0.962631866E+00  0.112824915E+01
     4
 # iter = 41000  time[fs]=41.00000
   C -0.315609299E+01  0.568531779E-01 -0.113096227E+00
   C  0.300035913E+01 -0.453853761E-02 -0.854782882E-01
   H -0.171234036E+02 -0.139871713E+01  0.805914837E+00
   H  0.168101546E+02  0.985935472E+00  0.115409276E+01
     4
 # iter = 41500  time[fs]=41.50000
   C -0.323541704E+01  0.584256975E-01 -0.115626540E+00
   C  0.307499242E+01 -0.527791305E-02 -0.880102336E-01
   H -0.175120414E+02 -0.143090843E+01  0.824401960E+00
   H  0.171938796E+02  0.100927678E+01  0.117998297E+01
     4
 # iter = 42000  time[fs]=42.00000
   C -0.331504970E+01  0.600032746E-01 -0.118160763E+00
   C  0.314992730E+01 -0.602214274E-02 -0.905449753E-01
   H -0.179012043E+02 -0.146314728E+01  0.842915990E+00
   H  0.175782077E+02  0.103265679E+01  0.120592034E+01
     4
 # iter = 42500  time[fs]=42.50000
   C -0.339497601E+01  0.615860162E-01 -0.120698394E+00
   C  0.322514982E+01 -0.677061788E-02 -0.930820049E-01
   H -0.182908678E+02 -0.149542963E+01  0.861457839E+00
   H  0.179631151E+02  0.105607594E+01  0.123190491E+01
     4
 # iter = 43000  time[fs]=43.00000
   C -0.347518229E+01  0.631737176E-01 -0.123239268E+00
   C  0.330064654E+01 -0.752320295E-02 -0.956212806E-01
   H -0.186810112E+02 -0.152775378E+01  0.880026282E+00
   H  0.183485775E+02  0.107953257E+01  0.125793462E+01
     4
 # iter = 43500  time[fs]=43.50000
   C -0.355565586E+01  0.647660699E-01 -0.125783346E+00
   C  0.337640472E+01 -0.827993489E-02 -0.981629269E-01
   H -0.190716155E+02 -0.156011890E+01  0.898619379E+00
   H  0.187345710E+02  0.110302430E+01  0.128400678E+01
     4
 # iter = 44000  time[fs]=44.00000
   C -0.363638480E+01  0.663628490E-01 -0.128330527E+00
   C  0.345241253E+01 -0.904074754E-02 -0.100706960E+00
   H -0.194626626E+02 -0.159252375E+01  0.917235774E+00
   H  0.191210739E+02  0.112654940E+01  0.131011929E+01
     4
 # iter = 44500  time[fs]=44.50000
   C -0.371735784E+01  0.679639207E-01 -0.130880639E+00
   C  0.352865900E+01 -0.980546455E-02 -0.103253279E+00
   H -0.198541348E+02 -0.162496662E+01  0.935874725E+00
   H  0.195080661E+02  0.115010674E+01  0.133627073E+01
     4
 # iter = 45000  time[fs]=45.00000
   C -0.379856440E+01  0.695691661E-01 -0.133433512E+00
   C  0.360513384E+01 -0.105739049E-01 -0.105801777E+00
   H -0.202460155E+02 -0.165744585E+01  0.954535594E+00
   H  0.198955287E+02  0.117369534E+01  0.136245982E+01
     4
 # iter = 45500  time[fs]=45.50000
   C -0.387999458E+01  0.711784465E-01 -0.135989012E+00
   C  0.368182737E+01 -0.113459334E-01 -0.108352385E+00
   H -0.206382889E+02 -0.168996003E+01  0.973217602E+00
   H  0.202834440E+02  0.119731407E+01  0.138868519E+01
     4
 # iter = 46000  time[fs]=46.00000
   C -0.396163907E+01  0.727916148E-01 -0.138547031E+00
   C  0.375873044E+01 -0.121214427E-01 -0.110905060E+00
   H -0.210309406E+02 -0.172250793E+01  0.991919913E+00
   H  0.206717948E+02  0.122096180E+01  0.141494542E+01
     4
 # iter = 46500  time[fs]=46.50000
   C -0.404348910E+01  0.744085336E-01 -0.141107463E+00
   C  0.383583445E+01 -0.129003267E-01 -0.113459754E+00
   H -0.214239566E+02 -0.175508837E+01  0.101064175E+01
   H  0.210605650E+02  0.124463743E+01  0.144123919E+01
     4
 # iter = 47000  time[fs]=47.00000
   C -0.412553641E+01  0.760290784E-01 -0.143670203E+00
   C  0.391313131E+01 -0.136824747E-01 -0.116016414E+00
   H -0.218173239E+02 -0.178770021E+01  0.102938242E+01
   H  0.214497395E+02  0.126833999E+01  0.146756530E+01
     4
 # iter = 47500  time[fs]=47.50000
   C -0.420777320E+01  0.776531326E-01 -0.146235152E+00
   C  0.399061340E+01 -0.144677780E-01 -0.118574985E+00
   H -0.222110298E+02 -0.182034232E+01  0.104814129E+01
   H  0.218393038E+02  0.129206857E+01  0.149392264E+01
     4
 # iter = 48000  time[fs]=48.00000
   C -0.429019213E+01  0.792805835E-01 -0.148802217E+00
   C  0.406827350E+01 -0.152561349E-01 -0.121135413E+00
   H -0.226050626E+02 -0.185301365E+01  0.106691774E+01
   H  0.222292444E+02  0.131582230E+01  0.152031012E+01
     4
 # iter = 48500  time[fs]=48.50000
   C -0.437278622E+01  0.809113223E-01 -0.151371311E+00
   C  0.414610481E+01 -0.160474499E-01 -0.123697652E+00
   H -0.229994111E+02 -0.188571323E+01  0.108571118E+01
   H  0.226195482E+02  0.133960033E+01  0.154672672E+01
     4
 # iter = 49000  time[fs]=49.00000
   C -0.445554890E+01  0.825452449E-01 -0.153942355E+00
   C  0.422410089E+01 -0.168416320E-01 -0.126261654E+00
   H -0.233940646E+02 -0.191844012E+01  0.110452103E+01
   H  0.230102030E+02  0.136340186E+01  0.157317145E+01
     4
 # iter = 49500  time[fs]=49.50000
   C -0.453847395E+01  0.841822523E-01 -0.156515272E+00
   C  0.430225563E+01 -0.176385936E-01 -0.128827374E+00
   H -0.237890130E+02 -0.195119342E+01  0.112334676E+01
   H  0.234011970E+02  0.138722614E+01  0.159964338E+01
     4
 # iter = 50000  time[fs]=50.00000
   C -0.462155547E+01  0.858222499E-01 -0.159089990E+00
   C  0.438056326E+01 -0.184382504E-01 -0.131394768E+00
   H -0.241842467E+02 -0.198397227E+01  0.114218786E+01
   H  0.237925192E+02  0.141107243E+01  0.162614164E+01
     4
 # iter = 50500  time[fs]=50.50000
   C -0.470478785E+01  0.874651475E-01 -0.161666441E+00
   C  0.445901829E+01 -0.192405219E-01 -0.133963793E+00
   H -0.245797564E+02 -0.201677588E+01  0.116104384E+01
   H  0.241841589E+02  0.143494005E+01  0.165266538E+01
     4
 # iter = 51000  time[fs]=51.00000
   C -0.478816578E+01  0.891108583E-01 -0.164244560E+00
   C  0.453761554E+01 -0.200453311E-01 -0.136534408E+00
   H -0.249755334E+02 -0.204960347E+01  0.117991425E+01
   H  0.245761061E+02  0.145882834E+01  0.167921380E+01
     4
 # iter = 51500  time[fs]=51.50000
   C -0.487168422E+01  0.907592995E-01 -0.166824286E+00
   C  0.461635007E+01 -0.208526042E-01 -0.139106574E+00
   H -0.253715694E+02 -0.208245429E+01  0.119879863E+01
   H  0.249683510E+02  0.148273668E+01  0.170578613E+01
     4
 # iter = 52000  time[fs]=52.00000
   C -0.495533838E+01  0.924103914E-01 -0.169405563E+00
   C  0.469521716E+01 -0.216622703E-01 -0.141680250E+00
   H -0.257678563E+02 -0.211532765E+01  0.121769658E+01
   H  0.253608846E+02  0.150666445E+01  0.173238165E+01
     4
 # iter = 52500  time[fs]=52.50000
   C -0.503912368E+01  0.940640581E-01 -0.171988334E+00
   C  0.477421238E+01 -0.224742616E-01 -0.144255402E+00
   H -0.261643867E+02 -0.214822288E+01  0.123660767E+01
   H  0.257536979E+02  0.153061110E+01  0.175899965E+01
     4
 # iter = 53000  time[fs]=53.00000
   C -0.512303580E+01  0.957202264E-01 -0.174572549E+00
   C  0.485333145E+01 -0.232885129E-01 -0.146831992E+00
   H -0.265611531E+02 -0.218113932E+01  0.125553152E+01
   H  0.261467828E+02  0.155457606E+01  0.178563947E+01
     4
 # iter = 53500  time[fs]=53.50000
   C -0.520707058E+01  0.973788262E-01 -0.177158159E+00
   C  0.493257034E+01 -0.241049615E-01 -0.149409985E+00
   H -0.269581487E+02 -0.221407636E+01  0.127446778E+01
   H  0.265401310E+02  0.157855881E+01  0.181230047E+01
     4
 # iter = 54000  time[fs]=54.00000
   C -0.529122409E+01  0.990397904E-01 -0.179745116E+00
   C  0.501192519E+01 -0.249235475E-01 -0.151989349E+00
   H -0.273553668E+02 -0.224703341E+01  0.129341607E+01
   H  0.269337350E+02  0.160255885E+01  0.183898204E+01
     4
 # iter = 54500  time[fs]=54.50000
   C -0.537549255E+01  0.100703054E+00 -0.182333376E+00
   C  0.509139230E+01 -0.257442129E-01 -0.154570050E+00
   H -0.277528011E+02 -0.228000991E+01  0.131237607E+01
   H  0.273275874E+02  0.162657570E+01  0.186568360E+01
     4
 # iter = 55000  time[fs]=55.00000
   C -0.545987239E+01  0.102368556E+00 -0.184922897E+00
   C  0.517096818E+01 -0.265669023E-01 -0.157152056E+00
   H -0.281504453E+02 -0.231300532E+01  0.133134744E+01
   H  0.277216811E+02  0.165060889E+01  0.189240458E+01
     4
 # iter = 55500  time[fs]=55.50000
   C -0.554436017E+01  0.104036235E+00 -0.187513638E+00
   C  0.525064945E+01 -0.273915623E-01 -0.159735339E+00
   H -0.285482938E+02 -0.234601911E+01  0.135032988E+01
   H  0.281160095E+02  0.167465797E+01  0.191914444E+01
     4
 # iter = 56000  time[fs]=56.00000
   C -0.562895260E+01  0.105706035E+00 -0.190105562E+00
   C  0.533043292E+01 -0.282181415E-01 -0.162319867E+00
   H -0.289463408E+02 -0.237905079E+01  0.136932308E+01
   H  0.285105659E+02  0.169872253E+01  0.194590268E+01
     4
 # iter = 56500  time[fs]=56.50000
   C -0.571364656E+01  0.107377901E+00 -0.192698631E+00
   C  0.541031552E+01 -0.290465903E-01 -0.164905613E+00
   H -0.293445809E+02 -0.241209988E+01  0.138832676E+01
   H  0.289053444E+02  0.172280214E+01  0.197267879E+01
     4
 # iter = 57000  time[fs]=57.00000
   C -0.579843903E+01  0.109051779E+00 -0.195292810E+00
   C  0.549029431E+01 -0.298768611E-01 -0.167492548E+00
   H -0.297430091E+02 -0.244516592E+01  0.140734064E+01
   H  0.293003388E+02  0.174689643E+01  0.199947231E+01
     4
 # iter = 57500  time[fs]=57.50000
   C -0.588332716E+01  0.110727617E+00 -0.197888067E+00
   C  0.557036647E+01 -0.307089081E-01 -0.170080646E+00
   H -0.301416203E+02 -0.247824847E+01  0.142636446E+01
   H  0.296955434E+02  0.177100500E+01  0.202628276E+01
     4
 # iter = 58000  time[fs]=58.00000
   C -0.596830818E+01  0.112405368E+00 -0.200484369E+00
   C  0.565052933E+01 -0.315426870E-01 -0.172669882E+00
   H -0.305404098E+02 -0.251134710E+01  0.144539796E+01
   H  0.300909527E+02  0.179512750E+01  0.205310973E+01
     4
 # iter = 58500  time[fs]=58.50000
   C -0.605337945E+01  0.114084983E+00 -0.203081685E+00
   C  0.573078029E+01 -0.323781552E-01 -0.175260229E+00
   H -0.309393729E+02 -0.254446141E+01  0.146444090E+01
   H  0.304865615E+02  0.181926356E+01  0.207995277E+01
     4
 # iter = 59000  time[fs]=59.00000
   C -0.613853845E+01  0.115766417E+00 -0.205679987E+00
   C  0.581111688E+01 -0.332152715E-01 -0.177851664E+00
   H -0.313385052E+02 -0.257759099E+01  0.148349303E+01
   H  0.308823647E+02  0.184341287E+01  0.210681149E+01
     4
 # iter = 59500  time[fs]=59.50000
   C -0.622378274E+01  0.117449625E+00 -0.208279246E+00
   C  0.589153672E+01 -0.340539961E-01 -0.180444163E+00
   H -0.317378026E+02 -0.261073548E+01  0.150255414E+01
   H  0.312783573E+02  0.186757508E+01  0.213368550E+01
     4
 # iter = 60000  time[fs]=60.00000
   C -0.630911000E+01  0.119134564E+00 -0.210879435E+00
   C  0.597203755E+01 -0.348942909E-01 -0.183037702E+00
   H -0.321372608E+02 -0.264389450E+01  0.152162400E+01
   H  0.316745346E+02  0.189174989E+01  0.216057441E+01
     4
 # iter = 60500  time[fs]=60.50000
   C -0.639451798E+01  0.120821195E+00 -0.213480530E+00
   C  0.605261716E+01 -0.357361188E-01 -0.185632261E+00
   H -0.325368759E+02 -0.267706770E+01  0.154070239E+01
   H  0.320708921E+02  0.191593699E+01  0.218747787E+01
     4
 # iter = 61000  time[fs]=61.00000
   C -0.648000453E+01  0.122509476E+00 -0.216082504E+00
   C  0.613327346E+01 -0.365794441E-01 -0.188227817E+00
   H -0.329366442E+02 -0.271025475E+01  0.155978913E+01
   H  0.324674253E+02  0.194013610E+01  0.221439552E+01
     4
 # iter = 61500  time[fs]=61.50000
   C -0.656556758E+01  0.124199370E+00 -0.218685335E+00
   C  0.621400441E+01 -0.374242322E-01 -0.190824349E+00
   H -0.333365619E+02 -0.274345532E+01  0.157888400E+01
   H  0.328641302E+02  0.196434692E+01  0.224132702E+01
     4
 # iter = 62000  time[fs]=62.00000
   C -0.665120514E+01  0.125890839E+00 -0.221289000E+00
   C  0.629480808E+01 -0.382704497E-01 -0.193421838E+00
   H -0.337366256E+02 -0.277666909E+01  0.159798682E+01
   H  0.332610025E+02  0.198856919E+01  0.226827206E+01
     4
 # iter = 62500  time[fs]=62.50000
   C -0.673691530E+01  0.127583848E+00 -0.223893476E+00
   C  0.637568259E+01 -0.391180644E-01 -0.196020263E+00
   H -0.341368317E+02 -0.280989575E+01  0.161709741E+01
   H  0.336580383E+02  0.201280265E+01  0.229523031E+01
     4
 # iter = 63000  time[fs]=63.00000
   C -0.682269621E+01  0.129278362E+00 -0.226498743E+00
   C  0.645662614E+01 -0.399670452E-01 -0.198619605E+00
   H -0.345371770E+02 -0.284313502E+01  0.163621558E+01
   H  0.340552339E+02  0.203704704E+01  0.232220147E+01
     4
 # iter = 63500  time[fs]=63.50000
   C -0.690854610E+01  0.130974347E+00 -0.229104781E+00
   C  0.653763699E+01 -0.408173616E-01 -0.201219847E+00
   H -0.349376584E+02 -0.287638660E+01  0.165534117E+01
   H  0.344525856E+02  0.206130212E+01  0.234918525E+01
     4
 # iter = 64000  time[fs]=64.00000
   C -0.699446324E+01  0.132671772E+00 -0.231711570E+00
   C  0.661871347E+01 -0.416689846E-01 -0.203820969E+00
   H -0.353382726E+02 -0.290965022E+01  0.167447402E+01
   H  0.348500898E+02  0.208556765E+01  0.237618136E+01
     4
 # iter = 64500  time[fs]=64.50000
   C -0.708044600E+01  0.134370604E+00 -0.234319092E+00
   C  0.669985396E+01 -0.425218858E-01 -0.206422955E+00
   H -0.357390168E+02 -0.294292561E+01  0.169361395E+01
   H  0.352477431E+02  0.210984340E+01  0.240318953E+01
     4
 # iter = 65000  time[fs]=65.00000
   C -0.716649278E+01  0.136070814E+00 -0.236927328E+00
   C  0.678105692E+01 -0.433760378E-01 -0.209025787E+00
   H -0.361398881E+02 -0.297621252E+01  0.171276082E+01
   H  0.356455421E+02  0.213412915E+01  0.243020949E+01
     4
 # iter = 65500  time[fs]=65.50000
   C -0.725260204E+01  0.137772371E+00 -0.239536260E+00
   C  0.686232083E+01 -0.442314141E-01 -0.211629449E+00
   H -0.365408836E+02 -0.300951070E+01  0.173191448E+01
   H  0.360434838E+02  0.215842468E+01  0.245724099E+01
     4
 # iter = 66000  time[fs]=66.00000
   C -0.733877231E+01  0.139475248E+00 -0.242145873E+00
   C  0.694364425E+01 -0.450879888E-01 -0.214233925E+00
   H -0.369420008E+02 -0.304281991E+01  0.175107478E+01
   H  0.364415649E+02  0.218272978E+01  0.248428378E+01
     4
 # iter = 66500  time[fs]=66.50000
   C -0.742500214E+01  0.141179416E+00 -0.244756151E+00
   C  0.702502579E+01 -0.459457371E-01 -0.216839200E+00
   H -0.373432369E+02 -0.307613991E+01  0.177024158E+01
   H  0.368397825E+02  0.220704426E+01  0.251133762E+01
     4
 # iter = 67000  time[fs]=67.00000
   C -0.751129016E+01  0.142884850E+00 -0.247367076E+00
   C  0.710646409E+01 -0.468046347E-01 -0.219445257E+00
   H -0.377445895E+02 -0.310947047E+01  0.178941474E+01
   H  0.372381337E+02  0.223136792E+01  0.253840227E+01
     4
 # iter = 67500  time[fs]=67.50000
   C -0.759763504E+01  0.144591522E+00 -0.249978635E+00
   C  0.718795784E+01 -0.476646582E-01 -0.222052083E+00
   H -0.381460560E+02 -0.314281138E+01  0.180859414E+01
   H  0.376366156E+02  0.225570057E+01  0.256547750E+01
     4
 # iter = 68000  time[fs]=68.00000
   C -0.768403547E+01  0.146299408E+00 -0.252590813E+00
   C  0.726950579E+01 -0.485257848E-01 -0.224659662E+00
   H -0.385476342E+02 -0.317616242E+01  0.182777964E+01
   H  0.380352255E+02  0.228004202E+01  0.259256311E+01
     4
 # iter = 68500  time[fs]=68.50000
   C -0.777049022E+01  0.148008484E+00 -0.255203596E+00
   C  0.735110672E+01 -0.493879924E-01 -0.227267982E+00
   H -0.389493217E+02 -0.320952339E+01  0.184697112E+01
   H  0.384339608E+02  0.230439211E+01  0.261965888E+01
     4
 # iter = 69000  time[fs]=69.00000
   C -0.785699807E+01  0.149718725E+00 -0.257816970E+00
   C  0.743275944E+01 -0.502512595E-01 -0.229877028E+00
   H -0.393511163E+02 -0.324289409E+01  0.186616846E+01
   H  0.388328189E+02  0.232875064E+01  0.264676459E+01
     4
 # iter = 69500  time[fs]=69.50000
   C -0.794355785E+01  0.151430108E+00 -0.260430922E+00
   C  0.751446281E+01 -0.511155654E-01 -0.232486787E+00
   H -0.397530159E+02 -0.327627432E+01  0.188537154E+01
   H  0.392317973E+02  0.235311747E+01  0.267388006E+01
     4
 # iter = 70000  time[fs]=70.00000
   C -0.803016844E+01  0.153142612E+00 -0.263045439E+00
   C  0.759621573E+01 -0.519808897E-01 -0.235097246E+00
   H -0.401550182E+02 -0.330966390E+01  0.190458026E+01
   H  0.396308936E+02  0.237749242E+01  0.270100509E+01
     4
 # iter = 70500  time[fs]=70.50000
   C -0.811682874E+01  0.154856214E+00 -0.265660510E+00
   C  0.767801713E+01 -0.528472129E-01 -0.237708394E+00
   H -0.405571214E+02 -0.334306263E+01  0.192379449E+01
   H  0.400301055E+02  0.240187534E+01  0.272813948E+01
     4
 # iter = 71000  time[fs]=71.00000
   C -0.820353768E+01  0.156570893E+00 -0.268276121E+00
   C  0.775986597E+01 -0.537145157E-01 -0.240320216E+00
   H -0.409593234E+02 -0.337647036E+01  0.194301414E+01
   H  0.404294307E+02  0.242626607E+01  0.275528306E+01
     4
 # iter = 71500  time[fs]=71.50000
   C -0.829029424E+01  0.158286629E+00 -0.270892263E+00
   C  0.784176125E+01 -0.545827798E-01 -0.242932702E+00
   H -0.413616223E+02 -0.340988689E+01  0.196223910E+01
   H  0.408288669E+02  0.245066447E+01  0.278243566E+01
     4
 # iter = 72000  time[fs]=72.00000
   C -0.837709743E+01  0.160003402E+00 -0.273508923E+00
   C  0.792370199E+01 -0.554519869E-01 -0.245545840E+00
   H -0.417640162E+02 -0.344331207E+01  0.198146926E+01
   H  0.412284121E+02  0.247507038E+01  0.280959709E+01
     4
 # iter = 72500  time[fs]=72.50000
   C -0.846394627E+01  0.161721193E+00 -0.276126091E+00
   C  0.800568725E+01 -0.563221196E-01 -0.248159619E+00
   H -0.421665034E+02 -0.347674574E+01  0.200070454E+01
   H  0.416280641E+02  0.249948368E+01  0.283676719E+01
     4
 # iter = 73000  time[fs]=73.00000
   C -0.855083983E+01  0.163439982E+00 -0.278743756E+00
   C  0.808771612E+01 -0.571931607E-01 -0.250774027E+00
   H -0.425690820E+02 -0.351018772E+01  0.201994483E+01
   H  0.420278210E+02  0.252390422E+01  0.286394580E+01
     4
 # iter = 73500  time[fs]=73.50000
   C -0.863777720E+01  0.165159751E+00 -0.281361908E+00
   C  0.816978770E+01 -0.580650936E-01 -0.253389055E+00
   H -0.429717504E+02 -0.354363788E+01  0.203919005E+01
   H  0.424276807E+02  0.254833186E+01  0.289113276E+01
     4
 # iter = 74000  time[fs]=74.00000
   C -0.872475750E+01  0.166880482E+00 -0.283980538E+00
   C  0.825190115E+01 -0.589379022E-01 -0.256004690E+00
   H -0.433745068E+02 -0.357709605E+01  0.205844009E+01
   H  0.428276413E+02  0.257276649E+01  0.291832791E+01
     4
 # iter = 74500  time[fs]=74.50000
   C -0.881177988E+01  0.168602159E+00 -0.286599636E+00
   C  0.833405561E+01 -0.598115707E-01 -0.258620924E+00
   H -0.437773497E+02 -0.361056210E+01  0.207769488E+01
   H  0.432277011E+02  0.259720797E+01  0.294553111E+01
     4
 # iter = 75000  time[fs]=75.00000
   C -0.889884349E+01  0.170324763E+00 -0.289219191E+00
   C  0.841625029E+01 -0.606860838E-01 -0.261237746E+00
   H -0.441802775E+02 -0.364403588E+01  0.209695433E+01
   H  0.436278581E+02  0.262165618E+01  0.297274221E+01
     4
 # iter = 75500  time[fs]=75.50000
   C -0.898594754E+01  0.172048279E+00 -0.291839197E+00
   C  0.849848438E+01 -0.615614266E-01 -0.263855146E+00
   H -0.445832887E+02 -0.367751725E+01  0.211621836E+01
   H  0.440281106E+02  0.264611100E+01  0.299996107E+01
     4
 # iter = 76000  time[fs]=76.00000
   C -0.907309124E+01  0.173772691E+00 -0.294459643E+00
   C  0.858075714E+01 -0.624375845E-01 -0.266473115E+00
   H -0.449863818E+02 -0.371100609E+01  0.213548688E+01
   H  0.444284570E+02  0.267057232E+01  0.302718754E+01
     4
 # iter = 76500  time[fs]=76.50000
   C -0.916027383E+01  0.175497982E+00 -0.297080522E+00
   C  0.866306780E+01 -0.633145433E-01 -0.269091643E+00
   H -0.453895552E+02 -0.374450225E+01  0.215475982E+01
   H  0.448288954E+02  0.269504002E+01  0.305442151E+01
     4
 # iter = 77000  time[fs]=77.00000
   C -0.924749457E+01  0.177224138E+00 -0.299701824E+00
   C  0.874541566E+01 -0.641922892E-01 -0.271710723E+00
   H -0.457928077E+02 -0.377800561E+01  0.217403710E+01
   H  0.452294244E+02  0.271951398E+01  0.308166283E+01
     4
 # iter = 77500  time[fs]=77.50000
   C -0.933475273E+01  0.178951144E+00 -0.302323543E+00
   C  0.882780000E+01 -0.650708089E-01 -0.274330344E+00
   H -0.461961377E+02 -0.381151606E+01  0.219331865E+01
   H  0.456300423E+02  0.274399412E+01  0.310891138E+01
     4
 # iter = 78000  time[fs]=78.00000
   C -0.942204762E+01  0.180678985E+00 -0.304945669E+00
   C  0.891022014E+01 -0.659500891E-01 -0.276950498E+00
   H -0.465995441E+02 -0.384503346E+01  0.221260439E+01
   H  0.460307475E+02  0.276848031E+01  0.313616703E+01
     4
 # iter = 78500  time[fs]=78.50000
   C -0.950937857E+01  0.182407648E+00 -0.307568197E+00
   C  0.899267543E+01 -0.668301170E-01 -0.279571176E+00
   H -0.470030254E+02 -0.387855769E+01  0.223189424E+01
   H  0.464315387E+02  0.279297246E+01  0.316342966E+01
     4
 # iter = 79000  time[fs]=79.00000
   C -0.959674489E+01  0.184137118E+00 -0.310191118E+00
   C  0.907516520E+01 -0.677108803E-01 -0.282192371E+00
   H -0.474065805E+02 -0.391208865E+01  0.225118815E+01
   H  0.468324142E+02  0.281747046E+01  0.319069916E+01
     4
 # iter = 79500  time[fs]=79.50000
   C -0.968414596E+01  0.185867382E+00 -0.312814425E+00
   C  0.915768884E+01 -0.685923667E-01 -0.284814075E+00
   H -0.478102079E+02 -0.394562622E+01  0.227048605E+01
   H  0.472333727E+02  0.284197423E+01  0.321797541E+01
     4
 # iter = 80000  time[fs]=80.00000
   C -0.977158114E+01  0.187598427E+00 -0.315438111E+00
   C  0.924024573E+01 -0.694745643E-01 -0.287436279E+00
   H -0.482139067E+02 -0.397917030E+01  0.228978786E+01
   H  0.476344128E+02  0.286648366E+01  0.324525829E+01
