     4
 # iter = 25000  time[fs]=25.00000
   C -0.962581461E+00 -0.705490252E-01  0.127965868E-01
   C  0.994851793E+00  0.557989720E-01  0.174733452E-02
   H -0.524497948E+01  0.517930588E+00  0.281496413E+00
   H  0.532563985E+01  0.716970666E-01 -0.461795895E+00
     4
 # iter = 25500  time[fs]=25.50000
   C -0.100774349E+01 -0.763032019E-01  0.116159772E-01
   C  0.103581315E+01  0.557929053E-01  0.225080515E-02
   H -0.558292957E+01  0.543990457E+00  0.292060144E+00
   H  0.563446034E+01  0.654209727E-01 -0.498355537E+00
     4
 # iter = 26000  time[fs]=26.00000
   C -0.105690531E+01 -0.832528888E-01  0.949559980E-02
   C  0.107882494E+01  0.549885943E-01  0.177194228E-02
   H -0.593166786E+01  0.565245784E+00  0.297523860E+00
   H  0.594335587E+01  0.537692510E-01 -0.540855172E+00
     4
 # iter = 26500  time[fs]=26.50000
   C -0.110699435E+01 -0.885530752E-01  0.925532194E-02
   C  0.112659279E+01  0.563297397E-01  0.327185677E-02
   H -0.627449176E+01  0.597707059E+00  0.313932354E+00
   H  0.626784854E+01  0.528294589E-01 -0.573148747E+00
     4
 # iter = 27000  time[fs]=27.00000
   C -0.115763550E+01 -0.920442813E-01  0.110320840E-01
   C  0.117902692E+01  0.599478885E-01  0.689798032E-02
   H -0.661009247E+01  0.642113269E+00  0.342052542E+00
   H  0.660822909E+01  0.633941284E-01 -0.594391802E+00
     4
 # iter = 27500  time[fs]=27.50000
   C -0.121070965E+01 -0.958089049E-01  0.127233567E-01
   C  0.123370807E+01  0.636274242E-01  0.104490603E-01
   H -0.695000821E+01  0.686453671E+00  0.369896620E+00
   H  0.695207462E+01  0.734871492E-01 -0.616514179E+00
     4
 # iter = 28000  time[fs]=28.00000
   C -0.126750174E+01 -0.101316848E+00  0.128413012E-01
   C  0.128887880E+01  0.657977880E-01  0.123675093E-01
   H -0.730233614E+01  0.722223099E+00  0.388979169E+00
   H  0.729052612E+01  0.746346485E-01 -0.647949908E+00
     4
 # iter = 28500  time[fs]=28.50000
   C -0.132722883E+01 -0.107953134E+00  0.119849368E-01
   C  0.134498605E+01  0.670768886E-01  0.132829284E-01
   H -0.766332777E+01  0.752807807E+00  0.402703997E+00
   H  0.762668026E+01  0.702590333E-01 -0.685242951E+00
     4
 # iter = 29000  time[fs]=29.00000
   C -0.138825264E+01 -0.114231609E+00  0.116262310E-01
   C  0.140340812E+01  0.689985023E-01  0.147395788E-01
   H -0.802430154E+01  0.786569614E+00  0.419448435E+00
   H  0.796865475E+01  0.687581552E-01 -0.719966566E+00
     4
 # iter = 29500  time[fs]=29.50000
   C -0.144991451E+01 -0.119631711E+00  0.122731398E-01
   C  0.146452835E+01  0.720864461E-01  0.172706294E-01
   H -0.838210873E+01  0.826379684E+00  0.442097090E+00
   H  0.831910026E+01  0.730311241E-01 -0.749196022E+00
     4
 # iter = 30000  time[fs]=30.00000
   C -0.151279181E+01 -0.124856013E+00  0.132118770E-01
   C  0.152746370E+01  0.755843566E-01  0.201280417E-01
   H -0.874059716E+01  0.868149839E+00  0.466573408E+00
   H  0.867372480E+01  0.790089988E-01 -0.776977237E+00
     4
 # iter = 30500  time[fs]=30.50000
   C -0.157755741E+01 -0.130690517E+00  0.136464597E-01
   C  0.159125808E+01  0.786503472E-01  0.224773501E-01
   H -0.910410982E+01  0.907325617E+00  0.488333154E+00
   H  0.902779163E+01  0.821535551E-01 -0.807827937E+00
     4
 # iter = 31000  time[fs]=31.00000
   C -0.164411176E+01 -0.137137659E+00  0.135655532E-01
   C  0.165578970E+01  0.812657644E-01  0.243065298E-01
   H -0.947253907E+01  0.943825551E+00  0.507304032E+00
   H  0.938106175E+01  0.824009285E-01 -0.841793917E+00
     4
 # iter = 31500  time[fs]=31.50000
   C -0.171183619E+01 -0.143670658E+00  0.134879911E-01
   C  0.172150316E+01  0.839683445E-01  0.261592437E-01
   H -0.984277414E+01  0.980590688E+00  0.526435342E+00
   H  0.973633929E+01  0.827102981E-01 -0.875900002E+00
     4
 # iter = 32000  time[fs]=32.00000
   C -0.178031889E+01 -0.149960702E+00  0.137354750E-01
   C  0.178864600E+01  0.870896647E-01  0.283723678E-01
   H -0.102128446E+02  0.101943973E+01  0.547553183E+00
   H  0.100953196E+02  0.849159987E-01 -0.908297514E+00
     4
 # iter = 32500  time[fs]=32.50000
   C -0.184961466E+01 -0.156137692E+00  0.141717307E-01
   C  0.185699419E+01  0.904816315E-01  0.308025498E-01
   H -0.105834051E+02  0.105958251E+01  0.569873983E+00
   H  0.104570989E+02  0.882400062E-01 -0.939751499E+00
     4
 # iter = 33000  time[fs]=33.00000
   C -0.191993081E+01 -0.162476930E+00  0.145157311E-01
   C  0.192617968E+01  0.938448279E-01  0.331546235E-01
   H -0.109559480E+02  0.109940498E+01  0.591789668E+00
   H  0.108199596E+02  0.910785604E-01 -0.971853966E+00
     4
 # iter = 33500  time[fs]=33.50000
   C -0.199128278E+01 -0.169055429E+00  0.146853069E-01
   C  0.199604975E+01  0.970887222E-01  0.353418772E-01
   H -0.113308429E+02  0.113842748E+01  0.612825951E+00
   H  0.111833294E+02  0.929620416E-01 -0.100506391E+01
     4
 # iter = 34000  time[fs]=34.00000
   C -0.206348995E+01 -0.175748432E+00  0.148005648E-01
   C  0.206666987E+01  0.100335214E+00  0.374896508E-01
   H -0.117073157E+02  0.117732400E+01  0.633661738E+00
   H  0.115477991E+02  0.945744570E-01 -0.103868772E+01
     4
 # iter = 34500  time[fs]=34.50000
   C -0.213637992E+01 -0.182434280E+00  0.149789597E-01
   C  0.213810821E+01  0.103703751E+00  0.397204953E-01
   H -0.120846161E+02  0.121675416E+01  0.654961126E+00
   H  0.119139530E+02  0.965845871E-01 -0.107204785E+01
     4
 # iter = 35000  time[fs]=35.00000
   C -0.220990440E+01 -0.189110886E+00  0.152187661E-01
   C  0.221031291E+01  0.107189128E+00  0.420320093E-01
   H -0.124626800E+02  0.125669898E+01  0.676709241E+00
   H  0.122817026E+02  0.989813664E-01 -0.110514739E+01
     4
 # iter = 35500  time[fs]=35.50000
   C -0.228408464E+01 -0.195841641E+00  0.154531321E-01
   C  0.228316822E+01  0.110718130E+00  0.443535177E-01
   H -0.128418216E+02  0.129676899E+01  0.698520329E+00
   H  0.126505945E+02  0.101382247E+00 -0.113836155E+01
     4
 # iter = 36000  time[fs]=36.00000
   C -0.235891532E+01 -0.202659685E+00  0.156457688E-01
   C  0.235659440E+01  0.114249833E+00  0.466463997E-01
   H -0.132221863E+02  0.133674949E+01  0.720183137E+00
   H  0.130203558E+02  0.103579028E+00 -0.117189183E+01
     4
 # iter = 36500  time[fs]=36.50000
   C -0.243434221E+01 -0.209545993E+00  0.158128286E-01
   C  0.243057019E+01  0.117798515E+00  0.489270302E-01
   H -0.136036257E+02  0.137672525E+01  0.741785582E+00
   H  0.133910178E+02  0.105662657E+00 -0.120564111E+01
     4
 # iter = 37000  time[fs]=37.00000
   C -0.251030224E+01 -0.216469725E+00  0.159825255E-01
   C  0.250509019E+01  0.121391306E+00  0.512244461E-01
   H -0.139859275E+02  0.141685025E+01  0.763484572E+00
   H  0.137626852E+02  0.107792895E+00 -0.123944394E+01
     4
 # iter = 37500  time[fs]=37.50000
   C -0.258675629E+01 -0.223421378E+00  0.161619586E-01
   C  0.258012970E+01  0.125033381E+00  0.535455652E-01
   H -0.143690037E+02  0.145715859E+01  0.785316896E+00
   H  0.141353469E+02  0.110009089E+00 -0.127325573E+01
     4
 # iter = 38000  time[fs]=38.00000
   C -0.266368532E+01 -0.230409111E+00  0.163407652E-01
   C  0.265564830E+01  0.128711777E+00  0.558790167E-01
   H -0.147528695E+02  0.149758525E+01  0.807220033E+00
   H  0.145088959E+02  0.112251012E+00 -0.130713186E+01
     4
 # iter = 38500  time[fs]=38.50000
   C -0.274107114E+01 -0.237439790E+00  0.165100509E-01
   C  0.273160943E+01  0.132415221E+00  0.582149890E-01
   H -0.151375351E+02  0.153807398E+01  0.829140038E+00
   H  0.148832368E+02  0.114466852E+00 -0.134111963E+01
     4
 # iter = 39000  time[fs]=39.00000
   C -0.281888824E+01 -0.244511028E+00  0.166703360E-01
   C  0.280798852E+01  0.136142453E+00  0.605535611E-01
   H -0.155229600E+02  0.157862254E+01  0.851076819E+00
   H  0.152583314E+02  0.116658541E+00 -0.137521295E+01
     4
 # iter = 39500  time[fs]=39.50000
   C -0.289710888E+01 -0.251616435E+00  0.168262889E-01
   C  0.288476724E+01  0.139896690E+00  0.628991800E-01
   H -0.159090829E+02  0.161925265E+01  0.873054104E+00
   H  0.156341680E+02  0.118851709E+00 -0.140938231E+01
     4
 # iter = 40000  time[fs]=40.00000
   C -0.297570941E+01 -0.258752115E+00  0.169802149E-01
   C  0.296192652E+01  0.143678785E+00  0.652538351E-01
   H -0.162958582E+02  0.165997287E+01  0.895082321E+00
   H  0.160107239E+02  0.121058549E+00 -0.144361188E+01
     4
 # iter = 40500  time[fs]=40.50000
   C -0.305467090E+01 -0.265917425E+00  0.171312830E-01
   C  0.303944556E+01  0.147486411E+00  0.676162460E-01
   H -0.166832607E+02  0.170077416E+01  0.917154169E+00
   H  0.163879609E+02  0.123273399E+00 -0.147790398E+01
     4
 # iter = 41000  time[fs]=41.00000
   C -0.313397630E+01 -0.273112329E+00  0.172781642E-01
   C  0.311730449E+01  0.151316818E+00  0.699846283E-01
   H -0.170712698E+02  0.174164490E+01  0.939259658E+00
   H  0.167658403E+02  0.125487796E+00 -0.151226390E+01
     4
 # iter = 41500  time[fs]=41.50000
   C -0.321360876E+01 -0.280335735E+00  0.174206828E-01
   C  0.319548593E+01  0.155168551E+00  0.723584245E-01
   H -0.174598604E+02  0.178258028E+01  0.961395504E+00
   H  0.171443320E+02  0.127699896E+00 -0.154669054E+01
     4
 # iter = 42000  time[fs]=42.00000
   C -0.329355179E+01 -0.287585859E+00  0.175594444E-01
   C  0.327397452E+01  0.159041062E+00  0.747379131E-01
   H -0.178490046E+02  0.182358015E+01  0.983562999E+00
   H  0.175234119E+02  0.129912344E+00 -0.158117851E+01
     4
 # iter = 42500  time[fs]=42.50000
   C -0.337379014E+01 -0.294861117E+00  0.176949340E-01
   C  0.335275584E+01  0.162933746E+00  0.771232623E-01
   H -0.182386766E+02  0.186464391E+01  0.100576287E+01
   H  0.179030572E+02  0.132127136E+00 -0.161572321E+01
     4
 # iter = 43000  time[fs]=43.00000
   C -0.345430990E+01 -0.302160392E+00  0.178272444E-01
   C  0.343181608E+01  0.166845662E+00  0.795142447E-01
   H -0.186288544E+02  0.190576888E+01  0.102799371E+01
   H  0.182832443E+02  0.134344064E+00 -0.165032242E+01
     4
 # iter = 43500  time[fs]=43.50000
   C -0.353509825E+01 -0.309482777E+00  0.179563269E-01
   C  0.351114217E+01  0.170775780E+00  0.819104991E-01
   H -0.190195181E+02  0.194695177E+01  0.105025342E+01
   H  0.186639503E+02  0.136562145E+00 -0.168497484E+01
     4
 # iter = 44000  time[fs]=44.00000
   C -0.361614310E+01 -0.316827339E+00  0.180822201E-01
   C  0.359072200E+01  0.174723225E+00  0.843117701E-01
   H -0.194106486E+02  0.198818993E+01  0.107254048E+01
   H  0.190451540E+02  0.138780925E+00 -0.171967876E+01
     4
 # iter = 44500  time[fs]=44.50000
   C -0.369743302E+01 -0.324193109E+00  0.182050558E-01
   C  0.367054428E+01  0.178687273E+00  0.867179133E-01
   H -0.198022271E+02  0.202948142E+01  0.109485400E+01
   H  0.194268360E+02  0.141000514E+00 -0.175443205E+01
     4
 # iter = 45000  time[fs]=45.00000
   C -0.377895730E+01 -0.331579164E+00  0.183249712E-01
   C  0.375059848E+01  0.182667254E+00  0.891288028E-01
   H -0.201942362E+02  0.207082446E+01  0.111719320E+01
   H  0.198089782E+02  0.143221077E+00 -0.178923262E+01
     4
 # iter = 45500  time[fs]=45.50000
   C -0.386070591E+01 -0.338984668E+00  0.184420666E-01
   C  0.383087467E+01  0.186662510E+00  0.915442857E-01
   H -0.205866594E+02  0.211221720E+01  0.113955717E+01
   H  0.201915631E+02  0.145442601E+00 -0.182407868E+01
     4
 # iter = 46000  time[fs]=46.00000
   C -0.394266942E+01 -0.346408850E+00  0.185564199E-01
   C  0.391136347E+01  0.190672400E+00  0.939641977E-01
   H -0.209794813E+02  0.215365776E+01  0.116194494E+01
   H  0.205745743E+02  0.147664966E+00 -0.185896865E+01
     4
 # iter = 46500  time[fs]=46.50000
   C -0.402483900E+01 -0.353850982E+00  0.186681089E-01
   C  0.399205611E+01  0.194696325E+00  0.963883850E-01
   H -0.213726871E+02  0.219514441E+01  0.118435562E+01
   H  0.209579960E+02  0.149888080E+00 -0.189390098E+01
     4
 # iter = 47000  time[fs]=47.00000
   C -0.410720627E+01 -0.361310367E+00  0.187772165E-01
   C  0.407294430E+01  0.198733729E+00  0.988167093E-01
   H -0.217662632E+02  0.223667554E+01  0.120678840E+01
   H  0.213418137E+02  0.152111902E+00 -0.192887420E+01
     4
 # iter = 47500  time[fs]=47.50000
   C -0.418976338E+01 -0.368786345E+00  0.188838242E-01
   C  0.415402024E+01  0.202784089E+00  0.101249041E+00
   H -0.221601962E+02  0.227824964E+01  0.122924254E+01
   H  0.217260133E+02  0.154336405E+00 -0.196388686E+01
     4
 # iter = 48000  time[fs]=48.00000
   C -0.427250288E+01 -0.376278294E+00  0.189880089E-01
   C  0.423527657E+01  0.206846908E+00  0.103685255E+00
   H -0.225544738E+02  0.231986526E+01  0.125171731E+01
   H  0.221105816E+02  0.156561558E+00 -0.199893763E+01
     4
 # iter = 48500  time[fs]=48.50000
   C -0.435541776E+01 -0.383785627E+00  0.190898423E-01
   C  0.431670633E+01  0.210921717E+00  0.106125229E+00
   H -0.229490841E+02  0.236152101E+01  0.127421202E+01
   H  0.224955060E+02  0.158787319E+00 -0.203402523E+01
     4
 # iter = 49000  time[fs]=49.00000
   C -0.443850140E+01 -0.391307787E+00  0.191893935E-01
   C  0.439830296E+01  0.215008071E+00  0.108568846E+00
   H -0.233440159E+02  0.240321558E+01  0.129672601E+01
   H  0.228807745E+02  0.161013653E+00 -0.206914846E+01
     4
 # iter = 49500  time[fs]=49.50000
   C -0.452174750E+01 -0.398844247E+00  0.192867292E-01
   C  0.448006023E+01  0.219105548E+00  0.111015997E+00
   H -0.237392585E+02  0.244494773E+01  0.131925865E+01
   H  0.232663757E+02  0.163240526E+00 -0.210430615E+01
     4
 # iter = 50000  time[fs]=50.00000
   C -0.460515012E+01 -0.406394505E+00  0.193819136E-01
   C  0.456197224E+01  0.223213749E+00  0.113466575E+00
   H -0.241348017E+02  0.248671625E+01  0.134180935E+01
   H  0.236522989E+02  0.165467909E+00 -0.213949721E+01
     4
 # iter = 50500  time[fs]=50.50000
   C -0.468870362E+01 -0.413958086E+00  0.194750082E-01
   C  0.464403342E+01  0.227332295E+00  0.115920479E+00
   H -0.245306359E+02  0.252852001E+01  0.136437754E+01
   H  0.240385336E+02  0.167695774E+00 -0.217472060E+01
     4
 # iter = 51000  time[fs]=51.00000
   C -0.477240267E+01 -0.421534537E+00  0.195660722E-01
   C  0.472623846E+01  0.231460828E+00  0.118377611E+00
   H -0.249267518E+02  0.257035793E+01  0.138696268E+01
   H  0.244250701E+02  0.169924095E+00 -0.220997530E+01
     4
 # iter = 51500  time[fs]=51.50000
   C -0.485624217E+01 -0.429123429E+00  0.196551624E-01
   C  0.480858234E+01  0.235599005E+00  0.120837878E+00
   H -0.253231406E+02  0.261222897E+01  0.140956425E+01
   H  0.248118989E+02  0.172152848E+00 -0.224526037E+01
     4
 # iter = 52000  time[fs]=52.00000
   C -0.494021730E+01 -0.436724351E+00  0.197423333E-01
   C  0.489106028E+01  0.239746501E+00  0.123301191E+00
   H -0.257197939E+02  0.265413215E+01  0.143218175E+01
   H  0.251990112E+02  0.174382008E+00 -0.228057489E+01
     4
 # iter = 52500  time[fs]=52.50000
   C -0.502432347E+01 -0.444336915E+00  0.198276375E-01
   C  0.497366773E+01  0.243903007E+00  0.125767463E+00
   H -0.261167036E+02  0.269606651E+01  0.145481472E+01
   H  0.255863983E+02  0.176611554E+00 -0.231591800E+01
     4
 # iter = 53000  time[fs]=53.00000
   C -0.510855632E+01 -0.451960748E+00  0.199111254E-01
   C  0.505640037E+01  0.248068229E+00  0.128236613E+00
   H -0.265138623E+02  0.273803115E+01  0.147746270E+01
   H  0.259740520E+02  0.178841465E+00 -0.235128885E+01
     4
 # iter = 53500  time[fs]=53.50000
   C -0.519291169E+01 -0.459595496E+00  0.199928455E-01
   C  0.513925408E+01  0.252241885E+00  0.130708562E+00
   H -0.269112624E+02  0.278002522E+01  0.150012526E+01
   H  0.263619647E+02  0.181071722E+00 -0.238668665E+01
     4
 # iter = 54000  time[fs]=54.00000
   C -0.527738561E+01 -0.467240821E+00  0.200728448E-01
   C  0.522222494E+01  0.256423709E+00  0.133183233E+00
   H -0.273088970E+02  0.282204786E+01  0.152280199E+01
   H  0.267501286E+02  0.183302307E+00 -0.242211063E+01
     4
 # iter = 54500  time[fs]=54.50000
   C -0.536197431E+01 -0.474896398E+00  0.201511682E-01
   C  0.530530920E+01  0.260613444E+00  0.135660553E+00
   H -0.277067593E+02  0.286409830E+01  0.154549249E+01
   H  0.271385368E+02  0.185533203E+00 -0.245756007E+01
     4
 # iter = 55000  time[fs]=55.00000
   C -0.544667417E+01 -0.482561920E+00  0.202278590E-01
   C  0.538850330E+01  0.264810846E+00  0.138140453E+00
   H -0.281048430E+02  0.290617576E+01  0.156819637E+01
   H  0.275271823E+02  0.187764393E+00 -0.249303426E+01
     4
 # iter = 55500  time[fs]=55.50000
   C -0.553148176E+01 -0.490237091E+00  0.203029590E-01
   C  0.547180382E+01  0.269015683E+00  0.140622865E+00
   H -0.285031418E+02  0.294827952E+01  0.159091328E+01
   H  0.279160585E+02  0.189995863E+00 -0.252853252E+01
     4
 # iter = 56000  time[fs]=56.00000
   C -0.561639378E+01 -0.497921628E+00  0.203765086E-01
   C  0.555520751E+01  0.273227730E+00  0.143107723E+00
   H -0.289016498E+02  0.299040887E+01  0.161364286E+01
   H  0.283051591E+02  0.192227597E+00 -0.256405420E+01
     4
 # iter = 56500  time[fs]=56.50000
   C -0.570140708E+01 -0.505615260E+00  0.204485464E-01
   C  0.563871125E+01  0.277446776E+00  0.145594965E+00
   H -0.293003614E+02  0.303256314E+01  0.163638478E+01
   H  0.286944780E+02  0.194459582E+00 -0.259959869E+01
     4
 # iter = 57000  time[fs]=57.00000
   C -0.578651865E+01 -0.513317728E+00  0.205191101E-01
   C  0.572231207E+01  0.281672616E+00  0.148084531E+00
   H -0.296992711E+02  0.307474167E+01  0.165913871E+01
   H  0.290840094E+02  0.196691806E+00 -0.263516539E+01
     4
 # iter = 57500  time[fs]=57.50000
   C -0.587172562E+01 -0.521028783E+00  0.205882356E-01
   C  0.580600711E+01  0.285905054E+00  0.150576362E+00
   H -0.300983737E+02  0.311694385E+01  0.168190434E+01
   H  0.294737477E+02  0.198924257E+00 -0.267075372E+01
     4
 # iter = 58000  time[fs]=58.00000
   C -0.595702522E+01 -0.528748186E+00  0.206559579E-01
   C  0.588979365E+01  0.290143903E+00  0.153070404E+00
   H -0.304976640E+02  0.315916906E+01  0.170468137E+01
   H  0.298636875E+02  0.201156921E+00 -0.270636313E+01
     4
 # iter = 58500  time[fs]=58.50000
   C -0.604241481E+01 -0.536475710E+00  0.207223107E-01
   C  0.597366905E+01  0.294388982E+00  0.155566601E+00
   H -0.308971374E+02  0.320141674E+01  0.172746952E+01
   H  0.302538236E+02  0.203389790E+00 -0.274199308E+01
     4
 # iter = 59000  time[fs]=59.00000
   C -0.612789185E+01 -0.544211134E+00  0.207873264E-01
   C  0.605763083E+01  0.298640120E+00  0.158064901E+00
   H -0.312967891E+02  0.324368633E+01  0.175026850E+01
   H  0.306441511E+02  0.205622852E+00 -0.277764308E+01
     4
 # iter = 59500  time[fs]=59.50000
   C -0.621345390E+01 -0.551954246E+00  0.208510364E-01
   C  0.614167656E+01  0.302897151E+00  0.160565255E+00
   H -0.316966146E+02  0.328597728E+01  0.177307805E+01
   H  0.310346651E+02  0.207856098E+00 -0.281331261E+01
     4
 # iter = 60000  time[fs]=60.00000
   C -0.629909864E+01 -0.559704845E+00  0.209134711E-01
   C  0.622580393E+01  0.307159915E+00  0.163067614E+00
   H -0.320966096E+02  0.332828909E+01  0.179589792E+01
   H  0.314253611E+02  0.210089519E+00 -0.284900121E+01
     4
 # iter = 60500  time[fs]=60.50000
   C -0.638482382E+01 -0.567462735E+00  0.209746599E-01
   C  0.631001074E+01  0.311428261E+00  0.165571930E+00
   H -0.324967699E+02  0.337062125E+01  0.181872785E+01
   H  0.318162345E+02  0.212323105E+00 -0.288470842E+01
     4
 # iter = 61000  time[fs]=61.00000
   C -0.647062728E+01 -0.575227728E+00  0.210346311E-01
   C  0.639429485E+01  0.315702041E+00  0.168078160E+00
   H -0.328970916E+02  0.341297329E+01  0.184156760E+01
   H  0.322072811E+02  0.214556849E+00 -0.292043379E+01
     4
 # iter = 61500  time[fs]=61.50000
   C -0.655650695E+01 -0.582999643E+00  0.210934121E-01
   C  0.647865420E+01  0.319981113E+00  0.170586258E+00
   H -0.332975708E+02  0.345534473E+01  0.186441695E+01
   H  0.325984967E+02  0.216790742E+00 -0.295617690E+01
     4
 # iter = 62000  time[fs]=62.00000
   C -0.664246085E+01 -0.590778308E+00  0.211510296E-01
   C  0.656308683E+01  0.324265343E+00  0.173096182E+00
   H -0.336982036E+02  0.349773513E+01  0.188727566E+01
   H  0.329898773E+02  0.219024777E+00 -0.299193733E+01
     4
 # iter = 62500  time[fs]=62.50000
   C -0.672848705E+01 -0.598563553E+00  0.212075091E-01
   C  0.664759085E+01  0.328554598E+00  0.175607892E+00
   H -0.340989867E+02  0.354014406E+01  0.191014354E+01
   H  0.333814192E+02  0.221258948E+00 -0.302771470E+01
     4
 # iter = 63000  time[fs]=63.00000
   C -0.681458370E+01 -0.606355218E+00  0.212628757E-01
   C  0.673216442E+01  0.332848754E+00  0.178121349E+00
   H -0.344999163E+02  0.358257110E+01  0.193302036E+01
   H  0.337731184E+02  0.223493246E+00 -0.306350860E+01
     4
 # iter = 63500  time[fs]=63.50000
   C -0.690074904E+01 -0.614153147E+00  0.213171534E-01
   C  0.681680580E+01  0.337147687E+00  0.180636512E+00
   H -0.349009892E+02  0.362501583E+01  0.195590592E+01
   H  0.341649716E+02  0.225727666E+00 -0.309931868E+01
     4
 # iter = 64000  time[fs]=64.00000
   C -0.698698135E+01 -0.621957189E+00  0.213703655E-01
   C  0.690151328E+01  0.341451283E+00  0.183153347E+00
   H -0.353022022E+02  0.366747789E+01  0.197880004E+01
   H  0.345569750E+02  0.227962201E+00 -0.313514457E+01
     4
 # iter = 64500  time[fs]=64.50000
   C -0.707327897E+01 -0.629767201E+00  0.214225347E-01
   C  0.698628524E+01  0.345759426E+00  0.185671816E+00
   H -0.357035521E+02  0.370995687E+01  0.200170252E+01
   H  0.349491256E+02  0.230196847E+00 -0.317098593E+01
     4
 # iter = 65000  time[fs]=65.00000
   C -0.715964033E+01 -0.637583040E+00  0.214736829E-01
   C  0.707112010E+01  0.350072009E+00  0.188191885E+00
   H -0.361050358E+02  0.375245242E+01  0.202461319E+01
   H  0.353414198E+02  0.232431596E+00 -0.320684241E+01
     4
 # iter = 65500  time[fs]=65.50000
   C -0.724606387E+01 -0.645404574E+00  0.215238314E-01
   C  0.715601634E+01  0.354388926E+00  0.190713520E+00
   H -0.365066505E+02  0.379496419E+01  0.204753186E+01
   H  0.357338547E+02  0.234666445E+00 -0.324271370E+01
     4
 # iter = 66000  time[fs]=66.00000
   C -0.733254813E+01 -0.653231670E+00  0.215730007E-01
   C  0.724097251E+01  0.358710076E+00  0.193236688E+00
   H -0.369083932E+02  0.383749182E+01  0.207045836E+01
   H  0.361264271E+02  0.236901387E+00 -0.327859947E+01
     4
 # iter = 66500  time[fs]=66.50000
   C -0.741909166E+01 -0.661064204E+00  0.216212110E-01
   C  0.732598719E+01  0.363035361E+00  0.195761359E+00
   H -0.373102613E+02  0.388003499E+01  0.209339253E+01
   H  0.365191342E+02  0.239136418E+00 -0.331449942E+01
     4
 # iter = 67000  time[fs]=67.00000
   C -0.750569310E+01 -0.668902052E+00  0.216684816E-01
   C  0.741105900E+01  0.367364686E+00  0.198287500E+00
   H -0.377122521E+02  0.392259337E+01  0.211633422E+01
   H  0.369119730E+02  0.241371534E+00 -0.335041326E+01
     4
 # iter = 67500  time[fs]=67.50000
   C -0.759235110E+01 -0.676745097E+00  0.217148314E-01
   C  0.749618664E+01  0.371697959E+00  0.200815083E+00
   H -0.381143629E+02  0.396516666E+01  0.213928325E+01
   H  0.373049408E+02  0.243606731E+00 -0.338634070E+01
     4
 # iter = 68000  time[fs]=68.00000
   C -0.767906438E+01 -0.684593224E+00  0.217602786E-01
   C  0.758136883E+01  0.376035092E+00  0.203344078E+00
   H -0.385165913E+02  0.400775454E+01  0.216223950E+01
   H  0.376980350E+02  0.245842003E+00 -0.342228146E+01
     4
 # iter = 68500  time[fs]=68.50000
   C -0.776583169E+01 -0.692446324E+00  0.218048410E-01
   C  0.766660433E+01  0.380375999E+00  0.205874457E+00
   H -0.389189349E+02  0.405035673E+01  0.218520280E+01
   H  0.380912528E+02  0.248077347E+00 -0.345823527E+01
     4
 # iter = 69000  time[fs]=69.00000
   C -0.785265181E+01 -0.700304289E+00  0.218485360E-01
   C  0.775189195E+01  0.384720598E+00  0.208406193E+00
   H -0.393213913E+02  0.409297294E+01  0.220817301E+01
   H  0.384845918E+02  0.250312760E+00 -0.349420188E+01
     4
 # iter = 69500  time[fs]=69.50000
   C -0.793952359E+01 -0.708167016E+00  0.218913802E-01
   C  0.783723055E+01  0.389068807E+00  0.210939259E+00
   H -0.397239582E+02  0.413560289E+01  0.223115001E+01
   H  0.388780496E+02  0.252548237E+00 -0.353018101E+01
     4
 # iter = 70000  time[fs]=70.00000
   C -0.802644590E+01 -0.716034404E+00  0.219333899E-01
   C  0.792261900E+01  0.393420550E+00  0.213473630E+00
   H -0.401266335E+02  0.417824631E+01  0.225413365E+01
   H  0.392716238E+02  0.254783776E+00 -0.356617244E+01
     4
 # iter = 70500  time[fs]=70.50000
   C -0.811341764E+01 -0.723906357E+00  0.219745811E-01
   C  0.800805622E+01  0.397775751E+00  0.216009281E+00
   H -0.405294149E+02  0.422090295E+01  0.227712381E+01
   H  0.396653121E+02  0.257019373E+00 -0.360217592E+01
     4
 # iter = 71000  time[fs]=71.00000
   C -0.820043776E+01 -0.731782778E+00  0.220149691E-01
   C  0.809354117E+01  0.402134337E+00  0.218546187E+00
   H -0.409323004E+02  0.426357254E+01  0.230012036E+01
   H  0.400591122E+02  0.259255024E+00 -0.363819121E+01
     4
 # iter = 71500  time[fs]=71.50000
   C -0.828750522E+01 -0.739663579E+00  0.220545689E-01
   C  0.817907283E+01  0.406496238E+00  0.221084325E+00
   H -0.413352880E+02  0.430625485E+01  0.232312318E+01
   H  0.404530220E+02  0.261490728E+00 -0.367421810E+01
     4
 # iter = 72000  time[fs]=72.00000
   C -0.837461903E+01 -0.747548669E+00  0.220933950E-01
   C  0.826465023E+01  0.410861385E+00  0.223623672E+00
   H -0.417383757E+02  0.434894963E+01  0.234613215E+01
   H  0.408470393E+02  0.263726480E+00 -0.371025636E+01
     4
 # iter = 72500  time[fs]=72.50000
   C -0.846177824E+01 -0.755437962E+00  0.221314617E-01
   C  0.835027240E+01  0.415229711E+00  0.226164206E+00
   H -0.421415616E+02  0.439165666E+01  0.236914716E+01
   H  0.412411622E+02  0.265962279E+00 -0.374630578E+01
     4
 # iter = 73000  time[fs]=73.00000
   C -0.854898190E+01 -0.763331375E+00  0.221687828E-01
   C  0.843593843E+01  0.419601153E+00  0.228705904E+00
   H -0.425448438E+02  0.443437570E+01  0.239216809E+01
   H  0.416353886E+02  0.268198121E+00 -0.378236615E+01
     4
 # iter = 73500  time[fs]=73.50000
   C -0.863622910E+01 -0.771228828E+00  0.222053717E-01
   C  0.852164742E+01  0.423975647E+00  0.231248745E+00
   H -0.429482205E+02  0.447710653E+01  0.241519483E+01
   H  0.420297165E+02  0.270434005E+00 -0.381843728E+01
     4
 # iter = 74000  time[fs]=74.00000
   C -0.872351898E+01 -0.779130240E+00  0.222412414E-01
   C  0.860739850E+01  0.428353133E+00  0.233792710E+00
   H -0.433516900E+02  0.451984895E+01  0.243822728E+01
   H  0.424241442E+02  0.272669927E+00 -0.385451895E+01
     4
 # iter = 74500  time[fs]=74.50000
   C -0.881085067E+01 -0.787035537E+00  0.222764048E-01
   C  0.869319083E+01  0.432733552E+00  0.236337777E+00
   H -0.437552506E+02  0.456260273E+01  0.246126533E+01
   H  0.428186698E+02  0.274905886E+00 -0.389061099E+01
     4
 # iter = 75000  time[fs]=75.00000
   C -0.889822335E+01 -0.794944643E+00  0.223108743E-01
   C  0.877902358E+01  0.437116847E+00  0.238883928E+00
   H -0.441589006E+02  0.460536769E+01  0.248430889E+01
   H  0.432132915E+02  0.277141879E+00 -0.392671321E+01
     4
 # iter = 75500  time[fs]=75.50000
   C -0.898563621E+01 -0.802857486E+00  0.223446619E-01
   C  0.886489598E+01  0.441502962E+00  0.241431144E+00
   H -0.445626384E+02  0.464814362E+01  0.250735786E+01
   H  0.436080075E+02  0.279377904E+00 -0.396282542E+01
     4
 # iter = 76000  time[fs]=76.00000
   C -0.907308847E+01 -0.810773996E+00  0.223777794E-01
   C  0.895080723E+01  0.445891844E+00  0.243979405E+00
   H -0.449664624E+02  0.469093033E+01  0.253041214E+01
   H  0.440028162E+02  0.281613960E+00 -0.399894746E+01
     4
 # iter = 76500  time[fs]=76.50000
   C -0.916057937E+01 -0.818694105E+00  0.224102383E-01
   C  0.903675660E+01  0.450283439E+00  0.246528694E+00
   H -0.453703711E+02  0.473372763E+01  0.255347163E+01
   H  0.443977159E+02  0.283850043E+00 -0.403507914E+01
     4
 # iter = 77000  time[fs]=77.00000
   C -0.924810817E+01 -0.826617746E+00  0.224420499E-01
   C  0.912274335E+01  0.454677696E+00  0.249078993E+00
   H -0.457743630E+02  0.477653534E+01  0.257653625E+01
   H  0.447927051E+02  0.286086154E+00 -0.407122031E+01
     4
 # iter = 77500  time[fs]=77.50000
   C -0.933567416E+01 -0.834544855E+00  0.224732249E-01
   C  0.920876678E+01  0.459074567E+00  0.251630285E+00
   H -0.461784367E+02  0.481935328E+01  0.259960592E+01
   H  0.451877821E+02  0.288322288E+00 -0.410737079E+01
     4
 # iter = 78000  time[fs]=78.00000
   C -0.942327664E+01 -0.842475368E+00  0.225037742E-01
   C  0.929482619E+01  0.463474002E+00  0.254182554E+00
   H -0.465825907E+02  0.486218128E+01  0.262268053E+01
   H  0.455829455E+02  0.290558446E+00 -0.414353044E+01
     4
 # iter = 78500  time[fs]=78.50000
   C -0.951091493E+01 -0.850409225E+00  0.225337080E-01
   C  0.938092092E+01  0.467875955E+00  0.256735783E+00
   H -0.469868236E+02  0.490501917E+01  0.264576002E+01
   H  0.459781938E+02  0.292794625E+00 -0.417969909E+01
     4
 # iter = 79000  time[fs]=79.00000
   C -0.959858837E+01 -0.858346367E+00  0.225630366E-01
   C  0.946705031E+01  0.472280380E+00  0.259289955E+00
   H -0.473911342E+02  0.494786679E+01  0.266884430E+01
   H  0.463735255E+02  0.295030824E+00 -0.421587659E+01
     4
 # iter = 79500  time[fs]=79.50000
   C -0.968629631E+01 -0.866286734E+00  0.225917698E-01
   C  0.955321374E+01  0.476687233E+00  0.261845057E+00
   H -0.477955210E+02  0.499072397E+01  0.269193328E+01
   H  0.467689393E+02  0.297267041E+00 -0.425206281E+01
     4
 # iter = 80000  time[fs]=80.00000
   C -0.977403814E+01 -0.874230271E+00  0.226199172E-01
   C  0.963941057E+01  0.481096470E+00  0.264401072E+00
   H -0.481999829E+02  0.503359056E+01  0.271502690E+01
   H  0.471644337E+02  0.299503276E+00 -0.428825759E+01
