     4
 # iter = 25000  time[fs]=25.00000
   C -0.967557401E+00  0.109583980E-01  0.161611591E-01
   C  0.101046748E+01  0.407070052E-01 -0.130488099E-01
   H -0.526746033E+01 -0.517468468E+00 -0.298199656E+00
   H  0.531474676E+01  0.484818604E+00 -0.282328326E+00
     4
 # iter = 25500  time[fs]=25.50000
   C -0.101322147E+01  0.115397068E-01  0.179548092E-01
   C  0.105195423E+01  0.386915870E-01 -0.128960954E-01
   H -0.560660544E+01 -0.558801711E+00 -0.322116163E+00
   H  0.562655229E+01  0.506575689E+00 -0.304805774E+00
     4
 # iter = 26000  time[fs]=26.00000
   C -0.106411423E+01  0.112970003E-01  0.190529161E-01
   C  0.109672734E+01  0.355646879E-01 -0.139622587E-01
   H -0.595379301E+01 -0.605830504E+00 -0.351589413E+00
   H  0.593563058E+01  0.523176783E+00 -0.332830923E+00
     4
 # iter = 26500  time[fs]=26.50000
   C -0.111754282E+01  0.125532426E-01  0.217608932E-01
   C  0.114786672E+01  0.347776661E-01 -0.127804561E-01
   H -0.629263400E+01 -0.642437108E+00 -0.370517185E+00
   H  0.625779978E+01  0.550692288E+00 -0.350293071E+00
     4
 # iter = 27000  time[fs]=27.00000
   C -0.117302811E+01  0.154312300E-01  0.261860941E-01
   C  0.120517866E+01  0.364929665E-01 -0.917470295E-02
   H -0.662208568E+01 -0.667798470E+00 -0.378089066E+00
   H  0.659361140E+01  0.589896015E+00 -0.356382931E+00
     4
 # iter = 27500  time[fs]=27.50000
   C -0.123194749E+01  0.182171431E-01  0.306012709E-01
   C  0.126574527E+01  0.381276165E-01 -0.571630110E-02
   H -0.695391321E+01 -0.693859054E+00 -0.386259884E+00
   H  0.693087269E+01  0.628792337E+00 -0.363064671E+00
     4
 # iter = 28000  time[fs]=28.00000
   C -0.129520386E+01  0.196990350E-01  0.337830139E-01
   C  0.132743039E+01  0.378533179E-01 -0.422358370E-02
   H -0.729640965E+01 -0.729066638E+00 -0.403486388E+00
   H  0.726092417E+01  0.658890881E+00 -0.378801722E+00
     4
 # iter = 28500  time[fs]=28.50000
   C -0.136202196E+01  0.203730696E-01  0.362178133E-01
   C  0.139068710E+01  0.364019468E-01 -0.395621140E-02
   H -0.764599722E+01 -0.769982150E+00 -0.426337561E+00
   H  0.758703374E+01  0.683601822E+00 -0.400161328E+00
     4
 # iter = 29000  time[fs]=29.00000
   C -0.143094037E+01  0.214493617E-01  0.391076110E-01
   C  0.145706706E+01  0.355765686E-01 -0.310395693E-02
   H -0.799414330E+01 -0.808196228E+00 -0.446411215E+00
   H  0.791746771E+01  0.711313359E+00 -0.418735984E+00
     4
 # iter = 29500  time[fs]=29.50000
   C -0.150131256E+01  0.233474718E-01  0.428650173E-01
   C  0.152696432E+01  0.359981128E-01 -0.103984927E-02
   H -0.833782919E+01 -0.840796887E+00 -0.460801595E+00
   H  0.825500808E+01  0.744915588E+00 -0.431618461E+00
     4
 # iter = 30000  time[fs]=30.00000
   C -0.157351572E+01  0.254854711E-01  0.469021776E-01
   C  0.159929718E+01  0.367891573E-01  0.136377767E-02
   H -0.868101647E+01 -0.871837660E+00 -0.473567621E+00
   H  0.859547990E+01  0.780330746E+00 -0.442871083E+00
     4
 # iter = 30500  time[fs]=30.50000
   C -0.164801609E+01  0.272134704E-01  0.505641616E-01
   C  0.167290455E+01  0.369717861E-01  0.313329708E-02
   H -0.902814838E+01 -0.905842670E+00 -0.489238164E+00
   H  0.893425027E+01  0.813012548E+00 -0.457026359E+00
     4
 # iter = 31000  time[fs]=31.00000
   C -0.172465747E+01  0.285237488E-01  0.538389673E-01
   C  0.174760772E+01  0.365309446E-01  0.425727973E-02
   H -0.937920615E+01 -0.942865918E+00 -0.507871510E+00
   H  0.927117204E+01  0.842890230E+00 -0.474142910E+00
     4
 # iter = 31500  time[fs]=31.50000
   C -0.180286735E+01  0.298424293E-01  0.571490735E-01
   C  0.182389606E+01  0.361021756E-01  0.537433928E-02
   H -0.973115808E+01 -0.979941406E+00 -0.526505532E+00
   H  0.960913081E+01  0.872917045E+00 -0.491256719E+00
     4
 # iter = 32000  time[fs]=32.00000
   C -0.188225033E+01  0.314338805E-01  0.607557280E-01
   C  0.190203248E+01  0.360792972E-01  0.688089844E-02
   H -0.100821042E+02 -0.101522807E+01 -0.543302651E+00
   H  0.994989484E+01  0.904921985E+00 -0.506529123E+00
     4
 # iter = 32500  time[fs]=32.50000
   C -0.196279978E+01  0.331871398E-01  0.645452832E-01
   C  0.198173165E+01  0.362943665E-01  0.861122672E-02
   H -0.104327622E+02 -0.104949619E+01 -0.559036268E+00
   H  0.102926260E+02  0.938122054E+00 -0.520734328E+00
     4
 # iter = 33000  time[fs]=33.00000
   C -0.204463982E+01  0.348724932E-01  0.682857087E-01
   C  0.206254279E+01  0.364019603E-01  0.102217856E-01
   H -0.107846809E+02 -0.108434195E+01 -0.575305373E+00
   H  0.106356661E+02  0.970908895E+00 -0.535472698E+00
     4
 # iter = 33500  time[fs]=33.50000
   C -0.212774264E+01  0.364229338E-01  0.719079954E-01
   C  0.214426990E+01  0.363007363E-01  0.116128446E-01
   H -0.111382808E+02 -0.112022882E+01 -0.592575999E+00
   H  0.109784959E+02  0.100280872E+01 -0.551210773E+00
     4
 # iter = 34000  time[fs]=34.00000
   C -0.221192439E+01  0.379369976E-01  0.755089428E-01
   C  0.222697477E+01  0.361376039E-01  0.129326955E-01
   H -0.114928339E+02 -0.115646800E+01 -0.610161683E+00
   H  0.113217547E+02  0.103450177E+01 -0.567261736E+00
     4
 # iter = 34500  time[fs]=34.50000
   C -0.229701195E+01  0.395109578E-01  0.791833127E-01
   C  0.231072436E+01  0.360562719E-01  0.143262367E-01
   H -0.118476313E+02 -0.119238635E+01 -0.627391435E+00
   H  0.116660705E+02  0.106665337E+01 -0.582954238E+00
     4
 # iter = 35000  time[fs]=35.00000
   C -0.238293723E+01  0.411434113E-01  0.829283800E-01
   C  0.239544686E+01  0.360542658E-01  0.157920187E-01
   H -0.122026470E+02 -0.122799052E+01 -0.644273845E+00
   H  0.120113947E+02  0.109924930E+01 -0.598297006E+00
     4
 # iter = 35500  time[fs]=35.50000
   C -0.246969215E+01  0.427795618E-01  0.866881889E-01
   C  0.248099717E+01  0.360492457E-01  0.172485882E-01
   H -0.125582293E+02 -0.126365873E+01 -0.661188932E+00
   H  0.123573103E+02  0.113190405E+01 -0.613670458E+00
     4
 # iter = 36000  time[fs]=36.00000
   C -0.255724947E+01  0.443895994E-01  0.904319095E-01
   C  0.256727357E+01  0.359964108E-01  0.186519125E-01
   H -0.129145551E+02 -0.129959531E+01 -0.678342684E+00
   H  0.127035776E+02  0.116440671E+01 -0.629280841E+00
     4
 # iter = 36500  time[fs]=36.50000
   C -0.264554427E+01  0.459866299E-01  0.941717469E-01
   C  0.265424394E+01  0.359153365E-01  0.200222356E-01
   H -0.132715048E+02 -0.133570597E+01 -0.695642337E+00
   H  0.130502584E+02  0.119684571E+01 -0.645035415E+00
     4
 # iter = 37000  time[fs]=37.00000
   C -0.273450641E+01  0.475936128E-01  0.979298633E-01
   C  0.274189559E+01  0.358404230E-01  0.213945405E-01
   H -0.136288923E+02 -0.137182792E+01 -0.712926507E+00
   H  0.133974854E+02  0.122937847E+01 -0.660772764E+00
     4
 # iter = 37500  time[fs]=37.50000
   C -0.282408721E+01  0.492161987E-01  0.101711201E+00
   C  0.283019410E+01  0.357801841E-01  0.227778502E-01
   H -0.139866538E+02 -0.140791893E+01 -0.730154271E+00
   H  0.137452733E+02  0.126204218E+01 -0.676452016E+00
     4
 # iter = 38000  time[fs]=38.00000
   C -0.291425598E+01  0.508457255E-01  0.105506467E+00
   C  0.291908732E+01  0.357217271E-01  0.241597179E-01
   H -0.143448268E+02 -0.144403648E+01 -0.747384323E+00
   H  0.140935385E+02  0.129477459E+01 -0.692131986E+00
     4
 # iter = 38500  time[fs]=38.50000
   C -0.300498416E+01  0.524747254E-01  0.109307630E+00
   C  0.300852824E+01  0.356539782E-01  0.255294615E-01
   H -0.147034419E+02 -0.148022984E+01 -0.764667062E+00
   H  0.144422078E+02  0.132752200E+01 -0.707863179E+00
     4
 # iter = 39000  time[fs]=39.00000
   C -0.309623847E+01  0.541034358E-01  0.113114422E+00
   C  0.309848438E+01  0.355774307E-01  0.268879189E-01
   H -0.150624778E+02 -0.151649476E+01 -0.781999280E+00
   H  0.147912633E+02  0.136028457E+01 -0.723642448E+00
     4
 # iter = 39500  time[fs]=39.50000
   C -0.318798488E+01  0.557354887E-01  0.116930021E+00
   C  0.318893102E+01  0.354976805E-01  0.282409899E-01
   H -0.154218904E+02 -0.155280345E+01 -0.799354179E+00
   H  0.151407119E+02  0.139308630E+01 -0.739443037E+00
     4
 # iter = 40000  time[fs]=40.00000
   C -0.328019375E+01  0.573725809E-01  0.120755716E+00
   C  0.327984298E+01  0.354174356E-01  0.295916508E-01
   H -0.157816507E+02 -0.158914171E+01 -0.816718470E+00
   H  0.154905484E+02  0.142593781E+01 -0.755251703E+00
     4
 # iter = 40500  time[fs]=40.50000
   C -0.337284012E+01  0.590138417E-01  0.124590267E+00
   C  0.337119340E+01  0.353355654E-01  0.309390086E-01
   H -0.161417484E+02 -0.162551331E+01 -0.834096779E+00
   H  0.158407509E+02  0.145883200E+01 -0.771073127E+00
     4
 # iter = 41000  time[fs]=41.00000
   C -0.346590146E+01  0.606579950E-01  0.128432063E+00
   C  0.346295676E+01  0.352503374E-01  0.322815416E-01
   H -0.165021771E+02 -0.166192493E+01 -0.851496596E+00
   H  0.161912958E+02  0.149175903E+01 -0.786914855E+00
     4
 # iter = 41500  time[fs]=41.50000
   C -0.355935603E+01  0.623047122E-01  0.132280474E+00
   C  0.355511077E+01  0.351614424E-01  0.336191276E-01
   H -0.168629246E+02 -0.169837676E+01 -0.868918864E+00
   H  0.165421668E+02  0.152471578E+01 -0.802777876E+00
     4
 # iter = 42000  time[fs]=42.00000
   C -0.365318307E+01  0.639543086E-01  0.136135539E+00
   C  0.364763570E+01  0.350695369E-01  0.349525894E-01
   H -0.172239753E+02 -0.173486461E+01 -0.886360093E+00
   H  0.168933532E+02  0.155770368E+01 -0.818658740E+00
     4
 # iter = 42500  time[fs]=42.50000
   C -0.374736340E+01  0.656070053E-01  0.139997229E+00
   C  0.374051314E+01  0.349751359E-01  0.362825905E-01
   H -0.175853149E+02 -0.177138501E+01 -0.903817496E+00
   H  0.172448445E+02  0.159072357E+01 -0.834554700E+00
     4
 # iter = 43000  time[fs]=43.00000
   C -0.384187946E+01  0.672627067E-01  0.143865219E+00
   C  0.383372553E+01  0.348782793E-01  0.376093029E-01
   H -0.179469320E+02 -0.180793681E+01 -0.921290533E+00
   H  0.175966286E+02  0.162377418E+01 -0.850465254E+00
     4
 # iter = 43500  time[fs]=43.50000
   C -0.393671505E+01  0.689212063E-01  0.147739094E+00
   C  0.392725640E+01  0.347788381E-01  0.389327156E-01
   H -0.183088167E+02 -0.184451969E+01 -0.938779488E+00
   H  0.179486932E+02  0.165685349E+01 -0.866390722E+00
     4
 # iter = 44000  time[fs]=44.00000
   C -0.403185499E+01  0.705823742E-01  0.151618531E+00
   C  0.402109044E+01  0.346767955E-01  0.402529175E-01
   H -0.186709592E+02 -0.188113287E+01 -0.956284152E+00
   H  0.183010274E+02  0.168996008E+01 -0.882330929E+00
     4
 # iter = 44500  time[fs]=44.50000
   C -0.412728505E+01  0.722461623E-01  0.155503307E+00
   C  0.411521353E+01  0.345722535E-01  0.415701052E-01
   H -0.190333498E+02 -0.191777511E+01 -0.973803792E+00
   H  0.186536213E+02  0.172309315E+01 -0.898285176E+00
     4
 # iter = 45000  time[fs]=45.00000
   C -0.422299189E+01  0.739125315E-01  0.159393220E+00
   C  0.420961245E+01  0.344653244E-01  0.428844756E-01
   H -0.193959790E+02 -0.195444513E+01 -0.991337654E+00
   H  0.190064656E+02  0.175625198E+01 -0.914252737E+00
     4
 # iter = 45500  time[fs]=45.50000
   C -0.431896310E+01  0.755814181E-01  0.163288057E+00
   C  0.430427482E+01  0.343560790E-01  0.441961755E-01
   H -0.197588382E+02 -0.199114194E+01 -0.100888520E+01
   H  0.193595515E+02  0.178943574E+01 -0.930233101E+00
     4
 # iter = 46000  time[fs]=46.00000
   C -0.441518703E+01  0.772527448E-01  0.167187603E+00
   C  0.439918901E+01  0.342445637E-01  0.455053193E-01
   H -0.201219194E+02 -0.202786466E+01 -0.102644601E+01
   H  0.197128703E+02  0.182264352E+01 -0.946225887E+00
     4
 # iter = 46500  time[fs]=46.50000
   C -0.451165277E+01  0.789264395E-01  0.171091660E+00
   C  0.449434412E+01  0.341308283E-01  0.468120182E-01
   H -0.204852149E+02 -0.206461247E+01 -0.104401970E+01
   H  0.200664140E+02  0.185587448E+01 -0.962230716E+00
     4
 # iter = 47000  time[fs]=47.00000
   C -0.460835006E+01  0.806024387E-01  0.175000045E+00
   C  0.458972993E+01  0.340149310E-01  0.481163852E-01
   H -0.208487172E+02 -0.210138453E+01 -0.106160582E+01
   H  0.204201748E+02  0.188912787E+01 -0.978247181E+00
     4
 # iter = 47500  time[fs]=47.50000
   C -0.470526927E+01  0.822806829E-01  0.178912591E+00
   C  0.468533681E+01  0.338969313E-01  0.494185295E-01
   H -0.212124195E+02 -0.213818003E+01 -0.107920395E+01
   H  0.207741456E+02  0.192240298E+01 -0.994274884E+00
     4
 # iter = 48000  time[fs]=48.00000
   C -0.480240132E+01  0.839611129E-01  0.182829135E+00
   C  0.478115573E+01  0.337768850E-01  0.507185511E-01
   H -0.215763151E+02 -0.217499820E+01 -0.109681371E+01
   H  0.211283194E+02  0.195569913E+01 -0.101031345E+01
     4
 # iter = 48500  time[fs]=48.50000
   C -0.489973767E+01  0.856436703E-01  0.186749527E+00
   C  0.487717815E+01  0.336548443E-01  0.520165423E-01
   H -0.219403977E+02 -0.221183834E+01 -0.111443472E+01
   H  0.214826896E+02  0.198901567E+01 -0.102636255E+01
     4
 # iter = 49000  time[fs]=49.00000
   C -0.499727025E+01  0.873282983E-01  0.190673621E+00
   C  0.497339605E+01  0.335308598E-01  0.533125896E-01
   H -0.223046613E+02 -0.224869976E+01 -0.113206664E+01
   H  0.218372499E+02  0.202235197E+01 -0.104242184E+01
     4
 # iter = 49500  time[fs]=49.50000
   C -0.509499145E+01  0.890149425E-01  0.194601281E+00
   C  0.506980184E+01  0.334049808E-01  0.546067749E-01
   H -0.226691003E+02 -0.228558182E+01 -0.114970913E+01
   H  0.221919945E+02  0.205570742E+01 -0.105849102E+01
     4
 # iter = 50000  time[fs]=50.00000
   C -0.519289409E+01  0.907035504E-01  0.198532379E+00
   C  0.516638835E+01  0.332772558E-01  0.558991756E-01
   H -0.230337091E+02 -0.232248388E+01 -0.116736188E+01
   H  0.225469175E+02  0.208908148E+01 -0.107456977E+01
     4
 # iter = 50500  time[fs]=50.50000
   C -0.529097137E+01  0.923940713E-01  0.202466793E+00
   C  0.526314879E+01  0.331477315E-01  0.571898645E-01
   H -0.233984825E+02 -0.235940535E+01 -0.118502458E+01
   H  0.229020136E+02  0.212247358E+01 -0.109065782E+01
     4
 # iter = 51000  time[fs]=51.00000
   C -0.538921686E+01  0.940864558E-01  0.206404406E+00
   C  0.536007675E+01  0.330164530E-01  0.584789104E-01
   H -0.237634157E+02 -0.239634567E+01 -0.120269693E+01
   H  0.232572775E+02  0.215588321E+01 -0.110675490E+01
     4
 # iter = 51500  time[fs]=51.50000
   C -0.548762444E+01  0.957806565E-01  0.210345108E+00
   C  0.545716616E+01  0.328834639E-01  0.597663780E-01
   H -0.241285038E+02 -0.243330428E+01 -0.122037867E+01
   H  0.236127044E+02  0.218930987E+01 -0.112286073E+01
     4
 # iter = 52000  time[fs]=52.00000
   C -0.558618836E+01  0.974766274E-01  0.214288796E+00
   C  0.555441125E+01  0.327488066E-01  0.610523287E-01
   H -0.244937423E+02 -0.247028067E+01 -0.123806952E+01
   H  0.239682893E+02  0.222275309E+01 -0.113897506E+01
     4
 # iter = 52500  time[fs]=52.50000
   C -0.568490310E+01  0.991743242E-01  0.218235370E+00
   C  0.565180655E+01  0.326125221E-01  0.623368205E-01
   H -0.248591269E+02 -0.250727434E+01 -0.125576922E+01
   H  0.243240279E+02  0.225621240E+01 -0.115509767E+01
     4
 # iter = 53000  time[fs]=53.00000
   C -0.578376347E+01  0.100873704E+00  0.222184736E+00
   C  0.574934686E+01  0.324746499E-01  0.636199081E-01
   H -0.252246534E+02 -0.254428481E+01 -0.127347754E+01
   H  0.246799158E+02  0.228968737E+01 -0.117122831E+01
     4
 # iter = 53500  time[fs]=53.50000
   C -0.588276451E+01  0.102574725E+00  0.226136803E+00
   C  0.584702724E+01  0.323352284E-01  0.649016438E-01
   H -0.255903178E+02 -0.258131162E+01 -0.129119423E+01
   H  0.250359487E+02  0.232317757E+01 -0.118736677E+01
     4
 # iter = 54000  time[fs]=54.00000
   C -0.598190151E+01  0.104277347E+00  0.230091486E+00
   C  0.594484300E+01  0.321942948E-01  0.661820767E-01
   H -0.259561164E+02 -0.261835433E+01 -0.130891908E+01
   H  0.253921227E+02  0.235668261E+01 -0.120351284E+01
     4
 # iter = 54500  time[fs]=54.50000
   C -0.608116998E+01  0.105981532E+00  0.234048702E+00
   C  0.604278966E+01  0.320518850E-01  0.674612537E-01
   H -0.263220454E+02 -0.265541252E+01 -0.132665186E+01
   H  0.257484339E+02  0.239020209E+01 -0.121966630E+01
     4
 # iter = 55000  time[fs]=55.00000
   C -0.618056564E+01  0.107687242E+00  0.238008375E+00
   C  0.614086297E+01  0.319080339E-01  0.687392193E-01
   H -0.266881014E+02 -0.269248579E+01 -0.134439237E+01
   H  0.261048787E+02  0.242373564E+01 -0.123582697E+01
     4
 # iter = 55500  time[fs]=55.50000
   C -0.628008443E+01  0.109394440E+00  0.241970429E+00
   C  0.623905886E+01  0.317627751E-01  0.700160157E-01
   H -0.270542809E+02 -0.272957374E+01 -0.136214040E+01
   H  0.264614535E+02  0.245728290E+01 -0.125199467E+01
     4
 # iter = 56000  time[fs]=56.00000
   C -0.637972245E+01  0.111103092E+00  0.245934793E+00
   C  0.633737347E+01  0.316161412E-01  0.712916832E-01
   H -0.274205807E+02 -0.276667600E+01 -0.137989578E+01
   H  0.268181549E+02  0.249084353E+01 -0.126816920E+01
     4
 # iter = 56500  time[fs]=56.50000
   C -0.647947599E+01  0.112813164E+00  0.249901400E+00
   C  0.643580308E+01  0.314681638E-01  0.725662599E-01
   H -0.277869978E+02 -0.280379221E+01 -0.139765830E+01
   H  0.271749797E+02  0.252441720E+01 -0.128435039E+01
     4
 # iter = 57000  time[fs]=57.00000
   C -0.657934152E+01  0.114524623E+00  0.253870183E+00
   C  0.653434417E+01  0.313188736E-01  0.738397824E-01
   H -0.281535290E+02 -0.284092202E+01 -0.141542780E+01
   H  0.275319248E+02  0.255800357E+01 -0.130053808E+01
     4
 # iter = 57500  time[fs]=57.50000
   C -0.667931563E+01  0.116237437E+00  0.257841081E+00
   C  0.663299337E+01  0.311683000E-01  0.751122854E-01
   H -0.285201716E+02 -0.287806509E+01 -0.143320409E+01
   H  0.278889870E+02  0.259160236E+01 -0.131673211E+01
     4
 # iter = 58000  time[fs]=58.00000
   C -0.677939510E+01  0.117951574E+00  0.261814033E+00
   C  0.673174744E+01  0.310164720E-01  0.763838020E-01
   H -0.288869227E+02 -0.291522111E+01 -0.145098703E+01
   H  0.282461635E+02  0.262521325E+01 -0.133293233E+01
     4
 # iter = 58500  time[fs]=58.50000
   C -0.687957682E+01  0.119667007E+00  0.265788983E+00
   C  0.683060330E+01  0.308634171E-01  0.776543639E-01
   H -0.292537797E+02 -0.295238977E+01 -0.146877644E+01
   H  0.286034514E+02  0.265883596E+01 -0.134913858E+01
     4
 # iter = 59000  time[fs]=59.00000
   C -0.697985783E+01  0.121383705E+00  0.269765875E+00
   C  0.692955798E+01  0.307091625E-01  0.789240011E-01
   H -0.296207400E+02 -0.298957076E+01 -0.148657218E+01
   H  0.289608481E+02  0.269247021E+01 -0.136535071E+01
     4
 # iter = 59500  time[fs]=59.50000
   C -0.708023527E+01  0.123101640E+00  0.273744657E+00
   C  0.702860866E+01  0.305537343E-01  0.801927427E-01
   H -0.299878012E+02 -0.302676379E+01 -0.150437410E+01
   H  0.293183510E+02  0.272611575E+01 -0.138156860E+01
     4
 # iter = 60000  time[fs]=60.00000
   C -0.718070642E+01  0.124820787E+00  0.277725278E+00
   C  0.712775261E+01  0.303971577E-01  0.814606161E-01
   H -0.303549607E+02 -0.306396859E+01 -0.152218205E+01
   H  0.296759576E+02  0.275977230E+01 -0.139779210E+01
     4
 # iter = 60500  time[fs]=60.50000
   C -0.728126866E+01  0.126541117E+00  0.281707689E+00
   C  0.722698723E+01  0.302394573E-01  0.827276478E-01
   H -0.307222163E+02 -0.310118488E+01 -0.153999589E+01
   H  0.300336653E+02  0.279343962E+01 -0.141402110E+01
     4
 # iter = 61000  time[fs]=61.00000
   C -0.738191949E+01  0.128262606E+00  0.285691844E+00
   C  0.732631001E+01  0.300806570E-01  0.839938630E-01
   H -0.310895658E+02 -0.313841242E+01 -0.155781550E+01
   H  0.303914719E+02  0.282711747E+01 -0.143025545E+01
     4
 # iter = 61500  time[fs]=61.50000
   C -0.748265650E+01  0.129985230E+00  0.289677697E+00
   C  0.742571857E+01  0.299207799E-01  0.852592859E-01
   H -0.314570071E+02 -0.317565093E+01 -0.157564074E+01
   H  0.307493752E+02  0.286080562E+01 -0.144649505E+01
     4
 # iter = 62000  time[fs]=62.00000
   C -0.758347736E+01  0.131708964E+00  0.293665206E+00
   C  0.752521058E+01  0.297598484E-01  0.865239396E-01
   H -0.318245379E+02 -0.321290019E+01 -0.159347149E+01
   H  0.311073728E+02  0.289450384E+01 -0.146273977E+01
     4
 # iter = 62500  time[fs]=62.50000
   C -0.768437986E+01  0.133433785E+00  0.297654329E+00
   C  0.762478383E+01  0.295978842E-01  0.877878465E-01
   H -0.321921564E+02 -0.325015996E+01 -0.161130763E+01
   H  0.314654628E+02  0.292821192E+01 -0.147898951E+01
     4
 # iter = 63000  time[fs]=63.00000
   C -0.778536186E+01  0.135159671E+00  0.301645025E+00
   C  0.772443620E+01  0.294349085E-01  0.890510277E-01
   H -0.325598606E+02 -0.328743001E+01 -0.162914904E+01
   H  0.318236431E+02  0.296192963E+01 -0.149524415E+01
     4
 # iter = 63500  time[fs]=63.50000
   C -0.788642129E+01  0.136886599E+00  0.305637256E+00
   C  0.782416563E+01  0.292709419E-01  0.903135038E-01
   H -0.329276486E+02 -0.332471011E+01 -0.164699561E+01
   H  0.321819116E+02  0.299565679E+01 -0.151150358E+01
     4
 # iter = 64000  time[fs]=64.00000
   C -0.798755617E+01  0.138614549E+00  0.309630985E+00
   C  0.792397015E+01  0.291060041E-01  0.915752944E-01
   H -0.332955185E+02 -0.336200007E+01 -0.166484723E+01
   H  0.325402665E+02  0.302939318E+01 -0.152776771E+01
     4
 # iter = 64500  time[fs]=64.50000
   C -0.808876461E+01  0.140343500E+00  0.313626175E+00
   C  0.802384786E+01  0.289401146E-01  0.928364183E-01
   H -0.336634686E+02 -0.339929966E+01 -0.168270379E+01
   H  0.328987060E+02  0.306313863E+01 -0.154403644E+01
     4
 # iter = 65000  time[fs]=65.00000
   C -0.819004475E+01  0.142073431E+00  0.317622793E+00
   C  0.812379692E+01  0.287732921E-01  0.940968937E-01
   H -0.340314973E+02 -0.343660869E+01 -0.170056520E+01
   H  0.332572282E+02  0.309689294E+01 -0.156030967E+01
     4
 # iter = 65500  time[fs]=65.50000
   C -0.829139483E+01  0.143804325E+00  0.321620804E+00
   C  0.822381558E+01  0.286055550E-01  0.953567380E-01
   H -0.343996028E+02 -0.347392697E+01 -0.171843135E+01
   H  0.336158314E+02  0.313065593E+01 -0.157658731E+01
     4
 # iter = 66000  time[fs]=66.00000
   C -0.839281315E+01  0.145536161E+00  0.325620177E+00
   C  0.832390213E+01  0.284369209E-01  0.966159680E-01
   H -0.347677836E+02 -0.351125430E+01 -0.173630215E+01
   H  0.339745139E+02  0.316442743E+01 -0.159286927E+01
     4
 # iter = 66500  time[fs]=66.50000
   C -0.849429805E+01  0.147268921E+00  0.329620879E+00
   C  0.842405494E+01  0.282674072E-01  0.978745998E-01
   H -0.351360381E+02 -0.354859052E+01 -0.175417750E+01
   H  0.343332742E+02  0.319820727E+01 -0.160915545E+01
     4
 # iter = 67000  time[fs]=67.00000
   C -0.859584795E+01  0.149002588E+00  0.333622882E+00
   C  0.852427241E+01  0.280970306E-01  0.991326490E-01
   H -0.355043648E+02 -0.358593543E+01 -0.177205731E+01
   H  0.346921105E+02  0.323199529E+01 -0.162544579E+01
     4
 # iter = 67500  time[fs]=67.50000
   C -0.869746130E+01  0.150737144E+00  0.337626156E+00
   C  0.862455303E+01  0.279258074E-01  0.100390130E+00
   H -0.358727622E+02 -0.362328887E+01 -0.178994150E+01
   H  0.350510214E+02  0.326579132E+01 -0.164174018E+01
     4
 # iter = 68000  time[fs]=68.00000
   C -0.879913664E+01  0.152472573E+00  0.341630673E+00
   C  0.872489531E+01  0.277537535E-01  0.101647059E+00
   H -0.362412289E+02 -0.366065067E+01 -0.180782998E+01
   H  0.354100054E+02  0.329959521E+01 -0.165803856E+01
     4
 # iter = 68500  time[fs]=68.50000
   C -0.890087253E+01  0.154208858E+00  0.345636405E+00
   C  0.882529784E+01  0.275808843E-01  0.102903447E+00
   H -0.366097636E+02 -0.369802067E+01 -0.182572266E+01
   H  0.357690610E+02  0.333340681E+01 -0.167434085E+01
     4
 # iter = 69000  time[fs]=69.00000
   C -0.900266759E+01  0.155945982E+00  0.349643326E+00
   C  0.892575923E+01  0.274072150E-01  0.104159310E+00
   H -0.369783649E+02 -0.373539871E+01 -0.184361947E+01
   H  0.361281869E+02  0.336722598E+01 -0.169064697E+01
     4
 # iter = 69500  time[fs]=69.50000
   C -0.910452048E+01  0.157683932E+00  0.353651411E+00
   C  0.902627816E+01  0.272327600E-01  0.105414660E+00
   H -0.373470316E+02 -0.377278464E+01 -0.186152033E+01
   H  0.364873817E+02  0.340105257E+01 -0.170695684E+01
     4
 # iter = 70000  time[fs]=70.00000
   C -0.920642990E+01  0.159422690E+00  0.357660634E+00
   C  0.912685333E+01  0.270575337E-01  0.106669509E+00
   H -0.377157623E+02 -0.381017831E+01 -0.187942516E+01
   H  0.368466440E+02  0.343488644E+01 -0.172327041E+01
     4
 # iter = 70500  time[fs]=70.50000
   C -0.930839461E+01  0.161162244E+00  0.361670973E+00
   C  0.922748351E+01  0.268815500E-01  0.107923869E+00
   H -0.380845559E+02 -0.384757958E+01 -0.189733389E+01
   H  0.372059726E+02  0.346872746E+01 -0.173958759E+01
     4
 # iter = 71000  time[fs]=71.00000
   C -0.941041340E+01  0.162902578E+00  0.365682403E+00
   C  0.932816747E+01  0.267048222E-01  0.109177753E+00
   H -0.384534111E+02 -0.388498831E+01 -0.191524645E+01
   H  0.375653662E+02  0.350257550E+01 -0.175590832E+01
     4
 # iter = 71500  time[fs]=71.50000
   C -0.951248509E+01  0.164643679E+00  0.369694903E+00
   C  0.942890407E+01  0.265273637E-01  0.110431171E+00
   H -0.388223269E+02 -0.392240436E+01 -0.193316276E+01
   H  0.379248237E+02  0.353643043E+01 -0.177223254E+01
     4
 # iter = 72000  time[fs]=72.00000
   C -0.961460855E+01  0.166385532E+00  0.373708450E+00
   C  0.952969217E+01  0.263491871E-01  0.111684134E+00
   H -0.391913020E+02 -0.395982760E+01 -0.195108276E+01
   H  0.382843437E+02  0.357029214E+01 -0.178856018E+01
     4
 # iter = 72500  time[fs]=72.50000
   C -0.971678268E+01  0.168128126E+00  0.377723023E+00
   C  0.963053067E+01  0.261703051E-01  0.112936652E+00
   H -0.395603354E+02 -0.399725789E+01 -0.196900639E+01
   H  0.386439253E+02  0.360416048E+01 -0.180489118E+01
     4
 # iter = 73000  time[fs]=73.00000
   C -0.981900641E+01  0.169871446E+00  0.381738603E+00
   C  0.973141851E+01  0.259907298E-01  0.114188737E+00
   H -0.399294261E+02 -0.403469513E+01 -0.198693357E+01
   H  0.390035672E+02  0.363803536E+01 -0.182122548E+01
     4
 # iter = 73500  time[fs]=73.50000
   C -0.992127872E+01  0.171615481E+00  0.385755168E+00
   C  0.983235467E+01  0.258104730E-01  0.115440397E+00
   H -0.402985730E+02 -0.407213917E+01 -0.200486425E+01
   H  0.393632685E+02  0.367191666E+01 -0.183756303E+01
     4
 # iter = 74000  time[fs]=74.00000
   C -0.100235986E+02  0.173360217E+00  0.389772699E+00
   C  0.993333815E+01  0.256295463E-01  0.116691642E+00
   H -0.406677750E+02 -0.410958990E+01 -0.202279836E+01
   H  0.397230279E+02  0.370580426E+01 -0.185390376E+01
     4
 # iter = 74500  time[fs]=74.50000
   C -0.101259651E+02  0.175105644E+00  0.393791179E+00
   C  0.100343680E+02  0.254479611E-01  0.117942482E+00
   H -0.410370313E+02 -0.414704721E+01 -0.204073585E+01
   H  0.400828446E+02  0.373969806E+01 -0.187024761E+01
     4
 # iter = 75000  time[fs]=75.00000
   C -0.102283772E+02  0.176851750E+00  0.397810588E+00
   C  0.101354432E+02  0.252657283E-01  0.119192924E+00
   H -0.414063409E+02 -0.418451099E+01 -0.205867666E+01
   H  0.404427174E+02  0.377359795E+01 -0.188659455E+01
     4
 # iter = 75500  time[fs]=75.50000
   C -0.103308341E+02  0.178598522E+00  0.401830908E+00
   C  0.102365630E+02  0.250828587E-01  0.120442979E+00
   H -0.417757028E+02 -0.422198112E+01 -0.207662072E+01
   H  0.408026455E+02  0.380750383E+01 -0.190294451E+01
     4
 # iter = 76000  time[fs]=76.00000
   C -0.104333348E+02  0.180345951E+00  0.405852124E+00
   C  0.103377263E+02  0.248993628E-01  0.121692654E+00
   H -0.421451162E+02 -0.425945749E+01 -0.209456800E+01
   H  0.411626278E+02  0.384141560E+01 -0.191929744E+01
     4
 # iter = 76500  time[fs]=76.50000
   C -0.105358786E+02  0.182094025E+00  0.409874217E+00
   C  0.104389325E+02  0.247152508E-01  0.122941957E+00
   H -0.425145801E+02 -0.429694001E+01 -0.211251842E+01
   H  0.415226635E+02  0.387533316E+01 -0.193565329E+01
     4
 # iter = 77000  time[fs]=77.00000
   C -0.106384645E+02  0.183842734E+00  0.413897172E+00
   C  0.105401805E+02  0.245305327E-01  0.124190896E+00
   H -0.428840937E+02 -0.433442856E+01 -0.213047195E+01
   H  0.418827516E+02  0.390925642E+01 -0.195201202E+01
     4
 # iter = 77500  time[fs]=77.50000
   C -0.107410917E+02  0.185592068E+00  0.417920973E+00
   C  0.106414697E+02  0.243452182E-01  0.125439479E+00
   H -0.432536561E+02 -0.437192306E+01 -0.214842852E+01
   H  0.422428913E+02  0.394318528E+01 -0.196837357E+01
     4
 # iter = 78000  time[fs]=78.00000
   C -0.108437595E+02  0.187342015E+00  0.421945604E+00
   C  0.107427992E+02  0.241593169E-01  0.126687713E+00
   H -0.436232667E+02 -0.440942340E+01 -0.216638810E+01
   H  0.426030817E+02  0.397711965E+01 -0.198473790E+01
     4
 # iter = 78500  time[fs]=78.50000
   C -0.109464671E+02  0.189092568E+00  0.425971050E+00
   C  0.108441683E+02  0.239728381E-01  0.127935606E+00
   H -0.439929244E+02 -0.444692949E+01 -0.218435062E+01
   H  0.429633219E+02  0.401105944E+01 -0.200110496E+01
     4
 # iter = 79000  time[fs]=79.00000
   C -0.110492137E+02  0.190843715E+00  0.429997298E+00
   C  0.109455762E+02  0.237857908E-01  0.129183163E+00
   H -0.443626287E+02 -0.448444123E+01 -0.220231605E+01
   H  0.433236112E+02  0.404500457E+01 -0.201747471E+01
     4
 # iter = 79500  time[fs]=79.50000
   C -0.111519986E+02  0.192595448E+00  0.434024332E+00
   C  0.110470223E+02  0.235981839E-01  0.130430393E+00
   H -0.447323787E+02 -0.452195854E+01 -0.222028434E+01
   H  0.436839488E+02  0.407895495E+01 -0.203384711E+01
     4
 # iter = 80000  time[fs]=80.00000
   C -0.112548211E+02  0.194347758E+00  0.438052138E+00
   C  0.111485057E+02  0.234100261E-01  0.131677302E+00
   H -0.451021736E+02 -0.455948133E+01 -0.223825544E+01
   H  0.440443338E+02  0.411291051E+01 -0.205022212E+01
