     4
 # iter = 25000  time[fs]=25.00000
   C -0.996537480E+00 -0.254184630E-01  0.360286645E-01
   C  0.972102790E+00 -0.152591522E-01 -0.376742109E-01
   H -0.526348114E+01 -0.350676849E+00  0.259300949E+00
   H  0.529957830E+01  0.441953287E+00  0.325816858E+00
     4
 # iter = 25500  time[fs]=25.50000
   C -0.104380230E+01 -0.269892520E-01  0.342480880E-01
   C  0.101203970E+01 -0.199176111E-01 -0.410821980E-01
   H -0.560800202E+01 -0.383013650E+00  0.263147753E+00
   H  0.560865580E+01  0.458336736E+00  0.338155968E+00
     4
 # iter = 26000  time[fs]=26.00000
   C -0.109502123E+01 -0.294599254E-01  0.316643519E-01
   C  0.105396161E+01 -0.256431286E-01 -0.456943445E-01
   H -0.596333284E+01 -0.421129859E+00  0.261841657E+00
   H  0.591790802E+01  0.469838323E+00  0.345471222E+00
     4
 # iter = 26500  time[fs]=26.50000
   C -0.114726135E+01 -0.301432791E-01  0.309509226E-01
   C  0.110075300E+01 -0.292993511E-01 -0.483556230E-01
   H -0.631275973E+01 -0.448906304E+00  0.271426125E+00
   H  0.624284932E+01  0.492493331E+00  0.363814377E+00
     4
 # iter = 27000  time[fs]=27.00000
   C -0.120015361E+01 -0.289035504E-01  0.322314494E-01
   C  0.115233247E+01 -0.307328927E-01 -0.488966209E-01
   H -0.665496633E+01 -0.465512012E+00  0.292670767E+00
   H  0.658375911E+01  0.527048324E+00  0.393946395E+00
     4
 # iter = 27500  time[fs]=27.50000
   C -0.125547359E+01 -0.277347483E-01  0.335013545E-01
   C  0.120614668E+01 -0.322803774E-01 -0.496402693E-01
   H -0.700148550E+01 -0.482878794E+00  0.313593661E+00
   H  0.692820093E+01  0.561486597E+00  0.423863200E+00
     4
 # iter = 28000  time[fs]=28.00000
   C -0.131443168E+01 -0.280477238E-01  0.333407833E-01
   C  0.126034344E+01 -0.355949696E-01 -0.522280351E-01
   H -0.736041062E+01 -0.509444155E+00  0.325714255E+00
   H  0.726730479E+01  0.587299461E+00  0.445066820E+00
     4
 # iter = 28500  time[fs]=28.50000
   C -0.137627452E+01 -0.292707596E-01  0.323138992E-01
   C  0.131540804E+01 -0.400094327E-01 -0.559826831E-01
   H -0.772799118E+01 -0.541764301E+00  0.332438084E+00
   H  0.760416056E+01  0.607879908E+00  0.460959170E+00
     4
 # iter = 29000  time[fs]=29.00000
   C -0.143943694E+01 -0.300031520E-01  0.318150476E-01
   C  0.137281288E+01 -0.438859327E-01 -0.592578395E-01
   H -0.809554463E+01 -0.571427830E+00  0.342142809E+00
   H  0.794688147E+01  0.631600543E+00  0.479920417E+00
     4
 # iter = 29500  time[fs]=29.50000
   C -0.150328560E+01 -0.297609894E-01  0.323227276E-01
   C  0.143297396E+01 -0.466586946E-01 -0.614804438E-01
   H -0.845992117E+01 -0.595519480E+00  0.357714593E+00
   H  0.829811386E+01  0.661338227E+00  0.504834046E+00
     4
 # iter = 30000  time[fs]=30.00000
   C -0.156836247E+01 -0.292219925E-01  0.331545926E-01
   C  0.149496314E+01 -0.491205902E-01 -0.634371482E-01
   H -0.882496708E+01 -0.618087662E+00  0.375080025E+00
   H  0.865356111E+01  0.693004191E+00  0.531617164E+00
     4
 # iter = 30500  time[fs]=30.50000
   C -0.163530093E+01 -0.291423499E-01  0.335505219E-01
   C  0.155777394E+01 -0.521559335E-01 -0.660069409E-01
   H -0.919502416E+01 -0.643651610E+00  0.389697971E+00
   H  0.900848221E+01  0.722042590E+00  0.555719100E+00
     4
 # iter = 31000  time[fs]=31.00000
   C -0.170400100E+01 -0.295327573E-01  0.334964970E-01
   C  0.162128424E+01 -0.557765208E-01 -0.691970406E-01
   H -0.956998459E+01 -0.672262215E+00  0.401497975E+00
   H  0.936263485E+01  0.748373957E+00  0.577064896E+00
     4
 # iter = 31500  time[fs]=31.50000
   C -0.177386989E+01 -0.299002196E-01  0.334827012E-01
   C  0.168597205E+01 -0.594046337E-01 -0.724257834E-01
   H -0.994673807E+01 -0.700951671E+00  0.413430289E+00
   H  0.971882058E+01  0.774943612E+00  0.598603821E+00
     4
 # iter = 32000  time[fs]=32.00000
   C -0.184451189E+01 -0.299392495E-01  0.338122268E-01
   C  0.175210572E+01 -0.626818425E-01 -0.753313321E-01
   H -0.103233145E+02 -0.727877110E+00  0.427322123E+00
   H  0.100787325E+02  0.803573491E+00  0.622161320E+00
     4
 # iter = 32500  time[fs]=32.50000
   C -0.191597518E+01 -0.297797426E-01  0.343531270E-01
   C  0.181945289E+01 -0.657590752E-01 -0.780616646E-01
   H -0.107003684E+02 -0.753806518E+00  0.442391557E+00
   H  0.104414648E+02  0.833474415E+00  0.646951355E+00
     4
 # iter = 33000  time[fs]=33.00000
   C -0.198845325E+01 -0.296892505E-01  0.348360925E-01
   C  0.188762788E+01 -0.689482783E-01 -0.809261640E-01
   H -0.110793921E+02 -0.780333743E+00  0.457032264E+00
   H  0.108052980E+02  0.863032538E+00  0.671362902E+00
     4
 # iter = 33500  time[fs]=33.50000
   C -0.206195759E+01 -0.297463779E-01  0.351810124E-01
   C  0.195647300E+01 -0.723402865E-01 -0.840134307E-01
   H -0.114607553E+02 -0.807920431E+00  0.470771324E+00
   H  0.111696580E+02  0.891769098E+00  0.694919728E+00
     4
 # iter = 34000  time[fs]=34.00000
   C -0.213631364E+01 -0.298375158E-01  0.355002042E-01
   C  0.202606165E+01 -0.758010234E-01 -0.871874327E-01
   H -0.118436844E+02 -0.835876449E+00  0.484288636E+00
   H  0.115351342E+02  0.920359800E+00  0.718299804E+00
     4
 # iter = 34500  time[fs]=34.50000
   C -0.221135492E+01 -0.298515950E-01  0.359036254E-01
   C  0.209646971E+01 -0.791994005E-01 -0.903153661E-01
   H -0.122274295E+02 -0.863527492E+00  0.498249207E+00
   H  0.119023096E+02  0.949465867E+00  0.742166405E+00
     4
 # iter = 35000  time[fs]=35.00000
   C -0.228703317E+01 -0.297908275E-01  0.363881034E-01
   C  0.216764542E+01 -0.825369068E-01 -0.933972098E-01
   H -0.126119270E+02 -0.890878977E+00  0.512639172E+00
   H  0.122710947E+02  0.979069342E+00  0.766503431E+00
     4
 # iter = 35500  time[fs]=35.50000
   C -0.236336641E+01 -0.297193239E-01  0.368886963E-01
   C  0.223946899E+01 -0.858874897E-01 -0.965055787E-01
   H -0.129974910E+02 -0.918307922E+00  0.527073809E+00
   H  0.126410351E+02  0.100878137E+01  0.790923717E+00
     4
 # iter = 36000  time[fs]=36.00000
   C -0.244034760E+01 -0.296721413E-01  0.373696254E-01
   C  0.231185853E+01 -0.892911343E-01 -0.996792779E-01
   H -0.133842674E+02 -0.946017609E+00  0.541342790E+00
   H  0.130118567E+02  0.103838795E+01  0.815214810E+00
     4
 # iter = 36500  time[fs]=36.50000
   C -0.251792337E+01 -0.296344852E-01  0.378450592E-01
   C  0.238479399E+01 -0.927295300E-01 -0.102898949E+00
   H -0.137721083E+02 -0.973912863E+00  0.555534824E+00
   H  0.133835901E+02  0.106797471E+01  0.839463728E+00
     4
 # iter = 37000  time[fs]=37.00000
   C -0.259603212E+01 -0.295800840E-01  0.383407243E-01
   C  0.245827190E+01 -0.961709770E-01 -0.106131959E+00
   H -0.141608016E+02 -0.100183010E+01  0.569807541E+00
   H  0.137563394E+02  0.109769648E+01  0.863826603E+00
     4
 # iter = 37500  time[fs]=37.50000
   C -0.267463515E+01 -0.295027182E-01  0.388623646E-01
   C  0.253226818E+01 -0.996072803E-01 -0.109369278E+00
   H -0.145502596E+02 -0.102972636E+01  0.584198433E+00
   H  0.141300926E+02  0.112758807E+01  0.888339422E+00
     4
 # iter = 38000  time[fs]=38.00000
   C -0.275371295E+01 -0.294127473E-01  0.393992050E-01
   C  0.260674186E+01 -0.103049685E+00 -0.112621407E+00
   H -0.149404979E+02 -0.105765843E+01  0.598645660E+00
   H  0.145047421E+02  0.115758505E+01  0.912938844E+00
     4
 # iter = 38500  time[fs]=38.50000
   C -0.283324694E+01 -0.293191168E-01  0.399419363E-01
   C  0.268165594E+01 -0.106507822E+00 -0.115897305E+00
   H -0.153315269E+02 -0.108567492E+01  0.613095917E+00
   H  0.148801921E+02  0.118763172E+01  0.937570163E+00
     4
 # iter = 39000  time[fs]=39.00000
   C -0.291321167E+01 -0.292218054E-01  0.404902607E-01
   C  0.275698598E+01 -0.109980869E+00 -0.119195547E+00
   H -0.157233066E+02 -0.111377101E+01  0.627549700E+00
   H  0.152564038E+02  0.121772638E+01  0.962232615E+00
     4
 # iter = 39500  time[fs]=39.50000
   C -0.299357967E+01 -0.291168307E-01  0.410478804E-01
   C  0.283271406E+01 -0.113463405E+00 -0.122510168E+00
   H -0.161157757E+02 -0.114191840E+01  0.642031284E+00
   H  0.156333649E+02  0.124789129E+01  0.986949315E+00
     4
 # iter = 40000  time[fs]=40.00000
   C -0.307432745E+01 -0.290024370E-01  0.416163048E-01
   C  0.290882134E+01 -0.116952654E+00 -0.125837901E+00
   H -0.165088892E+02 -0.117010241E+01  0.656551610E+00
   H  0.160110525E+02  0.127813551E+01  0.101173011E+01
     4
 # iter = 40500  time[fs]=40.50000
   C -0.315543605E+01 -0.288798311E-01  0.421941103E-01
   C  0.298528706E+01 -0.120449340E+00 -0.129179022E+00
   H -0.169026220E+02 -0.119832635E+01  0.671103871E+00
   H  0.163894278E+02  0.130845043E+01  0.103656714E+01
     4
 # iter = 41000  time[fs]=41.00000
   C -0.323688840E+01 -0.287506748E-01  0.427794436E-01
   C  0.306209133E+01 -0.123954753E+00 -0.132534417E+00
   H -0.172969538E+02 -0.122659651E+01  0.685678538E+00
   H  0.167684519E+02  0.133882487E+01  0.106144988E+01
     4
 # iter = 41500  time[fs]=41.50000
   C -0.331866764E+01 -0.286155165E-01  0.433715878E-01
   C  0.313921683E+01 -0.127468913E+00 -0.135903737E+00
   H -0.176918597E+02 -0.125491269E+01  0.700272764E+00
   H  0.171480941E+02  0.136925439E+01  0.108637457E+01
     4
 # iter = 42000  time[fs]=42.00000
   C -0.340075735E+01 -0.284741448E-01  0.439706051E-01
   C  0.321664831E+01 -0.130990981E+00 -0.139285806E+00
   H -0.180873121E+02 -0.128327034E+01  0.714888252E+00
   H  0.175283303E+02  0.139973924E+01  0.111134203E+01
     4
 # iter = 42500  time[fs]=42.50000
   C -0.348314231E+01 -0.283264465E-01  0.445764767E-01
   C  0.329437144E+01 -0.134520261E+00 -0.142679622E+00
   H -0.184832854E+02 -0.131166568E+01  0.729526116E+00
   H  0.179091372E+02  0.143027915E+01  0.113635257E+01
     4
 # iter = 43000  time[fs]=43.00000
   C -0.356580865E+01 -0.281726656E-01  0.451888421E-01
   C  0.337237246E+01 -0.138056504E+00 -0.146084653E+00
   H -0.188797579E+02 -0.134009726E+01  0.744185322E+00
   H  0.182904910E+02  0.146087180E+01  0.116140436E+01
     4
 # iter = 43500  time[fs]=43.50000
   C -0.364874355E+01 -0.280131657E-01  0.458072343E-01
   C  0.345063838E+01 -0.141599626E+00 -0.149500558E+00
   H -0.192767098E+02 -0.136856447E+01  0.758864110E+00
   H  0.186723685E+02  0.149151419E+01  0.118649491E+01
     4
 # iter = 44000  time[fs]=44.00000
   C -0.373193492E+01 -0.278482130E-01  0.464312959E-01
   C  0.352915710E+01 -0.145149454E+00 -0.152926925E+00
   H -0.196741223E+02 -0.139706628E+01  0.773561297E+00
   H  0.190547483E+02  0.152220399E+01  0.121162235E+01
     4
 # iter = 44500  time[fs]=44.50000
   C -0.381537137E+01 -0.276779713E-01  0.470607819E-01
   C  0.360791741E+01 -0.148705719E+00 -0.156363266E+00
   H -0.200719768E+02 -0.142560121E+01  0.788276305E+00
   H  0.194376109E+02  0.155293953E+01  0.123678543E+01
     4
 # iter = 45000  time[fs]=45.00000
   C -0.389904219E+01 -0.275025864E-01  0.476954747E-01
   C  0.368690882E+01 -0.152268151E+00 -0.159809112E+00
   H -0.204702560E+02 -0.145416776E+01  0.803008651E+00
   H  0.198209378E+02  0.158371930E+01  0.126198304E+01
     4
 # iter = 45500  time[fs]=45.50000
   C -0.398293737E+01 -0.273222269E-01  0.483351420E-01
   C  0.376612143E+01 -0.155836528E+00 -0.163264054E+00
   H -0.208689436E+02 -0.148276472E+01  0.817757706E+00
   H  0.202047115E+02  0.161454169E+01  0.128721397E+01
     4
 # iter = 46000  time[fs]=46.00000
   C -0.406704749E+01 -0.271370709E-01  0.489795495E-01
   C  0.384554593E+01 -0.159410661E+00 -0.166727729E+00
   H -0.212680244E+02 -0.151139103E+01  0.832522775E+00
   H  0.205889152E+02  0.164540508E+01  0.131247696E+01
     4
 # iter = 46500  time[fs]=46.50000
   C -0.415136373E+01 -0.269472851E-01  0.496284805E-01
   C  0.392517356E+01 -0.162990364E+00 -0.170199793E+00
   H -0.216674839E+02 -0.154004567E+01  0.847303217E+00
   H  0.209735332E+02  0.167630796E+01  0.133777082E+01
     4
 # iter = 47000  time[fs]=47.00000
   C -0.423587772E+01 -0.267530213E-01  0.502817390E-01
   C  0.400499608E+01 -0.166575452E+00 -0.173679912E+00
   H -0.220673084E+02 -0.156872764E+01  0.862098472E+00
   H  0.213585505E+02  0.170724893E+01  0.136309449E+01
     4
 # iter = 47500  time[fs]=47.50000
   C -0.432058161E+01 -0.265544220E-01  0.509391436E-01
   C  0.408500572E+01 -0.170165744E+00 -0.177167770E+00
   H -0.224674849E+02 -0.159743597E+01  0.876908023E+00
   H  0.217439532E+02  0.173822669E+01  0.138844697E+01
     4
 # iter = 48000  time[fs]=48.00000
   C -0.440546797E+01 -0.263516250E-01  0.516005217E-01
   C  0.416519516E+01 -0.173761072E+00 -0.180663068E+00
   H -0.228680010E+02 -0.162616975E+01  0.891731370E+00
   H  0.221297277E+02  0.176923999E+01  0.141382728E+01
     4
 # iter = 48500  time[fs]=48.50000
   C -0.449052980E+01 -0.261447636E-01  0.522657098E-01
   C  0.424555746E+01 -0.177361276E+00 -0.184165527E+00
   H -0.232688452E+02 -0.165492812E+01  0.906568032E+00
   H  0.225158614E+02  0.180028763E+01  0.143923452E+01
     4
 # iter = 49000  time[fs]=49.00000
   C -0.457576046E+01 -0.259339651E-01  0.529345537E-01
   C  0.432608607E+01 -0.180966201E+00 -0.187674884E+00
   H -0.236700063E+02 -0.168371028E+01  0.921417548E+00
   H  0.229023422E+02  0.183136848E+01  0.146466780E+01
     4
 # iter = 49500  time[fs]=49.50000
   C -0.466115368E+01 -0.257193511E-01  0.536069083E-01
   C  0.440677481E+01 -0.184575703E+00 -0.191190887E+00
   H -0.240714737E+02 -0.171251545E+01  0.936279488E+00
   H  0.232891586E+02  0.186248145E+01  0.149012628E+01
     4
 # iter = 50000  time[fs]=50.00000
   C -0.474670351E+01 -0.255010376E-01  0.542826369E-01
   C  0.448761781E+01 -0.188189640E+00 -0.194713300E+00
   H -0.244732374E+02 -0.174134288E+01  0.951153439E+00
   H  0.236762996E+02  0.189362551E+01  0.151560917E+01
     4
 # iter = 50500  time[fs]=50.50000
   C -0.483240433E+01 -0.252791357E-01  0.549616103E-01
   C  0.456860950E+01 -0.191807878E+00 -0.198241897E+00
   H -0.248752878E+02 -0.177019188E+01  0.966039011E+00
   H  0.240637548E+02  0.192479969E+01  0.154111571E+01
     4
 # iter = 51000  time[fs]=51.00000
   C -0.491825079E+01 -0.250537519E-01  0.556437063E-01
   C  0.464974461E+01 -0.195430289E+00 -0.201776464E+00
   H -0.252776159E+02 -0.179906176E+01  0.980935832E+00
   H  0.244515143E+02  0.195600306E+01  0.156664517E+01
     4
 # iter = 51500  time[fs]=51.50000
   C -0.500423781E+01 -0.248249883E-01  0.563288090E-01
   C  0.473101812E+01 -0.199056749E+00 -0.205316799E+00
   H -0.256802129E+02 -0.182795190E+01  0.995843545E+00
   H  0.248395687E+02  0.198723471E+01  0.159219687E+01
     4
 # iter = 52000  time[fs]=52.00000
   C -0.509036058E+01 -0.245929429E-01  0.570168090E-01
   C  0.481242529E+01 -0.202687141E+00 -0.208862708E+00
   H -0.260830706E+02 -0.185686168E+01  0.101076181E+01
   H  0.252279088E+02  0.201849380E+01  0.161777015E+01
     4
 # iter = 52500  time[fs]=52.50000
   C -0.517661449E+01 -0.243577095E-01  0.577076021E-01
   C  0.489396157E+01 -0.206321351E+00 -0.212414007E+00
   H -0.264861810E+02 -0.188579051E+01  0.102569031E+01
   H  0.256165260E+02  0.204977951E+01  0.164336436E+01
     4
 # iter = 53000  time[fs]=53.00000
   C -0.526299520E+01 -0.241193781E-01  0.584010899E-01
   C  0.497562267E+01 -0.209959271E+00 -0.215970523E+00
   H -0.268895365E+02 -0.191473784E+01  0.104062873E+01
   H  0.260054120E+02  0.208109106E+01  0.166897891E+01
     4
 # iter = 53500  time[fs]=53.50000
   C -0.534949854E+01 -0.238780353E-01  0.590971785E-01
   C  0.505740448E+01 -0.213600798E+00 -0.219532088E+00
   H -0.272931300E+02 -0.194370312E+01  0.105557678E+01
   H  0.263945591E+02  0.211242770E+01  0.169461322E+01
     4
 # iter = 54000  time[fs]=54.00000
   C -0.543612055E+01 -0.236337641E-01  0.597957789E-01
   C  0.513930309E+01 -0.217245831E+00 -0.223098544E+00
   H -0.276969544E+02 -0.197268585E+01  0.107053417E+01
   H  0.267839595E+02  0.214378873E+01  0.172026672E+01
     4
 # iter = 54500  time[fs]=54.50000
   C -0.552285744E+01 -0.233866442E-01  0.604968065E-01
   C  0.522131478E+01 -0.220894274E+00 -0.226669738E+00
   H -0.281010033E+02 -0.200168554E+01  0.108550063E+01
   H  0.271736061E+02  0.217517345E+01  0.174593889E+01
     4
 # iter = 55000  time[fs]=55.00000
   C -0.560970563E+01 -0.231367525E-01  0.612001805E-01
   C  0.530343598E+01 -0.224546035E+00 -0.230245527E+00
   H -0.285052701E+02 -0.203070171E+01  0.110047591E+01
   H  0.275634919E+02  0.220658121E+01  0.177162922E+01
     4
 # iter = 55500  time[fs]=55.50000
   C -0.569666165E+01 -0.228841626E-01  0.619058243E-01
   C  0.538566331E+01 -0.228201026E+00 -0.233825771E+00
   H -0.289097489E+02 -0.205973392E+01  0.111545975E+01
   H  0.279536103E+02  0.223801138E+01  0.179733722E+01
     4
 # iter = 56000  time[fs]=56.00000
   C -0.578372223E+01 -0.226289455E-01  0.626136646E-01
   C  0.546799351E+01 -0.231859161E+00 -0.237410340E+00
   H -0.293144338E+02 -0.208878172E+01  0.113045193E+01
   H  0.283439549E+02  0.226946335E+01  0.182306241E+01
     4
 # iter = 56500  time[fs]=56.50000
   C -0.587088420E+01 -0.223711694E-01  0.633236315E-01
   C  0.555042348E+01 -0.235520359E+00 -0.240999105E+00
   H -0.297193192E+02 -0.211784471E+01  0.114545220E+01
   H  0.287345195E+02  0.230093655E+01  0.184880435E+01
     4
 # iter = 57000  time[fs]=57.00000
   C -0.595814458E+01 -0.221109002E-01  0.640356585E-01
   C  0.563295026E+01 -0.239184540E+00 -0.244591946E+00
   H -0.301243997E+02 -0.214692248E+01  0.116046036E+01
   H  0.291252984E+02  0.233243042E+01  0.187456259E+01
     4
 # iter = 57500  time[fs]=57.50000
   C -0.604550046E+01 -0.218482012E-01  0.647496818E-01
   C  0.571557100E+01 -0.242851628E+00 -0.248188746E+00
   H -0.305296701E+02 -0.217601465E+01  0.117547619E+01
   H  0.295162857E+02  0.236394441E+01  0.190033672E+01
     4
 # iter = 58000  time[fs]=58.00000
   C -0.613294909E+01 -0.215831334E-01  0.654656407E-01
   C  0.579828299E+01 -0.246521551E+00 -0.251789396E+00
   H -0.309351255E+02 -0.220512086E+01  0.119049949E+01
   H  0.299074761E+02  0.239547803E+01  0.192612635E+01
     4
 # iter = 58500  time[fs]=58.50000
   C -0.622048783E+01 -0.213157556E-01  0.661834769E-01
   C  0.588108361E+01 -0.250194237E+00 -0.255393787E+00
   H -0.313407611E+02 -0.223424073E+01  0.120553006E+01
   H  0.302988644E+02  0.242703076E+01  0.195193107E+01
     4
 # iter = 59000  time[fs]=59.00000
   C -0.630811414E+01 -0.210461245E-01  0.669031348E-01
   C  0.596397036E+01 -0.253869619E+00 -0.259001818E+00
   H -0.317465724E+02 -0.226337394E+01  0.122056773E+01
   H  0.306904456E+02  0.245860213E+01  0.197775051E+01
     4
 # iter = 59500  time[fs]=59.50000
   C -0.639582559E+01 -0.207742949E-01  0.676245610E-01
   C  0.604694085E+01 -0.257547630E+00 -0.262613391E+00
   H -0.321525548E+02 -0.229252015E+01  0.123561230E+01
   H  0.310822147E+02  0.249019168E+01  0.200358433E+01
     4
 # iter = 60000  time[fs]=60.00000
   C -0.648361983E+01 -0.205003196E-01  0.683477046E-01
   C  0.612999277E+01 -0.261228209E+00 -0.266228410E+00
   H -0.325587041E+02 -0.232167904E+01  0.125066361E+01
   H  0.314741672E+02  0.252179896E+01  0.202943216E+01
     4
 # iter = 60500  time[fs]=60.50000
   C -0.657149463E+01 -0.202242496E-01  0.690725166E-01
   C  0.621312391E+01 -0.264911293E+00 -0.269846786E+00
   H -0.329650163E+02 -0.235085031E+01  0.126572149E+01
   H  0.318662984E+02  0.255342356E+01  0.205529368E+01
     4
 # iter = 61000  time[fs]=61.00000
   C -0.665944783E+01 -0.199461340E-01  0.697989501E-01
   C  0.629633215E+01 -0.268596824E+00 -0.273468431E+00
   H -0.333714873E+02 -0.238003366E+01  0.128078578E+01
   H  0.322586042E+02  0.258506505E+01  0.208116856E+01
     4
 # iter = 61500  time[fs]=61.50000
   C -0.674747737E+01 -0.196660205E-01  0.705269600E-01
   C  0.637961544E+01 -0.272284745E+00 -0.277093261E+00
   H -0.337781133E+02 -0.240922881E+01  0.129585632E+01
   H  0.326510803E+02  0.261672304E+01  0.210705649E+01
     4
 # iter = 62000  time[fs]=62.00000
   C -0.683558123E+01 -0.193839551E-01  0.712565031E-01
   C  0.646297183E+01 -0.275975000E+00 -0.280721195E+00
   H -0.341848907E+02 -0.243843548E+01  0.131093297E+01
   H  0.330437227E+02  0.264839714E+01  0.213295717E+01
     4
 # iter = 62500  time[fs]=62.50000
   C -0.692375752E+01 -0.190999821E-01  0.719875378E-01
   C  0.654639942E+01 -0.279667537E+00 -0.284352156E+00
   H -0.345918160E+02 -0.246765341E+01  0.132601558E+01
   H  0.334365276E+02  0.268008698E+01  0.215887031E+01
     4
 # iter = 63000  time[fs]=63.00000
   C -0.701200437E+01 -0.188141445E-01  0.727200244E-01
   C  0.662989639E+01 -0.283362303E+00 -0.287986069E+00
   H -0.349988856E+02 -0.249688233E+01  0.134110401E+01
   H  0.338294910E+02  0.271179221E+01  0.218479563E+01
     4
 # iter = 63500  time[fs]=63.50000
   C -0.710032002E+01 -0.185264840E-01  0.734539244E-01
   C  0.671346100E+01 -0.287059250E+00 -0.291622862E+00
   H -0.354060963E+02 -0.252612201E+01  0.135619813E+01
   H  0.342226095E+02  0.274351248E+01  0.221073285E+01
     4
 # iter = 64000  time[fs]=64.00000
   C -0.718870276E+01 -0.182370407E-01  0.741892009E-01
   C  0.679709155E+01 -0.290758329E+00 -0.295262465E+00
   H -0.358134449E+02 -0.255537220E+01  0.137129781E+01
   H  0.346158794E+02  0.277524745E+01  0.223668172E+01
     4
 # iter = 64500  time[fs]=64.50000
   C -0.727715092E+01 -0.179458537E-01  0.749258184E-01
   C  0.688078642E+01 -0.294459493E+00 -0.298904810E+00
   H -0.362209282E+02 -0.258463267E+01  0.138640291E+01
   H  0.350092975E+02  0.280699679E+01  0.226264198E+01
     4
 # iter = 65000  time[fs]=65.00000
   C -0.736566292E+01 -0.176529605E-01  0.756637428E-01
   C  0.696454404E+01 -0.298162697E+00 -0.302549834E+00
   H -0.366285433E+02 -0.261390320E+01  0.140151333E+01
   H  0.354028604E+02  0.283876021E+01  0.228861339E+01
     4
 # iter = 65500  time[fs]=65.50000
   C -0.745423722E+01 -0.173583978E-01  0.764029411E-01
   C  0.704836290E+01 -0.301867898E+00 -0.306197473E+00
   H -0.370362874E+02 -0.264318356E+01  0.141662895E+01
   H  0.357965650E+02  0.287053738E+01  0.231459570E+01
     4
 # iter = 66000  time[fs]=66.00000
   C -0.754287234E+01 -0.170622009E-01  0.771433815E-01
   C  0.713224153E+01 -0.305575053E+00 -0.309847667E+00
   H -0.374441575E+02 -0.267247355E+01  0.143174964E+01
   H  0.361904081E+02  0.290232803E+01  0.234058868E+01
     4
 # iter = 66500  time[fs]=66.50000
   C -0.763156685E+01 -0.167644041E-01  0.778850336E-01
   C  0.721617853E+01 -0.309284121E+00 -0.313500359E+00
   H -0.378521510E+02 -0.270177297E+01  0.144687531E+01
   H  0.365843869E+02  0.293413185E+01  0.236659212E+01
     4
 # iter = 67000  time[fs]=67.00000
   C -0.772031936E+01 -0.164650407E-01  0.786278678E-01
   C  0.730017255E+01 -0.312995063E+00 -0.317155490E+00
   H -0.382602652E+02 -0.273108161E+01  0.146200584E+01
   H  0.369784984E+02  0.296594859E+01  0.239260580E+01
     4
 # iter = 67500  time[fs]=67.50000
   C -0.780912854E+01 -0.161641430E-01  0.793718557E-01
   C  0.738422225E+01 -0.316707839E+00 -0.320813008E+00
   H -0.386684977E+02 -0.276039929E+01  0.147714113E+01
   H  0.373727398E+02  0.299777796E+01  0.241862949E+01
     4
 # iter = 68000  time[fs]=68.00000
   C -0.789799311E+01 -0.158617421E-01  0.801169698E-01
   C  0.746832637E+01 -0.320422413E+00 -0.324472859E+00
   H -0.390768459E+02 -0.278972582E+01  0.149228108E+01
   H  0.377671085E+02  0.302961972E+01  0.244466301E+01
     4
 # iter = 68500  time[fs]=68.50000
   C -0.798691180E+01 -0.155578686E-01  0.808631836E-01
   C  0.755248369E+01 -0.324138747E+00 -0.328134992E+00
   H -0.394853075E+02 -0.281906102E+01  0.150742560E+01
   H  0.381616019E+02  0.306147361E+01  0.247070616E+01
     4
 # iter = 69000  time[fs]=69.00000
   C -0.807588342E+01 -0.152525517E-01  0.816104715E-01
   C  0.763669302E+01 -0.327856808E+00 -0.331799358E+00
   H -0.398938801E+02 -0.284840472E+01  0.152257459E+01
   H  0.385562173E+02  0.309333938E+01  0.249675874E+01
     4
 # iter = 69500  time[fs]=69.50000
   C -0.816490679E+01 -0.149458202E-01  0.823588088E-01
   C  0.772095319E+01 -0.331576560E+00 -0.335465909E+00
   H -0.403025615E+02 -0.287775675E+01  0.153772796E+01
   H  0.389509523E+02  0.312521681E+01  0.252282056E+01
     4
 # iter = 70000  time[fs]=70.00000
   C -0.825398080E+01 -0.146377019E-01  0.831081714E-01
   C  0.780526311E+01 -0.335297970E+00 -0.339134598E+00
   H -0.407113496E+02 -0.290711694E+01  0.155288563E+01
   H  0.393458045E+02  0.315710566E+01  0.254889146E+01
     4
 # iter = 70500  time[fs]=70.50000
   C -0.834310433E+01 -0.143282236E-01  0.838585364E-01
   C  0.788962170E+01 -0.339021006E+00 -0.342805382E+00
   H -0.411202422E+02 -0.293648513E+01  0.156804750E+01
   H  0.397407717E+02  0.318900570E+01  0.257497124E+01
     4
 # iter = 71000  time[fs]=71.00000
   C -0.843227633E+01 -0.140174116E-01  0.846098814E-01
   C  0.797402790E+01 -0.342745638E+00 -0.346478216E+00
   H -0.415292372E+02 -0.296586118E+01  0.158321349E+01
   H  0.401358515E+02  0.322091673E+01  0.260105974E+01
     4
 # iter = 71500  time[fs]=71.50000
   C -0.852149578E+01 -0.137052915E-01  0.853621846E-01
   C  0.805848072E+01 -0.346471833E+00 -0.350153058E+00
   H -0.419383326E+02 -0.299524492E+01  0.159838353E+01
   H  0.405310418E+02  0.325283853E+01  0.262715680E+01
     4
 # iter = 72000  time[fs]=72.00000
   C -0.861076168E+01 -0.133918879E-01  0.861154252E-01
   C  0.814297917E+01 -0.350199563E+00 -0.353829867E+00
   H -0.423475266E+02 -0.302463622E+01  0.161355754E+01
   H  0.409263404E+02  0.328477090E+01  0.265326225E+01
     4
 # iter = 72500  time[fs]=72.50000
   C -0.870007306E+01 -0.130772249E-01  0.868695828E-01
   C  0.822752230E+01 -0.353928799E+00 -0.357508604E+00
   H -0.427568173E+02 -0.305403493E+01  0.162873543E+01
   H  0.413217453E+02  0.331671364E+01  0.267937595E+01
     4
 # iter = 73000  time[fs]=73.00000
   C -0.878942899E+01 -0.127613260E-01  0.876246379E-01
   C  0.831210919E+01 -0.357659513E+00 -0.361189230E+00
   H -0.431662027E+02 -0.308344091E+01  0.164391714E+01
   H  0.417172545E+02  0.334866655E+01  0.270549772E+01
     4
 # iter = 73500  time[fs]=73.50000
   C -0.887882856E+01 -0.124442139E-01  0.883805714E-01
   C  0.839673895E+01 -0.361391677E+00 -0.364871709E+00
   H -0.435756812E+02 -0.311285403E+01  0.165910260E+01
   H  0.421128659E+02  0.338062945E+01  0.273162744E+01
     4
 # iter = 74000  time[fs]=74.00000
   C -0.896827090E+01 -0.121259109E-01  0.891373648E-01
   C  0.848141071E+01 -0.365125266E+00 -0.368556002E+00
   H -0.439852510E+02 -0.314227416E+01  0.167429173E+01
   H  0.425085778E+02  0.341260216E+01  0.275776495E+01
     4
 # iter = 74500  time[fs]=74.50000
   C -0.905775514E+01 -0.118064384E-01  0.898950003E-01
   C  0.856612363E+01 -0.368860253E+00 -0.372242076E+00
   H -0.443949105E+02 -0.317170116E+01  0.168948446E+01
   H  0.429043883E+02  0.344458450E+01  0.278391011E+01
     4
 # iter = 75000  time[fs]=75.00000
   C -0.914728045E+01 -0.114858176E-01  0.906534605E-01
   C  0.865087690E+01 -0.372596613E+00 -0.375929897E+00
   H -0.448046579E+02 -0.320113493E+01  0.170468074E+01
   H  0.433002956E+02  0.347657629E+01  0.281006279E+01
     4
 # iter = 75500  time[fs]=75.50000
   C -0.923684604E+01 -0.111640688E-01  0.914127286E-01
   C  0.873566972E+01 -0.376334321E+00 -0.379619430E+00
   H -0.452144917E+02 -0.323057534E+01  0.171988049E+01
   H  0.436962979E+02  0.350857737E+01  0.283622286E+01
     4
 # iter = 76000  time[fs]=76.00000
   C -0.932645112E+01 -0.108412120E-01  0.921727883E-01
   C  0.882050132E+01 -0.380073355E+00 -0.383310644E+00
   H -0.456244104E+02 -0.326002226E+01  0.173508365E+01
   H  0.440923935E+02  0.354058757E+01  0.286239018E+01
     4
 # iter = 76500  time[fs]=76.50000
   C -0.941609492E+01 -0.105172665E-01  0.929336237E-01
   C  0.890537095E+01 -0.383813691E+00 -0.387003508E+00
   H -0.460344125E+02 -0.328947559E+01  0.175029017E+01
   H  0.444885808E+02  0.357260674E+01  0.288856463E+01
     4
 # iter = 77000  time[fs]=77.00000
   C -0.950577672E+01 -0.101922514E-01  0.936952195E-01
   C  0.899027790E+01 -0.387555305E+00 -0.390697990E+00
   H -0.464444964E+02 -0.331893522E+01  0.176549998E+01
   H  0.448848581E+02  0.360463471E+01  0.291474609E+01
     4
 # iter = 77500  time[fs]=77.50000
   C -0.959549578E+01 -0.986618490E-02  0.944575608E-01
   C  0.907522144E+01 -0.391298177E+00 -0.394394061E+00
   H -0.468546608E+02 -0.334840103E+01  0.178071302E+01
   H  0.452812240E+02  0.363667134E+01  0.294093443E+01
     4
 # iter = 78000  time[fs]=78.00000
   C -0.968525142E+01 -0.953908512E-02  0.952206330E-01
   C  0.916020090E+01 -0.395042285E+00 -0.398091692E+00
   H -0.472649042E+02 -0.337787292E+01  0.179592925E+01
   H  0.456776768E+02  0.366871648E+01  0.296712954E+01
     4
 # iter = 78500  time[fs]=78.50000
   C -0.977504295E+01 -0.921096951E-02  0.959844220E-01
   C  0.924521560E+01 -0.398787607E+00 -0.401790855E+00
   H -0.476752254E+02 -0.340735079E+01  0.181114860E+01
   H  0.460742151E+02  0.370076998E+01  0.299333132E+01
     4
 # iter = 79000  time[fs]=79.00000
   C -0.986486971E+01 -0.888185516E-02  0.967489141E-01
   C  0.933026490E+01 -0.402534123E+00 -0.405491522E+00
   H -0.480856229E+02 -0.343683454E+01  0.182637102E+01
   H  0.464708374E+02  0.373283171E+01  0.301953963E+01
     4
 # iter = 79500  time[fs]=79.50000
   C -0.995473107E+01 -0.855175872E-02  0.975140961E-01
   C  0.941534817E+01 -0.406281814E+00 -0.409193668E+00
   H -0.484960955E+02 -0.346632407E+01  0.184159646E+01
   H  0.468675423E+02  0.376490153E+01  0.304575439E+01
     4
 # iter = 80000  time[fs]=80.00000
   C -0.100446264E+02 -0.822069643E-02  0.982799549E-01
   C  0.950046478E+01 -0.410030660E+00 -0.412897266E+00
   H -0.489066420E+02 -0.349581929E+01  0.185682487E+01
   H  0.472643284E+02  0.379697930E+01  0.307197548E+01
