     4
 # iter = 25000  time[fs]=25.00000
   C -0.104035545E+01 -0.376980038E-01  0.188639370E-01
   C  0.102485057E+01  0.386963142E-02 -0.217186139E-01
   H -0.529830537E+01  0.732866734E+00  0.126487616E+00
   H  0.536787868E+01 -0.661564855E+00  0.473079375E+00
     4
 # iter = 25500  time[fs]=25.50000
   C -0.109339690E+01 -0.427637984E-01  0.176881139E-01
   C  0.106986559E+01  0.450115900E-02 -0.254143592E-01
   H -0.564285470E+01  0.771639110E+00  0.125164134E+00
   H  0.568108969E+01 -0.712495524E+00  0.494585136E+00
     4
 # iter = 26000  time[fs]=26.00000
   C -0.115018395E+01 -0.488462024E-01  0.156407181E-01
   C  0.111663220E+01  0.416098410E-02 -0.302743366E-01
   H -0.599810971E+01  0.805833044E+00  0.118549248E+00
   H  0.599433581E+01 -0.769586773E+00  0.511213192E+00
     4
 # iter = 26500  time[fs]=26.50000
   C -0.120774327E+01 -0.532117361E-01  0.154462096E-01
   C  0.116807889E+01  0.602302039E-02 -0.331116390E-01
   H -0.634738308E+01  0.851424556E+00  0.122702021E+00
   H  0.632314001E+01 -0.816671033E+00  0.539000388E+00
     4
 # iter = 27000  time[fs]=27.00000
   C -0.126571198E+01 -0.557200066E-01  0.172364338E-01
   C  0.122413466E+01  0.102398859E-01 -0.337610869E-01
   H -0.668937258E+01  0.909130016E+00  0.138406939E+00
   H  0.666779415E+01 -0.852884260E+00  0.578694482E+00
     4
 # iter = 27500  time[fs]=27.50000
   C -0.132590977E+01 -0.583951460E-01  0.189791940E-01
   C  0.128222776E+01  0.144423031E-01 -0.345799318E-01
   H -0.703561593E+01  0.966925776E+00  0.153696666E+00
   H  0.701587668E+01 -0.890138407E+00  0.618279675E+00
     4
 # iter = 28000  time[fs]=28.00000
   C -0.138958281E+01 -0.626680274E-01  0.192359264E-01
   C  0.134049746E+01  0.169525976E-01 -0.372347399E-01
   H -0.739421086E+01  0.101629476E+01  0.160102626E+00
   H  0.735853008E+01 -0.936852088E+00  0.649247842E+00
     4
 # iter = 28500  time[fs]=28.50000
   C -0.145598113E+01 -0.679538201E-01  0.185841214E-01
   C  0.139945004E+01  0.184423022E-01 -0.410439209E-01
   H -0.776141485E+01  0.106060773E+01  0.161038523E+00
   H  0.769885249E+01 -0.989556497E+00  0.674992230E+00
     4
 # iter = 29000  time[fs]=29.00000
   C -0.152352914E+01 -0.728248150E-01  0.184445669E-01
   C  0.146059100E+01  0.205655777E-01 -0.443441370E-01
   H -0.812855426E+01  0.110821040E+01  0.164887958E+00
   H  0.804496305E+01 -0.103981404E+01  0.703885496E+00
     4
 # iter = 29500  time[fs]=29.50000
   C -0.159159791E+01 -0.767852098E-01  0.193066289E-01
   C  0.152435571E+01  0.238911105E-01 -0.465581918E-01
   H -0.849248529E+01  0.116196208E+01  0.174543062E+00
   H  0.839951394E+01 -0.108469017E+01  0.738804467E+00
     4
 # iter = 30000  time[fs]=30.00000
   C -0.166075251E+01 -0.805200761E-01  0.204792830E-01
   C  0.158981788E+01  0.276120118E-01 -0.484850578E-01
   H -0.885705689E+01  0.121776742E+01  0.185936890E+00
   H  0.875821478E+01 -0.112822178E+01  0.775660285E+00
     4
 # iter = 30500  time[fs]=30.50000
   C -0.173164999E+01 -0.847943312E-01  0.211920987E-01
   C  0.165597101E+01  0.308288915E-01 -0.510168310E-01
   H -0.922661266E+01  0.127106611E+01  0.194534128E+00
   H  0.911633031E+01 -0.117491849E+01  0.809896966E+00
     4
 # iter = 31000  time[fs]=31.00000
   C -0.180420090E+01 -0.896151867E-01  0.214327492E-01
   C  0.172270299E+01  0.335258847E-01 -0.541627120E-01
   H -0.960104749E+01  0.132176965E+01  0.200268603E+00
   H  0.947362292E+01 -0.122481904E+01  0.841434847E+00
     4
 # iter = 31500  time[fs]=31.50000
   C -0.187781382E+01 -0.944779738E-01  0.217011655E-01
   C  0.179050844E+01  0.362841526E-01 -0.573354501E-01
   H -0.997725432E+01  0.137281139E+01  0.206093722E+00
   H  0.983289797E+01 -0.127494209E+01  0.873219012E+00
     4
 # iter = 32000  time[fs]=32.00000
   C -0.195209674E+01 -0.990687856E-01  0.223068796E-01
   C  0.185966877E+01  0.394630177E-01 -0.601701277E-01
   H -0.103532657E+02  0.142600357E+01  0.213839647E+00
   H  0.101958520E+02 -0.132343336E+01  0.907071152E+00
     4
 # iter = 32500  time[fs]=32.50000
   C -0.202710796E+01 -0.103516460E+00  0.231170209E-01
   C  0.192995760E+01  0.429062856E-01 -0.628177802E-01
   H -0.107297378E+02  0.148055140E+01  0.222727586E+00
   H  0.105615824E+02 -0.137105277E+01  0.942201832E+00
     4
 # iter = 33000  time[fs]=33.00000
   C -0.210305270E+01 -0.108089939E+00  0.238589299E-01
   C  0.200099255E+01  0.462949198E-01 -0.655926918E-01
   H -0.111081641E+02  0.153483712E+01  0.231154184E+00
   H  0.109283728E+02 -0.141938764E+01  0.976996955E+00
     4
 # iter = 33500  time[fs]=33.50000
   C -0.217995034E+01 -0.112866262E+00  0.244521306E-01
   C  0.207262132E+01  0.495339253E-01 -0.685854868E-01
   H -0.114889154E+02  0.158837727E+01  0.238648977E+00
   H  0.112956519E+02 -0.146889271E+01  0.101097751E+01
     4
 # iter = 34000  time[fs]=34.00000
   C -0.225763048E+01 -0.117727246E+00  0.250116319E-01
   C  0.214492487E+01  0.527561944E-01 -0.716592530E-01
   H -0.118712196E+02  0.164184187E+01  0.245893832E+00
   H  0.116640114E+02 -0.151887058E+01  0.104481893E+01
     4
 # iter = 34500  time[fs]=34.50000
   C -0.233593026E+01 -0.122557450E+00  0.256499419E-01
   C  0.221798608E+01  0.560917665E-01 -0.746802453E-01
   H -0.122543279E+02  0.169588694E+01  0.253555522E+00
   H  0.120340364E+02 -0.156864025E+01  0.107918221E+01
     4
 # iter = 35000  time[fs]=35.00000
   C -0.241480642E+01 -0.127356736E+00  0.263644845E-01
   C  0.229175805E+01  0.595366192E-01 -0.776490632E-01
   H -0.126381777E+02  0.175049054E+01  0.261621910E+00
   H  0.124056395E+02 -0.161820159E+01  0.111404914E+01
     4
 # iter = 35500  time[fs]=35.50000
   C -0.249428256E+01 -0.132188035E+00  0.270898190E-01
   C  0.236612449E+01  0.630135248E-01 -0.806397690E-01
   H -0.130230838E+02  0.180526064E+01  0.269709920E+00
   H  0.127783681E+02 -0.166792687E+01  0.114903064E+01
     4
 # iter = 36000  time[fs]=36.00000
   C -0.257435628E+01 -0.137084881E+00  0.277900846E-01
   C  0.244100704E+01  0.664797854E-01 -0.836921314E-01
   H -0.134091929E+02  0.185998017E+01  0.277610689E+00
   H  0.131519498E+02 -0.171801488E+01  0.118391248E+01
     4
 # iter = 36500  time[fs]=36.50000
   C -0.265497774E+01 -0.142030263E+00  0.284801349E-01
   C  0.251638953E+01  0.699518599E-01 -0.867869783E-01
   H -0.137963576E+02  0.191473157E+01  0.285414203E+00
   H  0.135264168E+02 -0.176836601E+01  0.121878007E+01
     4
 # iter = 37000  time[fs]=37.00000
   C -0.273608827E+01 -0.146995624E+00  0.291865229E-01
   C  0.259227221E+01  0.734598919E-01 -0.898916501E-01
   H -0.141843665E+02  0.196966669E+01  0.293279243E+00
   H  0.139018745E+02 -0.181881254E+01  0.125378803E+01
     4
 # iter = 37500  time[fs]=37.50000
   C -0.281765217E+01 -0.151972905E+00  0.299154459E-01
   C  0.266863412E+01  0.770103485E-01 -0.929973424E-01
   H -0.145731325E+02  0.202481768E+01  0.301244377E+00
   H  0.142783123E+02 -0.186930773E+01  0.128897097E+01
     4
 # iter = 38000  time[fs]=38.00000
   C -0.289965292E+01 -0.156971007E+00  0.306562721E-01
   C  0.274543692E+01  0.805901270E-01 -0.961149844E-01
   H -0.149626716E+02  0.208011780E+01  0.309248779E+00
   H  0.146556238E+02 -0.191990501E+01  0.132426429E+01
     4
 # iter = 38500  time[fs]=38.50000
   C -0.298207465E+01 -0.161997489E+00  0.313998262E-01
   C  0.282264600E+01  0.841878638E-01 -0.992539157E-01
   H -0.153529948E+02  0.213550918E+01  0.317240071E+00
   H  0.150337144E+02 -0.197064985E+01  0.135961207E+01
     4
 # iter = 39000  time[fs]=39.00000
   C -0.306489430E+01 -0.167050892E+00  0.321460645E-01
   C  0.290023926E+01  0.878028760E-01 -0.102412933E+00
   H -0.157440623E+02  0.219098809E+01  0.325219596E+00
   H  0.154125461E+02 -0.202153444E+01  0.139501247E+01
     4
 # iter = 39500  time[fs]=39.50000
   C -0.314808648E+01 -0.172125814E+00  0.328989837E-01
   C  0.297820093E+01  0.914392257E-01 -0.105586212E+00
   H -0.161358133E+02  0.224657484E+01  0.333212407E+00
   H  0.157921079E+02 -0.207252769E+01  0.143048757E+01
     4
 # iter = 40000  time[fs]=40.00000
   C -0.323162963E+01 -0.177219197E+00  0.336603284E-01
   C  0.305651415E+01  0.950983841E-01 -0.108770638E+00
   H -0.165282030E+02  0.230227669E+01  0.341230168E+00
   H  0.161723775E+02 -0.212361232E+01  0.146604627E+01
     4
 # iter = 40500  time[fs]=40.50000
   C -0.331550665E+01 -0.182331070E+00  0.344288421E-01
   C  0.313515992E+01  0.987783561E-01 -0.111966667E+00
   H -0.169212066E+02  0.235808342E+01  0.349266746E+00
   H  0.165533172E+02 -0.217478924E+01  0.150167981E+01
     4
 # iter = 41000  time[fs]=41.00000
   C -0.339970217E+01 -0.187461994E+00  0.352028136E-01
   C  0.321411996E+01  0.102476646E+00 -0.115175350E+00
   H -0.173148043E+02  0.241398227E+01  0.357313241E+00
   H  0.169348887E+02 -0.222606245E+01  0.153737686E+01
     4
 # iter = 41500  time[fs]=41.50000
   C -0.348420088E+01 -0.192611461E+00  0.359816712E-01
   C  0.329337845E+01  0.106192115E+00 -0.118396478E+00
   H -0.177089713E+02  0.246996740E+01  0.365367386E+00
   H  0.173170621E+02 -0.227742966E+01  0.157313286E+01
     4
 # iter = 42000  time[fs]=42.00000
   C -0.356898776E+01 -0.197778253E+00  0.367656207E-01
   C  0.337292154E+01  0.109924554E+00 -0.121628989E+00
   H -0.181036802E+02  0.252603770E+01  0.373431430E+00
   H  0.176998140E+02 -0.232888431E+01  0.160894791E+01
     4
 # iter = 42500  time[fs]=42.50000
   C -0.365404890E+01 -0.202961308E+00  0.375547733E-01
   C  0.345273618E+01  0.113673669E+00 -0.124871985E+00
   H -0.184989058E+02  0.258219162E+01  0.381506991E+00
   H  0.180831218E+02 -0.238042076E+01  0.164482163E+01
     4
 # iter = 43000  time[fs]=43.00000
   C -0.373937164E+01 -0.208159978E+00  0.383488816E-01
   C  0.353280979E+01  0.117438770E+00 -0.128125034E+00
   H -0.188946264E+02  0.263842566E+01  0.389593510E+00
   H  0.184669622E+02 -0.243203577E+01  0.168075156E+01
     4
 # iter = 43500  time[fs]=43.50000
   C -0.382494429E+01 -0.213373787E+00  0.391475796E-01
   C  0.361313045E+01  0.121219051E+00 -0.131387887E+00
   H -0.192908226E+02  0.269473572E+01  0.397689671E+00
   H  0.188513127E+02 -0.248372710E+01  0.171673460E+01
     4
 # iter = 44000  time[fs]=44.00000
   C -0.391075582E+01 -0.218602205E+00  0.399506036E-01
   C  0.369368709E+01  0.125013844E+00 -0.134660215E+00
   H -0.196874755E+02  0.275111841E+01  0.405794710E+00
   H  0.192361523E+02 -0.253549214E+01  0.175276830E+01
     4
 # iter = 44500  time[fs]=44.50000
   C -0.399679577E+01 -0.223844641E+00  0.407577962E-01
   C  0.377446944E+01  0.128822623E+00 -0.137941607E+00
   H -0.200845669E+02  0.280757106E+01  0.413908439E+00
   H  0.196214621E+02 -0.258732793E+01  0.178885090E+01
     4
 # iter = 45000  time[fs]=45.00000
   C -0.408305436E+01 -0.229100525E+00  0.415690203E-01
   C  0.385546786E+01  0.132644904E+00 -0.141231658E+00
   H -0.204820796E+02  0.286409125E+01  0.422030742E+00
   H  0.200072241E+02 -0.263923159E+01  0.182498078E+01
     4
 # iter = 45500  time[fs]=45.50000
   C -0.416952239E+01 -0.234369347E+00  0.423841175E-01
   C  0.393667327E+01  0.136480194E+00 -0.144530024E+00
   H -0.208799974E+02  0.292067648E+01  0.430161338E+00
   H  0.203934211E+02 -0.269120056E+01  0.186115623E+01
     4
 # iter = 46000  time[fs]=46.00000
   C -0.425619123E+01 -0.239650643E+00  0.432029208E-01
   C  0.401807712E+01  0.140328003E+00 -0.147836400E+00
   H -0.212783052E+02  0.297732430E+01  0.438299857E+00
   H  0.207800369E+02 -0.274323254E+01  0.189737556E+01
     4
 # iter = 46500  time[fs]=46.50000
   C -0.434305276E+01 -0.244943968E+00  0.440252760E-01
   C  0.409967133E+01  0.144187875E+00 -0.151150494E+00
   H -0.216769887E+02  0.303403242E+01  0.446445968E+00
   H  0.211670561E+02 -0.279532533E+01  0.193363714E+01
     4
 # iter = 47000  time[fs]=47.00000
   C -0.443009931E+01 -0.250248893E+00  0.448510450E-01
   C  0.418144832E+01  0.148059382E+00 -0.154472020E+00
   H -0.220760343E+02  0.309079869E+01  0.454599400E+00
   H  0.215544643E+02 -0.284747681E+01  0.196993952E+01
     4
 # iter = 47500  time[fs]=47.50000
   C -0.451732366E+01 -0.255565011E+00  0.456800997E-01
   C  0.426340094E+01  0.151942121E+00 -0.157800705E+00
   H -0.224754291E+02  0.314762111E+01  0.462759912E+00
   H  0.219422476E+02 -0.289968492E+01  0.200628129E+01
     4
 # iter = 48000  time[fs]=48.00000
   C -0.460471895E+01 -0.260891933E+00  0.465123172E-01
   C  0.434552242E+01  0.155835709E+00 -0.161136293E+00
   H -0.228751610E+02  0.320449776E+01  0.470927264E+00
   H  0.223303931E+02 -0.295194775E+01  0.204266115E+01
     4
 # iter = 48500  time[fs]=48.50000
   C -0.469227874E+01 -0.266229293E+00  0.473475798E-01
   C  0.442780637E+01  0.159739778E+00 -0.164478543E+00
   H -0.232752182E+02  0.326142680E+01  0.479101221E+00
   H  0.227188882E+02 -0.300426348E+01  0.207907780E+01
     4
 # iter = 49000  time[fs]=49.00000
   C -0.477999691E+01 -0.271576743E+00  0.481857760E-01
   C  0.451024674E+01  0.163653978E+00 -0.167827224E+00
   H -0.236755899E+02  0.331840649E+01  0.487281559E+00
   H  0.231077214E+02 -0.305663037E+01  0.211553006E+01
     4
 # iter = 49500  time[fs]=49.50000
   C -0.486786768E+01 -0.276933949E+00  0.490268002E-01
   C  0.459283780E+01  0.167577978E+00 -0.171182119E+00
   H -0.240762655E+02  0.337543518E+01  0.495468065E+00
   H  0.234968813E+02 -0.310904678E+01  0.215201676E+01
     4
 # iter = 50000  time[fs]=50.00000
   C -0.495588554E+01 -0.282300596E+00  0.498705529E-01
   C  0.467557411E+01  0.171511460E+00 -0.174543019E+00
   H -0.244772351E+02  0.343251130E+01  0.503660540E+00
   H  0.238863573E+02 -0.316151112E+01  0.218853682E+01
     4
 # iter = 50500  time[fs]=50.50000
   C -0.504404531E+01 -0.287676380E+00  0.507169391E-01
   C  0.475845054E+01  0.175454123E+00 -0.177909728E+00
   H -0.248784892E+02  0.348963334E+01  0.511858794E+00
   H  0.242761393E+02 -0.321402190E+01  0.222508919E+01
     4
 # iter = 51000  time[fs]=51.00000
   C -0.513234203E+01 -0.293061014E+00  0.515658687E-01
   C  0.484146220E+01  0.179405679E+00 -0.181282055E+00
   H -0.252800187E+02  0.354679987E+01  0.520062645E+00
   H  0.246662175E+02 -0.326657768E+01  0.226167288E+01
     4
 # iter = 51500  time[fs]=51.50000
   C -0.522077101E+01 -0.298454222E+00  0.524172559E-01
   C  0.492460442E+01  0.183365851E+00 -0.184659823E+00
   H -0.256818152E+02  0.360400953E+01  0.528271919E+00
   H  0.250565828E+02 -0.331917710E+01  0.229828693E+01
     4
 # iter = 52000  time[fs]=52.00000
   C -0.530932778E+01 -0.303855742E+00  0.532710191E-01
   C  0.500787281E+01  0.187334377E+00 -0.188042860E+00
   H -0.260838702E+02  0.366126102E+01  0.536486450E+00
   H  0.254472263E+02 -0.337181885E+01  0.233493045E+01
     4
 # iter = 52500  time[fs]=52.50000
   C -0.539800810E+01 -0.309265323E+00  0.541270805E-01
   C  0.509126314E+01  0.191311006E+00 -0.191431002E+00
   H -0.264861760E+02  0.371855308E+01  0.544706080E+00
   H  0.258381396E+02 -0.342450169E+01  0.237160255E+01
     4
 # iter = 53000  time[fs]=53.00000
   C -0.548680790E+01 -0.314682724E+00  0.549853659E-01
   C  0.517477143E+01  0.195295498E+00 -0.194824094E+00
   H -0.268887250E+02  0.377588452E+01  0.552930657E+00
   H  0.262293147E+02 -0.347722440E+01  0.240830241E+01
     4
 # iter = 53500  time[fs]=53.50000
   C -0.557572334E+01 -0.320107715E+00  0.558458048E-01
   C  0.525839385E+01  0.199287621E+00 -0.198221987E+00
   H -0.272915102E+02  0.383325420E+01  0.561160036E+00
   H  0.266207439E+02 -0.352998587E+01  0.244502924E+01
     4
 # iter = 54000  time[fs]=54.00000
   C -0.566475074E+01 -0.325540076E+00  0.567083296E-01
   C  0.534212677E+01  0.203287155E+00 -0.201624537E+00
   H -0.276945246E+02  0.389066103E+01  0.569394079E+00
   H  0.270124198E+02 -0.358278497E+01  0.248178227E+01
     4
 # iter = 54500  time[fs]=54.50000
   C -0.575388657E+01 -0.330979596E+00  0.575728760E-01
   C  0.542596672E+01  0.207293890E+00 -0.205031610E+00
   H -0.280977616E+02  0.394810397E+01  0.577632653E+00
   H  0.274043354E+02 -0.363562068E+01  0.251856077E+01
     4
 # iter = 55000  time[fs]=55.00000
   C -0.584312751E+01 -0.336426074E+00  0.584393823E-01
   C  0.550991038E+01  0.211307622E+00 -0.208443073E+00
   H -0.285012149E+02  0.400558201E+01  0.585875631E+00
   H  0.277964838E+02 -0.368849197E+01  0.255536404E+01
     4
 # iter = 55500  time[fs]=55.50000
   C -0.593247032E+01 -0.341879314E+00  0.593077897E-01
   C  0.559395458E+01  0.215328158E+00 -0.211858803E+00
   H -0.289048786E+02  0.406309418E+01  0.594122890E+00
   H  0.281888587E+02 -0.374139788E+01  0.259219141E+01
     4
 # iter = 56000  time[fs]=56.00000
   C -0.602191197E+01 -0.347339130E+00  0.601780419E-01
   C  0.567809630E+01  0.219355309E+00 -0.215278679E+00
   H -0.293087467E+02  0.412063957E+01  0.602374314E+00
   H  0.285814538E+02 -0.379433748E+01  0.262904223E+01
     4
 # iter = 56500  time[fs]=56.50000
   C -0.611144951E+01 -0.352805345E+00  0.610500849E-01
   C  0.576233263E+01  0.223388899E+00 -0.218702585E+00
   H -0.297128138E+02  0.417821729E+01  0.610629790E+00
   H  0.289742631E+02 -0.384730988E+01  0.266591588E+01
     4
 # iter = 57000  time[fs]=57.00000
   C -0.620108013E+01 -0.358277786E+00  0.619238671E-01
   C  0.584666082E+01  0.227428753E+00 -0.222130413E+00
   H -0.301170746E+02  0.423582648E+01  0.618889210E+00
   H  0.293672810E+02 -0.390031423E+01  0.270281177E+01
     4
 # iter = 57500  time[fs]=57.50000
   C -0.629080116E+01 -0.363756289E+00  0.627993390E-01
   C  0.593107820E+01  0.231474708E+00 -0.225562056E+00
   H -0.305215238E+02  0.429346632E+01  0.627152470E+00
   H  0.297605019E+02 -0.395334969E+01  0.273972932E+01
     4
 # iter = 58000  time[fs]=58.00000
   C -0.638061001E+01 -0.369240694E+00  0.636764531E-01
   C  0.601558222E+01  0.235526603E+00 -0.228997412E+00
   H -0.309261566E+02  0.435113604E+01  0.635419472E+00
   H  0.301539204E+02 -0.400641548E+01  0.277666798E+01
     4
 # iter = 58500  time[fs]=58.50000
   C -0.647050422E+01 -0.374730849E+00  0.645551638E-01
   C  0.610017045E+01  0.239584286E+00 -0.232436383E+00
   H -0.313309682E+02  0.440883486E+01  0.643690118E+00
   H  0.305475316E+02 -0.405951083E+01  0.281362723E+01
     4
 # iter = 59000  time[fs]=59.00000
   C -0.656048142E+01 -0.380226608E+00  0.654354275E-01
   C  0.618484055E+01  0.243647610E+00 -0.235878876E+00
   H -0.317359541E+02  0.446656207E+01  0.651964317E+00
   H  0.309413305E+02 -0.411263501E+01  0.285060654E+01
     4
 # iter = 59500  time[fs]=59.50000
   C -0.665053933E+01 -0.385727828E+00  0.663172021E-01
   C  0.626959026E+01  0.247716432E+00 -0.239324799E+00
   H -0.321411098E+02  0.452431695E+01  0.660241980E+00
   H  0.313353125E+02 -0.416578731E+01  0.288760542E+01
     4
 # iter = 60000  time[fs]=60.00000
   C -0.674067577E+01 -0.391234374E+00  0.672004473E-01
   C  0.635441743E+01  0.251790616E+00 -0.242774067E+00
   H -0.325464312E+02  0.458209883E+01  0.668523020E+00
   H  0.317294729E+02 -0.421896704E+01  0.292462341E+01
     4
 # iter = 60500  time[fs]=60.50000
   C -0.683088865E+01 -0.396746114E+00  0.680851243E-01
   C  0.643932000E+01  0.255870030E+00 -0.246226594E+00
   H -0.329519141E+02  0.463990707E+01  0.676807356E+00
   H  0.321238074E+02 -0.427217355E+01  0.296166004E+01
     4
 # iter = 61000  time[fs]=61.00000
   C -0.692117593E+01 -0.402262921E+00  0.689711958E-01
   C  0.652429596E+01  0.259954547E+00 -0.249682301E+00
   H -0.333575547E+02  0.469774101E+01  0.685094908E+00
   H  0.325183118E+02 -0.432540621E+01  0.299871488E+01
     4
 # iter = 61500  time[fs]=61.50000
   C -0.701153569E+01 -0.407784674E+00  0.698586258E-01
   C  0.660934339E+01  0.264044044E+00 -0.253141109E+00
   H -0.337633492E+02  0.475560007E+01  0.693385599E+00
   H  0.329129819E+02 -0.437866439E+01  0.303578748E+01
     4
 # iter = 62000  time[fs]=62.00000
   C -0.710196606E+01 -0.413311255E+00  0.707473799E-01
   C  0.669446046E+01  0.268138404E+00 -0.256602943E+00
   H -0.341692939E+02  0.481348366E+01  0.701679355E+00
   H  0.333078140E+02 -0.443194752E+01  0.307287746E+01
     4
 # iter = 62500  time[fs]=62.50000
   C -0.719246524E+01 -0.418842550E+00  0.716374247E-01
   C  0.677964539E+01  0.272237511E+00 -0.260067732E+00
   H -0.345753852E+02  0.487139120E+01  0.709976105E+00
   H  0.337028041E+02 -0.448525501E+01  0.310998439E+01
     4
 # iter = 63000  time[fs]=63.00000
   C -0.728303149E+01 -0.424378449E+00  0.725287281E-01
   C  0.686489647E+01  0.276341256E+00 -0.263535405E+00
   H -0.349816199E+02  0.492932216E+01  0.718275780E+00
   H  0.340979487E+02 -0.453858631E+01  0.314710791E+01
     4
 # iter = 63500  time[fs]=63.50000
   C -0.737366316E+01 -0.429918846E+00  0.734212593E-01
   C  0.695021205E+01  0.280449533E+00 -0.267005894E+00
   H -0.353879945E+02  0.498727600E+01  0.726578312E+00
   H  0.344932442E+02 -0.459194090E+01  0.318424764E+01
     4
 # iter = 64000  time[fs]=64.00000
   C -0.746435863E+01 -0.435463638E+00  0.743149884E-01
   C  0.703559055E+01  0.284562238E+00 -0.270479135E+00
   H -0.357945059E+02  0.504525221E+01  0.734883638E+00
   H  0.348886872E+02 -0.464531825E+01  0.322140322E+01
     4
 # iter = 64500  time[fs]=64.50000
   C -0.755511635E+01 -0.441012727E+00  0.752098866E-01
   C  0.712103043E+01  0.288679271E+00 -0.273955065E+00
   H -0.362011511E+02  0.510325030E+01  0.743191696E+00
   H  0.352842743E+02 -0.469871787E+01  0.325857430E+01
     4
 # iter = 65000  time[fs]=65.00000
   C -0.764593483E+01 -0.446566017E+00  0.761059262E-01
   C  0.720653022E+01  0.292800538E+00 -0.277433622E+00
   H -0.366079271E+02  0.516126979E+01  0.751502424E+00
   H  0.356800024E+02 -0.475213927E+01  0.329576055E+01
     4
 # iter = 65500  time[fs]=65.50000
   C -0.773681263E+01 -0.452123415E+00  0.770030804E-01
   C  0.729208849E+01  0.296925943E+00 -0.280914749E+00
   H -0.370148310E+02  0.521931021E+01  0.759815765E+00
   H  0.360758684E+02 -0.480558198E+01  0.333296164E+01
     4
 # iter = 66000  time[fs]=66.00000
   C -0.782774834E+01 -0.457684831E+00  0.779013233E-01
   C  0.737770387E+01  0.301055398E+00 -0.284398388E+00
   H -0.374218600E+02  0.527737113E+01  0.768131662E+00
   H  0.364718693E+02 -0.485904555E+01  0.337017726E+01
     4
 # iter = 66500  time[fs]=66.50000
   C -0.791874063E+01 -0.463250178E+00  0.788006299E-01
   C  0.746337502E+01  0.305188814E+00 -0.287884484E+00
   H -0.378290115E+02  0.533545211E+01  0.776450060E+00
   H  0.368680022E+02 -0.491252955E+01  0.340740710E+01
     4
 # iter = 67000  time[fs]=67.00000
   C -0.800978820E+01 -0.468819372E+00  0.797009760E-01
   C  0.754910067E+01  0.309326108E+00 -0.291372985E+00
   H -0.382362827E+02  0.539355272E+01  0.784770908E+00
   H  0.372642644E+02 -0.496603355E+01  0.344465086E+01
     4
 # iter = 67500  time[fs]=67.50000
   C -0.810088978E+01 -0.474392333E+00  0.806023382E-01
   C  0.763487957E+01  0.313467198E+00 -0.294863837E+00
   H -0.386436713E+02  0.545167256E+01  0.793094152E+00
   H  0.376606530E+02 -0.501955713E+01  0.348190827E+01
     4
 # iter = 68000  time[fs]=68.00000
   C -0.819204417E+01 -0.479968980E+00  0.815046939E-01
   C  0.772071052E+01  0.317612003E+00 -0.298356993E+00
   H -0.390511748E+02  0.550981123E+01  0.801419744E+00
   H  0.380571655E+02 -0.507309990E+01  0.351917903E+01
     4
 # iter = 68500  time[fs]=68.50000
   C -0.828325018E+01 -0.485549238E+00  0.824080212E-01
   C  0.780659237E+01  0.321760448E+00 -0.301852402E+00
   H -0.394587908E+02  0.556796836E+01  0.809747636E+00
   H  0.384537992E+02 -0.512666146E+01  0.355646289E+01
     4
 # iter = 69000  time[fs]=69.00000
   C -0.837450668E+01 -0.491133031E+00  0.833122991E-01
   C  0.789252398E+01  0.325912457E+00 -0.305350019E+00
   H -0.398665169E+02  0.562614356E+01  0.818077780E+00
   H  0.388505519E+02 -0.518024145E+01  0.359375957E+01
     4
 # iter = 69500  time[fs]=69.50000
   C -0.846581257E+01 -0.496720289E+00  0.842175068E-01
   C  0.797850428E+01  0.330067959E+00 -0.308849797E+00
   H -0.402743510E+02  0.568433649E+01  0.826410132E+00
   H  0.392474209E+02 -0.523383950E+01  0.363106883E+01
     4
 # iter = 70000  time[fs]=70.00000
   C -0.855716678E+01 -0.502310941E+00  0.851236247E-01
   C  0.806453221E+01  0.334226883E+00 -0.312351693E+00
   H -0.406822910E+02  0.574254679E+01  0.834744648E+00
   H  0.396444041E+02 -0.528745525E+01  0.366839042E+01
     4
 # iter = 70500  time[fs]=70.50000
   C -0.864856829E+01 -0.507904920E+00  0.860306334E-01
   C  0.815060676E+01  0.338389161E+00 -0.315855665E+00
   H -0.410903346E+02  0.580077412E+01  0.843081284E+00
   H  0.400414991E+02 -0.534108836E+01  0.370572410E+01
     4
 # iter = 71000  time[fs]=71.00000
   C -0.874001608E+01 -0.513502159E+00  0.869385143E-01
   C  0.823672693E+01  0.342554726E+00 -0.319361670E+00
   H -0.414984799E+02  0.585901815E+01  0.851420000E+00
   H  0.404387037E+02 -0.539473850E+01  0.374306963E+01
     4
 # iter = 71500  time[fs]=71.50000
   C -0.883150920E+01 -0.519102596E+00  0.878472493E-01
   C  0.832289176E+01  0.346723516E+00 -0.322869668E+00
   H -0.419067249E+02  0.591727856E+01  0.859760754E+00
   H  0.408360159E+02 -0.544840534E+01  0.378042679E+01
     4
 # iter = 72000  time[fs]=72.00000
   C -0.892304670E+01 -0.524706167E+00  0.887568209E-01
   C  0.840910034E+01  0.350895466E+00 -0.326379620E+00
   H -0.423150677E+02  0.597555504E+01  0.868103509E+00
   H  0.412334335E+02 -0.550208856E+01  0.381779537E+01
     4
 # iter = 72500  time[fs]=72.50000
   C -0.901462767E+01 -0.530312813E+00  0.896672121E-01
   C  0.849535176E+01  0.355070517E+00 -0.329891489E+00
   H -0.427235063E+02  0.603384729E+01  0.876448226E+00
   H  0.416309546E+02 -0.555578786E+01  0.385517514E+01
     4
 # iter = 73000  time[fs]=73.00000
   C -0.910625122E+01 -0.535922475E+00  0.905784065E-01
   C  0.858164515E+01  0.359248609E+00 -0.333405237E+00
   H -0.431320391E+02  0.609215502E+01  0.884794867E+00
   H  0.420285772E+02 -0.560950295E+01  0.389256591E+01
     4
 # iter = 73500  time[fs]=73.50000
   C -0.919791650E+01 -0.541535097E+00  0.914903879E-01
   C  0.866797966E+01  0.363429686E+00 -0.336920828E+00
   H -0.435406642E+02  0.615047793E+01  0.893143398E+00
   H  0.424262993E+02 -0.566323352E+01  0.392996746E+01
     4
 # iter = 74000  time[fs]=74.00000
   C -0.928962268E+01 -0.547150622E+00  0.924031408E-01
   C  0.875435448E+01  0.367613692E+00 -0.340438229E+00
   H -0.439493799E+02  0.620881575E+01  0.901493784E+00
   H  0.428241192E+02 -0.571697930E+01  0.396737961E+01
     4
 # iter = 74500  time[fs]=74.50000
   C -0.938136895E+01 -0.552768997E+00  0.933166501E-01
   C  0.884076880E+01  0.371800572E+00 -0.343957404E+00
   H -0.443581845E+02  0.626716822E+01  0.909845989E+00
   H  0.432220351E+02 -0.577074002E+01  0.400480215E+01
     4
 # iter = 75000  time[fs]=75.00000
   C -0.947315452E+01 -0.558390169E+00  0.942309013E-01
   C  0.892722185E+01  0.375990274E+00 -0.347478321E+00
   H -0.447670765E+02  0.632553506E+01  0.918199982E+00
   H  0.436200451E+02 -0.582451541E+01  0.404223491E+01
     4
 # iter = 75500  time[fs]=75.50000
   C -0.956497864E+01 -0.564014089E+00  0.951458799E-01
   C  0.901371288E+01  0.380182747E+00 -0.351000948E+00
   H -0.451760542E+02  0.638391602E+01  0.926555730E+00
   H  0.440181477E+02 -0.587830520E+01  0.407967771E+01
     4
 # iter = 76000  time[fs]=76.00000
   C -0.965684055E+01 -0.569640705E+00  0.960615722E-01
   C  0.910024116E+01  0.384377941E+00 -0.354525254E+00
   H -0.455851161E+02  0.644231085E+01  0.934913202E+00
   H  0.444163410E+02 -0.593210914E+01  0.411713036E+01
     4
 # iter = 76500  time[fs]=76.50000
   C -0.974873954E+01 -0.575269971E+00  0.969779647E-01
   C  0.918680597E+01  0.388575806E+00 -0.358051208E+00
   H -0.459942607E+02  0.650071930E+01  0.943272367E+00
   H  0.448146236E+02 -0.598592700E+01  0.415459270E+01
     4
 # iter = 77000  time[fs]=77.00000
   C -0.984067492E+01 -0.580901838E+00  0.978950443E-01
   C  0.927340663E+01  0.392776296E+00 -0.361578781E+00
   H -0.464034866E+02  0.655914115E+01  0.951633196E+00
   H  0.452129939E+02 -0.603975852E+01  0.419206456E+01
     4
 # iter = 77500  time[fs]=77.50000
   C -0.993264599E+01 -0.586536261E+00  0.988127983E-01
   C  0.936004247E+01  0.396979366E+00 -0.365107945E+00
   H -0.468127923E+02  0.661757616E+01  0.959995660E+00
   H  0.456114503E+02 -0.609360347E+01  0.422954577E+01
     4
 # iter = 78000  time[fs]=78.00000
   C -0.100246521E+02 -0.592173196E+00  0.997312143E-01
   C  0.944671283E+01  0.401184969E+00 -0.368638670E+00
   H -0.472221765E+02  0.667602411E+01  0.968359730E+00
   H  0.460099914E+02 -0.614746162E+01  0.426703618E+01
     4
 # iter = 78500  time[fs]=78.50000
   C -0.101166926E+02 -0.597812599E+00  0.100650280E+00
   C  0.953341708E+01  0.405393062E+00 -0.372170931E+00
   H -0.476316378E+02  0.673448477E+01  0.976725379E+00
   H  0.464086156E+02 -0.620133276E+01  0.430453562E+01
     4
 # iter = 79000  time[fs]=79.00000
   C -0.102087669E+02 -0.603454428E+00  0.101569984E+00
   C  0.962015459E+01  0.409603602E+00 -0.375704700E+00
   H -0.480411748E+02  0.679295793E+01  0.985092581E+00
   H  0.468073216E+02 -0.625521666E+01  0.434204397E+01
     4
 # iter = 79500  time[fs]=79.50000
   C -0.103008743E+02 -0.609098641E+00  0.102490315E+00
   C  0.970692478E+01  0.413816549E+00 -0.379239952E+00
   H -0.484507864E+02  0.685144339E+01  0.993461309E+00
   H  0.472061080E+02 -0.630911312E+01  0.437956105E+01
     4
 # iter = 80000  time[fs]=80.00000
   C -0.103930143E+02 -0.614745198E+00  0.103411262E+00
   C  0.979372704E+01  0.418031861E+00 -0.382776661E+00
   H -0.488604712E+02  0.690994094E+01  0.100183154E+01
   H  0.476049734E+02 -0.636302192E+01  0.441708673E+01
