     4
 # iter = 25000  time[fs]=25.00000
   C -0.941680963E+00  0.168384868E-01 -0.474572609E-01
   C  0.104684320E+01  0.284014503E-01  0.192760354E-01
   H -0.517135905E+01 -0.432138645E+00  0.491381962E+00
   H  0.535544824E+01  0.497693043E+00 -0.615327501E+00
     4
 # iter = 25500  time[fs]=25.50000
   C -0.986197812E+00  0.167302865E-01 -0.514361635E-01
   C  0.109199818E+01  0.263004503E-01  0.206051527E-01
   H -0.550855918E+01 -0.469509192E+00  0.517418664E+00
   H  0.566427401E+01  0.520157900E+00 -0.662849623E+00
     4
 # iter = 26000  time[fs]=26.00000
   C -0.103440721E+01  0.155645504E-01 -0.565749115E-01
   C  0.113888983E+01  0.232961920E-01  0.211364642E-01
   H -0.585385122E+01 -0.512542122E+00  0.538344462E+00
   H  0.597031740E+01  0.537469929E+00 -0.716113767E+00
     4
 # iter = 26500  time[fs]=26.50000
   C -0.108294610E+01  0.164849747E-01 -0.597253560E-01
   C  0.118999249E+01  0.220856175E-01  0.235629016E-01
   H -0.619083371E+01 -0.545118844E+00  0.570214044E+00
   H  0.628940421E+01  0.565698719E+00 -0.758991745E+00
     4
 # iter = 27000  time[fs]=27.00000
   C -0.113145410E+01  0.196491855E-01 -0.607253909E-01
   C  0.124523325E+01  0.227998595E-01  0.280111108E-01
   H -0.651845572E+01 -0.566419083E+00  0.613795771E+00
   H  0.662209290E+01  0.605618015E+00 -0.790657822E+00
     4
 # iter = 27500  time[fs]=27.50000
   C -0.118208036E+01  0.227221514E-01 -0.619056010E-01
   C  0.130241569E+01  0.234282593E-01  0.324656653E-01
   H -0.684847799E+01 -0.588393228E+00  0.657096709E+00
   H  0.695619724E+01  0.645232793E+00 -0.823060622E+00
     4
 # iter = 28000  time[fs]=28.00000
   C -0.123630724E+01  0.240518215E-01 -0.649135323E-01
   C  0.135994748E+01  0.225480608E-01  0.354990206E-01
   H -0.718918951E+01 -0.619493597E+00  0.691627938E+00
   H  0.728306266E+01  0.676053017E+00 -0.864650173E+00
     4
 # iter = 28500  time[fs]=28.50000
   C -0.129331123E+01  0.243072875E-01 -0.690755309E-01
   C  0.141824683E+01  0.207324183E-01  0.376796670E-01
   H -0.753700685E+01 -0.656281901E+00  0.720795179E+00
   H  0.760595997E+01  0.701488454E+00 -0.911982921E+00
     4
 # iter = 29000  time[fs]=29.00000
   C -0.135131254E+01  0.251282683E-01 -0.727473841E-01
   C  0.147858098E+01  0.193893855E-01  0.404111416E-01
   H -0.788339149E+01 -0.690347870E+00  0.752979908E+00
   H  0.793315722E+01  0.729926579E+00 -0.956642324E+00
     4
 # iter = 29500  time[fs]=29.50000
   C -0.140961795E+01  0.270812624E-01 -0.753582951E-01
   C  0.154130883E+01  0.190049831E-01  0.441750888E-01
   H -0.822532088E+01 -0.718780055E+00  0.791068626E+00
   H  0.826743814E+01  0.764257092E+00 -0.995712797E+00
     4
 # iter = 30000  time[fs]=30.00000
   C -0.146890640E+01  0.293728819E-01 -0.776975926E-01
   C  0.160563333E+01  0.188966922E-01  0.482847778E-01
   H -0.856675497E+01 -0.745634441E+00  0.830983801E+00
   H  0.860462967E+01  0.800402252E+00 -0.103324870E+01
     4
 # iter = 30500  time[fs]=30.50000
   C -0.152995962E+01  0.311179722E-01 -0.806465894E-01
   C  0.167068995E+01  0.183033677E-01  0.519750589E-01
   H -0.891213589E+01 -0.775437601E+00  0.868179899E+00
   H  0.894010062E+01  0.833815838E+00 -0.107377535E+01
     4
 # iter = 31000  time[fs]=31.00000
   C -0.159269634E+01  0.323042733E-01 -0.842139012E-01
   C  0.173637445E+01  0.172143319E-01  0.552314857E-01
   H -0.926144298E+01 -0.808244528E+00  0.902584919E+00
   H  0.927370498E+01  0.864426897E+00 -0.111734518E+01
     4
 # iter = 31500  time[fs]=31.50000
   C -0.165645446E+01  0.335092834E-01 -0.878185882E-01
   C  0.180309848E+01  0.161259750E-01  0.585469138E-01
   H -0.961164219E+01 -0.841089208E+00  0.937149548E+00
   H  0.960832911E+01  0.895188331E+00 -0.116098886E+01
     4
 # iter = 32000  time[fs]=32.00000
   C -0.172079942E+01  0.350909642E-01 -0.910994633E-01
   C  0.187109318E+01  0.153461254E-01  0.622258564E-01
   H -0.996083178E+01 -0.872130825E+00  0.973700869E+00
   H  0.994574194E+01  0.927928860E+00 -0.120286285E+01
     4
 # iter = 32500  time[fs]=32.50000
   C -0.178581362E+01  0.368975157E-01 -0.942053191E-01
   C  0.194015892E+01  0.147445652E-01  0.661349887E-01
   H -0.103097286E+02 -0.902140635E+00  0.101145535E+01
   H  0.102851062E+02  0.961865380E+00 -0.124373679E+01
     4
 # iter = 33000  time[fs]=33.00000
   C -0.185174706E+01  0.386159725E-01 -0.974463161E-01
   C  0.200996407E+01  0.140526174E-01  0.700027288E-01
   H -0.106598811E+02 -0.932715968E+00  0.104880460E+01
   H  0.106247643E+02  0.995389491E+00 -0.128520682E+01
     4
 # iter = 33500  time[fs]=33.50000
   C -0.191863423E+01  0.401546082E-01 -0.100911563E+00
   C  0.208037294E+01  0.131917983E-01  0.737478829E-01
   H -0.110117090E+02 -0.964321053E+00  0.108527436E+01
   H  0.109641977E+02  0.102802731E+01 -0.132773569E+01
     4
 # iter = 34000  time[fs]=34.00000
   C -0.198628974E+01  0.416467514E-01 -0.104465288E+00
   C  0.215144843E+01  0.122770856E-01  0.774829042E-01
   H -0.113644838E+02 -0.996267443E+00  0.112154394E+01
   H  0.113040463E+02  0.106045891E+01 -0.137063319E+01
     4
 # iter = 34500  time[fs]=34.50000
   C -0.205453575E+01  0.432227453E-01 -0.107974870E+00
   C  0.222325551E+01  0.114209137E-01  0.813178733E-01
   H -0.117174957E+02 -0.102788233E+01  0.115827781E+01
   H  0.116449383E+02  0.109334950E+01 -0.141322489E+01
     4
 # iter = 35000  time[fs]=35.00000
   C -0.212333124E+01  0.448802808E-01 -0.111440496E+00
   C  0.229574927E+01  0.106217180E-01  0.852490315E-01
   H -0.120707183E+02 -0.105917282E+01  0.119546122E+01
   H  0.119868257E+02  0.112668475E+01 -0.145551661E+01
     4
 # iter = 35500  time[fs]=35.50000
   C -0.219271135E+01  0.465445612E-01 -0.114934987E+00
   C  0.236882625E+01  0.981563701E-02  0.892104706E-01
   H -0.124244999E+02 -0.109051772E+01  0.123270843E+01
   H  0.123292920E+02  0.116007909E+01 -0.149788610E+01
     4
 # iter = 36000  time[fs]=36.00000
   C -0.226268056E+01  0.481747985E-01 -0.118497288E+00
   C  0.244241552E+01  0.896803674E-02  0.931656481E-01
   H -0.127790172E+02 -0.112212184E+01  0.126980820E+01
   H  0.126720978E+02  0.119332155E+01 -0.154053715E+01
     4
 # iter = 36500  time[fs]=36.50000
   C -0.233318799E+01  0.497885658E-01 -0.122108108E+00
   C  0.251649932E+01  0.809443711E-02  0.971283034E-01
   H -0.131341503E+02 -0.115389125E+01  0.130684855E+01
   H  0.130153052E+02  0.122650049E+01 -0.158337474E+01
     4
 # iter = 37000  time[fs]=37.00000
   C -0.240417200E+01  0.514168625E-01 -0.125734844E+00
   C  0.259107411E+01  0.722188998E-02  0.101123826E+00
   H -0.134897129E+02 -0.118566348E+01  0.134398653E+01
   H  0.133590474E+02  0.125977326E+01 -0.162623538E+01
     4
 # iter = 37500  time[fs]=37.50000
   C -0.247559692E+01  0.530671961E-01 -0.129368488E+00
   C  0.266611857E+01  0.635724736E-02  0.105157516E+00
   H -0.138456412E+02 -0.121739662E+01  0.138125899E+01
   H  0.137033392E+02  0.129317698E+01 -0.166907625E+01
     4
 # iter = 38000  time[fs]=38.00000
   C -0.254744866E+01  0.547276498E-01 -0.133019560E+00
   C  0.274159691E+01  0.549065578E-02  0.109218067E+00
   H -0.142019726E+02 -0.124914849E+01  0.141860344E+01
   H  0.140480976E+02  0.132664936E+01 -0.171195435E+01
     4
 # iter = 38500  time[fs]=38.50000
   C -0.261971350E+01  0.563879516E-01 -0.136697021E+00
   C  0.281747668E+01  0.461366286E-02  0.113295669E+00
   H -0.145587377E+02 -0.128096868E+01  0.145596596E+01
   H  0.143932495E+02  0.136013666E+01 -0.175491850E+01
     4
 # iter = 39000  time[fs]=39.00000
   C -0.269236902E+01  0.580483185E-01 -0.140399430E+00
   C  0.289373629E+01  0.372681798E-02  0.117389600E+00
   H -0.149159152E+02 -0.131285322E+01  0.149334650E+01
   H  0.147387774E+02  0.139363900E+01 -0.179796398E+01
     4
 # iter = 39500  time[fs]=39.50000
   C -0.276538983E+01  0.597135953E-01 -0.144120794E+00
   C  0.297035971E+01  0.283463497E-02  0.121503181E+00
   H -0.152734611E+02 -0.134477458E+01  0.153076881E+01
   H  0.150846883E+02  0.142718034E+01 -0.184106256E+01
     4
 # iter = 40000  time[fs]=40.00000
   C -0.283875463E+01  0.613860098E-01 -0.147857809E+00
   C  0.304733015E+01  0.193936494E-02  0.125637548E+00
   H -0.156313462E+02 -0.137671881E+01  0.156824336E+01
   H  0.154309774E+02  0.146077128E+01 -0.188419962E+01
     4
 # iter = 40500  time[fs]=40.50000
   C -0.291244694E+01  0.630643117E-01 -0.151610715E+00
   C  0.312462918E+01  0.104025650E-02  0.129790898E+00
   H -0.159895605E+02 -0.140868991E+01  0.160576285E+01
   H  0.157776231E+02  0.149440468E+01 -0.192737857E+01
     4
 # iter = 41000  time[fs]=41.00000
   C -0.298645209E+01  0.647467090E-01 -0.155380358E+00
   C  0.320223911E+01  0.136079687E-03  0.133961017E+00
   H -0.163480976E+02 -0.144069481E+01  0.164331731E+01
   H  0.161246018E+02  0.152807068E+01 -0.197060574E+01
     4
 # iter = 41500  time[fs]=41.50000
   C -0.306075523E+01  0.664327055E-01 -0.159166340E+00
   C  0.328014449E+01 -0.773294557E-03  0.138146847E+00
   H -0.167069454E+02 -0.147273390E+01  0.168090346E+01
   H  0.164718977E+02  0.156176614E+01 -0.201388098E+01
     4
 # iter = 42000  time[fs]=42.00000
   C -0.313534165E+01  0.681226866E-01 -0.162967439E+00
   C  0.335833165E+01 -0.168725010E-02  0.142348134E+00
   H -0.170660883E+02 -0.150480318E+01  0.171852260E+01
   H  0.168195003E+02  0.159549246E+01 -0.205719978E+01
     4
 # iter = 42500  time[fs]=42.50000
   C -0.321019771E+01  0.698169155E-01 -0.166782601E+00
   C  0.343678775E+01 -0.260528797E-02  0.146564553E+00
   H -0.174255121E+02 -0.153689940E+01  0.175617545E+01
   H  0.171673991E+02  0.162925047E+01 -0.210055838E+01
     4
 # iter = 43000  time[fs]=43.00000
   C -0.328531108E+01  0.715152303E-01 -0.170611243E+00
   C  0.351550042E+01 -0.352728599E-02  0.150795452E+00
   H -0.177852056E+02 -0.156902156E+01  0.179386062E+01
   H  0.175155823E+02  0.166303888E+01 -0.214395534E+01
     4
 # iter = 43500  time[fs]=43.50000
   C -0.336067037E+01  0.732173225E-01 -0.174452972E+00
   C  0.359445797E+01 -0.445325933E-02  0.155040085E+00
   H -0.181451589E+02 -0.160116953E+01  0.183157600E+01
   H  0.178640379E+02  0.169685566E+01 -0.218739008E+01
     4
 # iter = 44000  time[fs]=44.00000
   C -0.343626479E+01  0.749229918E-01 -0.178307325E+00
   C  0.367364953E+01 -0.538314091E-02  0.159297829E+00
   H -0.185053624E+02 -0.163334271E+01  0.186932006E+01
   H  0.182127552E+02  0.173069938E+01 -0.223086158E+01
     4
 # iter = 44500  time[fs]=44.50000
   C -0.351208416E+01  0.766321517E-01 -0.182173762E+00
   C  0.375306497E+01 -0.631677594E-02  0.163568184E+00
   H -0.188658064E+02 -0.166553999E+01  0.190709191E+01
   H  0.185617243E+02  0.176456922E+01 -0.227436835E+01
     4
 # iter = 45000  time[fs]=45.00000
   C -0.358811885E+01  0.783447316E-01 -0.186051762E+00
   C  0.383269480E+01 -0.725400599E-02  0.167850693E+00
   H -0.192264816E+02 -0.169776027E+01  0.194489076E+01
   H  0.189109363E+02  0.179846446E+01 -0.231790889E+01
     4
 # iter = 45500  time[fs]=45.50000
   C -0.366435989E+01  0.800606291E-01 -0.189940865E+00
   C  0.391253008E+01 -0.819470922E-02  0.172144891E+00
   H -0.195873795E+02 -0.173000267E+01  0.198271570E+01
   H  0.192603824E+02  0.183238426E+01 -0.236148199E+01
     4
 # iter = 46000  time[fs]=46.00000
   C -0.374079884E+01  0.817797260E-01 -0.193840660E+00
   C  0.399256236E+01 -0.913878635E-02  0.176450325E+00
   H -0.199484922E+02 -0.176226648E+01  0.202056574E+01
   H  0.196100542E+02  0.186632770E+01 -0.240508658E+01
     4
 # iter = 46500  time[fs]=46.50000
   C -0.381742772E+01  0.835019128E-01 -0.197750751E+00
   C  0.407278368E+01 -0.100861392E-01  0.180766567E+00
   H -0.203098120E+02 -0.179455099E+01  0.205843998E+01
   H  0.199599437E+02  0.190029394E+01 -0.244872164E+01
     4
 # iter = 47000  time[fs]=47.00000
   C -0.389423903E+01  0.852270936E-01 -0.201670757E+00
   C  0.415318657E+01 -0.110366660E-01  0.185093220E+00
   H -0.206713318E+02 -0.182685548E+01  0.209633761E+01
   H  0.203100434E+02  0.193428222E+01 -0.249238614E+01
     4
 # iter = 47500  time[fs]=47.50000
   C -0.397122566E+01  0.869551790E-01 -0.205600314E+00
   C  0.423376395E+01 -0.119902671E-01  0.189429911E+00
   H -0.210330446E+02 -0.185917927E+01  0.213425785E+01
   H  0.206603463E+02  0.196829184E+01 -0.253607911E+01
     4
 # iter = 48000  time[fs]=48.00000
   C -0.404838093E+01  0.886860815E-01 -0.209539079E+00
   C  0.431450914E+01 -0.129468486E-01  0.193776282E+00
   H -0.213949441E+02 -0.189152172E+01  0.217219999E+01
   H  0.210108456E+02  0.200232209E+01 -0.257979962E+01
     4
 # iter = 48500  time[fs]=48.50000
   C -0.412569848E+01  0.904197157E-01 -0.213486726E+00
   C  0.439541582E+01 -0.139063218E-01  0.198131995E+00
   H -0.217570239E+02 -0.192388222E+01  0.221016331E+01
   H  0.213615348E+02  0.203637234E+01 -0.262354679E+01
     4
 # iter = 49000  time[fs]=49.00000
   C -0.420317231E+01  0.921559995E-01 -0.217442950E+00
   C  0.447647801E+01 -0.148686021E-01  0.202496728E+00
   H -0.221192782E+02 -0.195626020E+01  0.224814713E+01
   H  0.217124078E+02  0.207044195E+01 -0.266731980E+01
     4
 # iter = 49500  time[fs]=49.50000
   C -0.428079675E+01  0.938948547E-01 -0.221407455E+00
   C  0.455769004E+01 -0.158336074E-01  0.206870173E+00
   H -0.224817014E+02 -0.198865509E+01  0.228615083E+01
   H  0.220634588E+02  0.210453032E+01 -0.271111785E+01
     4
 # iter = 50000  time[fs]=50.00000
   C -0.435856640E+01  0.956362065E-01 -0.225379964E+00
   C  0.463904654E+01 -0.168012591E-01  0.211252040E+00
   H -0.228442882E+02 -0.202106639E+01  0.232417378E+01
   H  0.224146821E+02  0.213863688E+01 -0.275494018E+01
     4
 # iter = 50500  time[fs]=50.50000
   C -0.443647613E+01  0.973799830E-01 -0.229360212E+00
   C  0.472054242E+01 -0.177714816E-01  0.215642052E+00
   H -0.232070334E+02 -0.205349358E+01  0.236221540E+01
   H  0.227660726E+02  0.217276109E+01 -0.279878606E+01
     4
 # iter = 51000  time[fs]=51.00000
   C -0.451452110E+01  0.991261154E-01 -0.233347944E+00
   C  0.480217283E+01 -0.187442024E-01  0.220039944E+00
   H -0.235699322E+02 -0.208593619E+01  0.240027515E+01
   H  0.231176251E+02  0.220690242E+01 -0.284265481E+01
     4
 # iter = 51500  time[fs]=51.50000
   C -0.459269668E+01  0.100874537E+00 -0.237342921E+00
   C  0.488393317E+01 -0.197193520E-01  0.224445465E+00
   H -0.239329801E+02 -0.211839375E+01  0.243835248E+01
   H  0.234693348E+02  0.224106039E+01 -0.288654574E+01
     4
 # iter = 52000  time[fs]=52.00000
   C -0.467099849E+01  0.102625185E+00 -0.241344913E+00
   C  0.496581906E+01 -0.206968634E-01  0.228858374E+00
   H -0.242961724E+02 -0.215086584E+01  0.247644690E+01
   H  0.238211970E+02  0.227523451E+01 -0.293045824E+01
     4
 # iter = 52500  time[fs]=52.50000
   C -0.474942232E+01  0.104377997E+00 -0.245353701E+00
   C  0.504782634E+01 -0.216766724E-01  0.233278443E+00
   H -0.246595051E+02 -0.218335203E+01  0.251455790E+01
   H  0.241732074E+02  0.230942433E+01 -0.297439169E+01
     4
 # iter = 53000  time[fs]=53.00000
   C -0.482796422E+01  0.106132915E+00 -0.249369075E+00
   C  0.512995103E+01 -0.226587170E-01  0.237705451E+00
   H -0.250229740E+02 -0.221585192E+01  0.255268503E+01
   H  0.245253616E+02  0.234362941E+01 -0.301834552E+01
     4
 # iter = 53500  time[fs]=53.50000
   C -0.490662036E+01  0.107889882E+00 -0.253390835E+00
   C  0.521218936E+01 -0.236429377E-01  0.242139190E+00
   H -0.253865752E+02 -0.224836513E+01  0.259082783E+01
   H  0.248776556E+02  0.237784933E+01 -0.306231915E+01
     4
 # iter = 54000  time[fs]=54.00000
   C -0.498538714E+01  0.109648844E+00 -0.257418790E+00
   C  0.529453771E+01 -0.246292774E-01  0.246579460E+00
   H -0.257503051E+02 -0.228089129E+01  0.262898589E+01
   H  0.252300856E+02  0.241208369E+01 -0.310631205E+01
     4
 # iter = 54500  time[fs]=54.50000
   C -0.506426109E+01  0.111409749E+00 -0.261452757E+00
   C  0.537699264E+01 -0.256176807E-01  0.251026068E+00
   H -0.261141601E+02 -0.231343005E+01  0.266715878E+01
   H  0.255826477E+02  0.244633210E+01 -0.315032372E+01
     4
 # iter = 55000  time[fs]=55.00000
   C -0.514323891E+01  0.113172545E+00 -0.265492561E+00
   C  0.545955087E+01 -0.266080948E-01  0.255478831E+00
   H -0.264781367E+02 -0.234598106E+01  0.270534611E+01
   H  0.259353385E+02  0.248059420E+01 -0.319435365E+01
     4
 # iter = 55500  time[fs]=55.50000
   C -0.522231745E+01  0.114937185E+00 -0.269538033E+00
   C  0.554220924E+01 -0.276004682E-01  0.259937574E+00
   H -0.268422317E+02 -0.237854400E+01  0.274354750E+01
   H  0.262881544E+02  0.251486962E+01 -0.323840137E+01
     4
 # iter = 56000  time[fs]=56.00000
   C -0.530149368E+01  0.116703621E+00 -0.273589013E+00
   C  0.562496475E+01 -0.285947518E-01  0.264402127E+00
   H -0.272064419E+02 -0.241111857E+01  0.278176259E+01
   H  0.266410921E+02  0.254915802E+01 -0.328246643E+01
     4
 # iter = 56500  time[fs]=56.50000
   C -0.538076472E+01  0.118471809E+00 -0.277645347E+00
   C  0.570781453E+01 -0.295908981E-01  0.268872330E+00
   H -0.275707643E+02 -0.244370445E+01  0.281999103E+01
   H  0.269941485E+02  0.258345907E+01 -0.332654837E+01
     4
 # iter = 57000  time[fs]=57.00000
   C -0.546012779E+01  0.120241705E+00 -0.281706886E+00
   C  0.579075581E+01 -0.305888610E-01  0.273348027E+00
   H -0.279351959E+02 -0.247630137E+01  0.285823248E+01
   H  0.273473205E+02  0.261777246E+01 -0.337064679E+01
     4
 # iter = 57500  time[fs]=57.50000
   C -0.553958026E+01  0.122013267E+00 -0.285773489E+00
   C  0.587378598E+01 -0.315885965E-01  0.277829069E+00
   H -0.282997340E+02 -0.250890904E+01  0.289648661E+01
   H  0.277006053E+02  0.265209788E+01 -0.341476127E+01
     4
 # iter = 58000  time[fs]=58.00000
   C -0.561911957E+01  0.123786454E+00 -0.289845018E+00
   C  0.595690248E+01 -0.325900618E-01  0.282315312E+00
   H -0.286643759E+02 -0.254152719E+01  0.293475312E+01
   H  0.280539998E+02  0.268643504E+01 -0.345889142E+01
     4
 # iter = 58500  time[fs]=58.50000
   C -0.569874331E+01  0.125561228E+00 -0.293921344E+00
   C  0.604010290E+01 -0.335932156E-01  0.286806620E+00
   H -0.290291189E+02 -0.257415556E+01  0.297303169E+01
   H  0.284075015E+02  0.272078364E+01 -0.350303686E+01
     4
 # iter = 59000  time[fs]=59.00000
   C -0.577844912E+01  0.127337550E+00 -0.298002340E+00
   C  0.612338492E+01 -0.345980182E-01  0.291302861E+00
   H -0.293939607E+02 -0.260679392E+01  0.301132204E+01
   H  0.287611077E+02  0.275514343E+01 -0.354719723E+01
     4
 # iter = 59500  time[fs]=59.50000
   C -0.585823476E+01  0.129115385E+00 -0.302087884E+00
   C  0.620674629E+01 -0.356044310E-01  0.295803906E+00
   H -0.297588987E+02 -0.263944201E+01  0.304962390E+01
   H  0.291148159E+02  0.278951413E+01 -0.359137218E+01
     4
 # iter = 60000  time[fs]=60.00000
   C -0.593809808E+01  0.130894697E+00 -0.306177860E+00
   C  0.629018488E+01 -0.366124170E-01  0.300309634E+00
   H -0.301239307E+02 -0.267209961E+01  0.308793698E+01
   H  0.294686236E+02  0.282389549E+01 -0.363556136E+01
     4
 # iter = 60500  time[fs]=60.50000
   C -0.601803701E+01  0.132675451E+00 -0.310272156E+00
   C  0.637369862E+01 -0.376219400E-01  0.304819926E+00
   H -0.304890543E+02 -0.270476650E+01  0.312626103E+01
   H  0.298225285E+02  0.285828726E+01 -0.367976445E+01
     4
 # iter = 61000  time[fs]=61.00000
   C -0.609804955E+01  0.134457616E+00 -0.314370663E+00
   C  0.645728553E+01 -0.386329655E-01  0.309334669E+00
   H -0.308542676E+02 -0.273744245E+01  0.316459579E+01
   H  0.301765282E+02  0.289268921E+01 -0.372398112E+01
     4
 # iter = 61500  time[fs]=61.50000
   C -0.617813379E+01  0.136241159E+00 -0.318473278E+00
   C  0.654094370E+01 -0.396454597E-01  0.313853754E+00
   H -0.312195683E+02 -0.277012727E+01  0.320294103E+01
   H  0.305306207E+02  0.292710111E+01 -0.376821109E+01
     4
 # iter = 62000  time[fs]=62.00000
   C -0.625828789E+01  0.138026050E+00 -0.322579899E+00
   C  0.662467130E+01 -0.406593901E-01  0.318377075E+00
   H -0.315849544E+02 -0.280282075E+01  0.324129650E+01
   H  0.308848038E+02  0.296152273E+01 -0.381245404E+01
     4
 # iter = 62500  time[fs]=62.50000
   C -0.633851008E+01  0.139812259E+00 -0.326690430E+00
   C  0.670846657E+01 -0.416747252E-01  0.322904530E+00
   H -0.319504241E+02 -0.283552269E+01  0.327966199E+01
   H  0.312390755E+02  0.299595386E+01 -0.385670969E+01
     4
 # iter = 63000  time[fs]=63.00000
   C -0.641879863E+01  0.141599756E+00 -0.330804777E+00
   C  0.679232779E+01 -0.426914344E-01  0.327436021E+00
   H -0.323159754E+02 -0.286823291E+01  0.331803726E+01
   H  0.315934337E+02  0.303039430E+01 -0.390097777E+01
     4
 # iter = 63500  time[fs]=63.50000
   C -0.649915191E+01  0.143388514E+00 -0.334922850E+00
   C  0.687625334E+01 -0.437094884E-01  0.331971453E+00
   H -0.326816065E+02 -0.290095123E+01  0.335642211E+01
   H  0.319478765E+02  0.306484384E+01 -0.394525801E+01
     4
 # iter = 64000  time[fs]=64.00000
   C -0.657956833E+01  0.145178506E+00 -0.339044562E+00
   C  0.696024163E+01 -0.447288583E-01  0.336510734E+00
   H -0.330473156E+02 -0.293367748E+01  0.339481634E+01
   H  0.323024022E+02  0.309930228E+01 -0.398955015E+01
     4
 # iter = 64500  time[fs]=64.50000
   C -0.666004636E+01  0.146969706E+00 -0.343169829E+00
   C  0.704429113E+01 -0.457495165E-01  0.341053777E+00
   H -0.334131012E+02 -0.296641147E+01  0.343321974E+01
   H  0.326570089E+02  0.313376945E+01 -0.403385393E+01
     4
 # iter = 65000  time[fs]=65.00000
   C -0.674058451E+01  0.148762088E+00 -0.347298570E+00
   C  0.712840039E+01 -0.467714361E-01  0.345600495E+00
   H -0.337789614E+02 -0.299915305E+01  0.347163211E+01
   H  0.330116948E+02  0.316824515E+01 -0.407816912E+01
     4
 # iter = 65500  time[fs]=65.50000
   C -0.682118136E+01  0.150555627E+00 -0.351430705E+00
   C  0.721256797E+01 -0.477945910E-01  0.350150806E+00
   H -0.341448947E+02 -0.303190206E+01  0.351005328E+01
   H  0.333664584E+02  0.320272921E+01 -0.412249548E+01
     4
 # iter = 66000  time[fs]=66.00000
   C -0.690183554E+01  0.152350301E+00 -0.355566159E+00
   C  0.729679251E+01 -0.488189558E-01  0.354704630E+00
   H -0.345108997E+02 -0.306465835E+01  0.354848306E+01
   H  0.337212979E+02  0.323722147E+01 -0.416683278E+01
     4
 # iter = 66500  time[fs]=66.50000
   C -0.698254572E+01  0.154146084E+00 -0.359704859E+00
   C  0.738107269E+01 -0.498445061E-01  0.359261890E+00
   H -0.348769747E+02 -0.309742176E+01  0.358692127E+01
   H  0.340762118E+02  0.327172174E+01 -0.421118080E+01
     4
 # iter = 67000  time[fs]=67.00000
   C -0.706331060E+01  0.155942956E+00 -0.363846732E+00
   C  0.746540722E+01 -0.508712181E-01  0.363822511E+00
   H -0.352431183E+02 -0.313019215E+01  0.362536775E+01
   H  0.344311986E+02  0.330622988E+01 -0.425553932E+01
     4
 # iter = 67500  time[fs]=67.50000
   C -0.714412896E+01  0.157740894E+00 -0.367991711E+00
   C  0.754979487E+01 -0.518990685E-01  0.368386420E+00
   H -0.356093292E+02 -0.316296937E+01  0.366382233E+01
   H  0.347862568E+02  0.334074572E+01 -0.429990814E+01
     4
 # iter = 68000  time[fs]=68.00000
   C -0.722499957E+01  0.159539878E+00 -0.372139729E+00
   C  0.763423445E+01 -0.529280349E-01  0.372953547E+00
   H -0.359756059E+02 -0.319575330E+01  0.370228485E+01
   H  0.351413849E+02  0.337526912E+01 -0.434428705E+01
     4
 # iter = 68500  time[fs]=68.50000
   C -0.730592130E+01  0.161339885E+00 -0.376290721E+00
   C  0.771872480E+01 -0.539580956E-01  0.377523824E+00
   H -0.363419472E+02 -0.322854380E+01  0.374075516E+01
   H  0.354965816E+02  0.340979993E+01 -0.438867586E+01
     4
 # iter = 69000  time[fs]=69.00000
   C -0.738689300E+01  0.163140897E+00 -0.380444625E+00
   C  0.780326481E+01 -0.549892293E-01  0.382097186E+00
   H -0.367083518E+02 -0.326134074E+01  0.377923309E+01
   H  0.358518455E+02  0.344433800E+01 -0.443307438E+01
     4
 # iter = 69500  time[fs]=69.50000
   C -0.746791359E+01  0.164942894E+00 -0.384601379E+00
   C  0.788785338E+01 -0.560214154E-01  0.386673568E+00
   H -0.370748183E+02 -0.329414400E+01  0.381771851E+01
   H  0.362071753E+02  0.347888319E+01 -0.447748241E+01
     4
 # iter = 70000  time[fs]=70.00000
   C -0.754898202E+01  0.166745858E+00 -0.388760926E+00
   C  0.797248947E+01 -0.570546340E-01  0.391252909E+00
   H -0.374413457E+02 -0.332695346E+01  0.385621128E+01
   H  0.365625697E+02  0.351343538E+01 -0.452189979E+01
     4
 # iter = 70500  time[fs]=70.50000
   C -0.763009727E+01  0.168549769E+00 -0.392923207E+00
   C  0.805717206E+01 -0.580888655E-01  0.395835148E+00
   H -0.378079327E+02 -0.335976899E+01  0.389471125E+01
   H  0.369180275E+02  0.354799442E+01 -0.456632633E+01
     4
 # iter = 71000  time[fs]=71.00000
   C -0.771125834E+01  0.170354610E+00 -0.397088169E+00
   C  0.814190018E+01 -0.591240911E-01  0.400420227E+00
   H -0.381745783E+02 -0.339259048E+01  0.393321829E+01
   H  0.372735474E+02  0.358256019E+01 -0.461076186E+01
     4
 # iter = 71500  time[fs]=71.50000
   C -0.779246428E+01  0.172160364E+00 -0.401255756E+00
   C  0.822667287E+01 -0.601602922E-01  0.405008090E+00
   H -0.385412812E+02 -0.342541783E+01  0.397173227E+01
   H  0.376291283E+02  0.361713258E+01 -0.465520623E+01
     4
 # iter = 72000  time[fs]=72.00000
   C -0.787371416E+01  0.173967013E+00 -0.405425918E+00
   C  0.831148919E+01 -0.611974511E-01  0.409598682E+00
   H -0.389080404E+02 -0.345825092E+01  0.401025306E+01
   H  0.379847691E+02  0.365171145E+01 -0.469965927E+01
     4
 # iter = 72500  time[fs]=72.50000
   C -0.795500708E+01  0.175774542E+00 -0.409598603E+00
   C  0.839634827E+01 -0.622355502E-01  0.414191950E+00
   H -0.392748549E+02 -0.349108964E+01  0.404878054E+01
   H  0.383404687E+02  0.368629669E+01 -0.474412081E+01
     4
 # iter = 73000  time[fs]=73.00000
   C -0.803634216E+01  0.177582935E+00 -0.413773762E+00
   C  0.848124923E+01 -0.632745727E-01  0.418787841E+00
   H -0.396417237E+02 -0.352393391E+01  0.408731459E+01
   H  0.386962259E+02  0.372088818E+01 -0.478859072E+01
     4
 # iter = 73500  time[fs]=73.50000
   C -0.811771856E+01  0.179392175E+00 -0.417951348E+00
   C  0.856619122E+01 -0.643145019E-01  0.423386305E+00
   H -0.400086457E+02 -0.355678361E+01  0.412585508E+01
   H  0.390520398E+02  0.375548582E+01 -0.483306884E+01
     4
 # iter = 74000  time[fs]=74.00000
   C -0.819913545E+01  0.181202248E+00 -0.422131314E+00
   C  0.865117342E+01 -0.653553219E-01  0.427987294E+00
   H -0.403756200E+02 -0.358963865E+01  0.416440192E+01
   H  0.394079093E+02  0.379008949E+01 -0.487755503E+01
     4
 # iter = 74500  time[fs]=74.50000
   C -0.828059203E+01  0.183013139E+00 -0.426313616E+00
   C  0.873619505E+01 -0.663970169E-01  0.432590760E+00
   H -0.407426457E+02 -0.362249894E+01  0.420295498E+01
   H  0.397638334E+02  0.382469910E+01 -0.492204914E+01
     4
 # iter = 75000  time[fs]=75.00000
   C -0.836208753E+01  0.184824833E+00 -0.430498209E+00
   C  0.882125532E+01 -0.674395716E-01  0.437196656E+00
   H -0.411097219E+02 -0.365536438E+01  0.424151415E+01
   H  0.401198112E+02  0.385931453E+01 -0.496655104E+01
     4
 # iter = 75500  time[fs]=75.50000
   C -0.844362119E+01  0.186637317E+00 -0.434685050E+00
   C  0.890635349E+01 -0.684829712E-01  0.441804939E+00
   H -0.414768476E+02 -0.368823488E+01  0.428007934E+01
   H  0.404758416E+02  0.389393569E+01 -0.501106060E+01
     4
 # iter = 76000  time[fs]=76.00000
   C -0.852519228E+01  0.188450577E+00 -0.438874099E+00
   C  0.899148883E+01 -0.695272012E-01  0.446415563E+00
   H -0.418440220E+02 -0.372111036E+01  0.431865043E+01
   H  0.408319239E+02  0.392856249E+01 -0.505557768E+01
     4
 # iter = 76500  time[fs]=76.50000
   C -0.860680008E+01  0.190264599E+00 -0.443065314E+00
   C  0.907666064E+01 -0.705722475E-01  0.451028487E+00
   H -0.422112442E+02 -0.375399073E+01  0.435722734E+01
   H  0.411880571E+02  0.396319481E+01 -0.510010217E+01
     4
 # iter = 77000  time[fs]=77.00000
   C -0.868844391E+01  0.192079371E+00 -0.447258658E+00
   C  0.916186821E+01 -0.716180962E-01  0.455643669E+00
   H -0.425785135E+02 -0.378687592E+01  0.439580995E+01
   H  0.415442404E+02  0.399783258E+01 -0.514463393E+01
     4
 # iter = 77500  time[fs]=77.50000
   C -0.877012309E+01  0.193894880E+00 -0.451454091E+00
   C  0.924711089E+01 -0.726647340E-01  0.460261069E+00
   H -0.429458290E+02 -0.381976583E+01  0.443439818E+01
   H  0.419004728E+02  0.403247571E+01 -0.518917284E+01
     4
 # iter = 78000  time[fs]=78.00000
   C -0.885183696E+01  0.195711114E+00 -0.455651576E+00
   C  0.933238803E+01 -0.737121477E-01  0.464880648E+00
   H -0.433131900E+02 -0.385266038E+01  0.447299193E+01
   H  0.422567536E+02  0.406712409E+01 -0.523371879E+01
     4
 # iter = 78500  time[fs]=78.50000
   C -0.893358489E+01  0.197528061E+00 -0.459851078E+00
   C  0.941769898E+01 -0.747603245E-01  0.469502367E+00
   H -0.436805957E+02 -0.388555952E+01  0.451159112E+01
   H  0.426130820E+02  0.410177766E+01 -0.527827166E+01
     4
 # iter = 79000  time[fs]=79.00000
   C -0.901536626E+01  0.199345708E+00 -0.464052560E+00
   C  0.950304313E+01 -0.758092520E-01  0.474126188E+00
   H -0.440480453E+02 -0.391846315E+01  0.455019565E+01
   H  0.429694571E+02  0.413643632E+01 -0.532283135E+01
     4
 # iter = 79500  time[fs]=79.50000
   C -0.909718047E+01  0.201164045E+00 -0.468255989E+00
   C  0.958841989E+01 -0.768589179E-01  0.478752077E+00
   H -0.444155381E+02 -0.395137120E+01  0.458880543E+01
   H  0.433258783E+02  0.417109999E+01 -0.536739773E+01
     4
 # iter = 80000  time[fs]=80.00000
   C -0.917902692E+01  0.202983060E+00 -0.472461331E+00
   C  0.967382866E+01 -0.779093104E-01  0.483379997E+00
   H -0.447830735E+02 -0.398428361E+01  0.462742039E+01
   H  0.436823447E+02  0.420576859E+01 -0.541197071E+01
