     4
 # iter = 25000  time[fs]=25.00000
   C -0.958124430E+00 -0.155722176E-02  0.565711624E-01
   C  0.100751690E+01  0.968862204E-02 -0.129804963E-01
   H -0.529961425E+01  0.443298464E+00  0.138699196E+00
   H  0.527808175E+01 -0.247140757E+00 -0.323939542E+00
     4
 # iter = 25500  time[fs]=25.50000
   C -0.100192791E+01 -0.589616761E-02  0.572313092E-01
   C  0.104718432E+01  0.871253757E-02 -0.134787628E-01
   H -0.563899335E+01  0.458970074E+00  0.138415197E+00
   H  0.558945124E+01 -0.273865239E+00 -0.352834513E+00
     4
 # iter = 26000  time[fs]=26.00000
   C -0.104957135E+01 -0.111985539E-01  0.570805660E-01
   C  0.108876676E+01  0.678811643E-02 -0.150425644E-01
   H -0.598897903E+01  0.469695350E+00  0.132834923E+00
   H  0.590092403E+01 -0.306304570E+00 -0.387518616E+00
     4
 # iter = 26500  time[fs]=26.50000
   C -0.109808371E+01 -0.147228716E-01  0.588483634E-01
   C  0.113494967E+01  0.683351531E-02 -0.147459179E-01
   H -0.633288909E+01  0.491501993E+00  0.138028598E+00
   H  0.622800574E+01 -0.328336906E+00 -0.411861504E+00
     4
 # iter = 27000  time[fs]=27.00000
   C -0.114711089E+01 -0.163325889E-01  0.626601239E-01
   C  0.118566073E+01  0.899346367E-02 -0.124364747E-01
   H -0.666943486E+01  0.525140925E+00  0.154781573E+00
   H  0.657097585E+01 -0.339138515E+00 -0.425031999E+00
     4
 # iter = 27500  time[fs]=27.50000
   C -0.119848723E+01 -0.180656004E-01  0.664677647E-01
   C  0.123852924E+01  0.110976537E-01 -0.102772430E-01
   H -0.701017453E+01  0.558609055E+00  0.171118880E+00
   H  0.691740420E+01 -0.350657091E+00 -0.438971250E+00
     4
 # iter = 28000  time[fs]=28.00000
   C -0.125346703E+01 -0.213633171E-01  0.688205151E-01
   C  0.129183458E+01  0.116100829E-01 -0.979733561E-02
   H -0.736322177E+01  0.583408339E+00  0.178566539E+00
   H  0.725842659E+01 -0.371342117E+00 -0.462123163E+00
     4
 # iter = 28500  time[fs]=28.50000
   C -0.131129586E+01 -0.256414347E-01  0.702940854E-01
   C  0.134602699E+01  0.111504100E-01 -0.103706610E-01
   H -0.772483974E+01  0.602933536E+00  0.180540569E+00
   H  0.759713531E+01 -0.397751049E+00 -0.491040524E+00
     4
 # iter = 29000  time[fs]=29.00000
   C -0.137038774E+01 -0.294684051E-01  0.723121649E-01
   C  0.140247303E+01  0.112397726E-01 -0.104701111E-01
   H -0.808635559E+01  0.625555087E+00  0.185430096E+00
   H  0.794164459E+01 -0.421468958E+00 -0.517304426E+00
     4
 # iter = 29500  time[fs]=29.50000
   C -0.143010678E+01 -0.323487731E-01  0.753630543E-01
   C  0.146155715E+01  0.124027693E-01 -0.956556594E-02
   H -0.844462896E+01  0.654150943E+00  0.196129179E+00
   H  0.829460287E+01 -0.439581388E+00 -0.537996922E+00
     4
 # iter = 30000  time[fs]=30.00000
   C -0.149101615E+01 -0.349733692E-01  0.787494208E-01
   C  0.152241447E+01  0.139012489E-01 -0.839008765E-02
   H -0.880351622E+01  0.684637692E+00  0.208568259E+00
   H  0.865171710E+01 -0.456143217E+00 -0.557169788E+00
     4
 # iter = 30500  time[fs]=30.50000
   C -0.155377106E+01 -0.381130053E-01  0.816945390E-01
   C  0.158410708E+01  0.149119130E-01 -0.776230007E-02
   H -0.916736804E+01  0.712464955E+00  0.218209090E+00
   H  0.900825004E+01 -0.475680115E+00 -0.579345957E+00
     4
 # iter = 31000  time[fs]=31.00000
   C -0.161827634E+01 -0.417769126E-01  0.841837935E-01
   C  0.164651858E+01  0.154221154E-01 -0.769056709E-02
   H -0.953608266E+01  0.737555692E+00  0.224985463E+00
   H  0.936396234E+01 -0.498245044E+00 -0.604576000E+00
     4
 # iter = 31500  time[fs]=31.50000
   C -0.168393241E+01 -0.454597791E-01  0.867175939E-01
   C  0.171009013E+01  0.159669476E-01 -0.763587824E-02
   H -0.990655388E+01  0.762855521E+00  0.231852697E+00
   H  0.972165788E+01 -0.520869294E+00 -0.629889107E+00
     4
 # iter = 32000  time[fs]=32.00000
   C -0.175034015E+01 -0.488478079E-01  0.896052738E-01
   C  0.177506805E+01  0.168777333E-01 -0.726332377E-02
   H -0.102768154E+02  0.790187131E+00  0.240642139E+00
   H  0.100830320E+02 -0.541709953E+00 -0.653440500E+00
     4
 # iter = 32500  time[fs]=32.50000
   C -0.181755316E+01 -0.520719356E-01  0.927118326E-01
   C  0.184123349E+01  0.180125200E-01 -0.671157412E-02
   H -0.106475259E+02  0.818763510E+00  0.250574490E+00
   H  0.104471814E+02 -0.561537189E+00 -0.675998670E+00
     4
 # iter = 33000  time[fs]=33.00000
   C -0.188577288E+01 -0.554037408E-01  0.957619865E-01
   C  0.190822520E+01  0.190797699E-01 -0.626916326E-02
   H -0.110201815E+02  0.846973352E+00  0.260045352E+00
   H  0.108123888E+02 -0.581947612E+00 -0.699158724E+00
     4
 # iter = 33500  time[fs]=33.50000
   C -0.195501429E+01 -0.589218519E-01  0.986737240E-01
   C  0.197589387E+01  0.199934444E-01 -0.601937949E-02
   H -0.113951552E+02  0.874339634E+00  0.268583949E+00
   H  0.111780825E+02 -0.603404423E+00 -0.723382514E+00
     4
 # iter = 34000  time[fs]=34.00000
   C -0.202510194E+01 -0.625086195E-01  0.101561602E+00
   C  0.204430499E+01  0.208765473E-01 -0.583669958E-02
   H -0.117716754E+02  0.901538989E+00  0.276872583E+00
   H  0.115448539E+02 -0.625217850E+00 -0.747979057E+00
     4
 # iter = 34500  time[fs]=34.50000
   C -0.209586822E+01 -0.660490528E-01  0.104537779E+00
   C  0.211352652E+01  0.218493712E-01 -0.559852055E-02
   H -0.121489941E+02  0.929233459E+00  0.285578452E+00
   H  0.119132877E+02 -0.646713873E+00 -0.772273239E+00
     4
 # iter = 35000  time[fs]=35.00000
   C -0.216726596E+01 -0.695439395E-01  0.107598874E+00
   C  0.218350790E+01  0.229090888E-01 -0.530554875E-02
   H -0.125270496E+02  0.957406204E+00  0.294689403E+00
   H  0.122832962E+02 -0.667898746E+00 -0.796270320E+00
     4
 # iter = 35500  time[fs]=35.50000
   C -0.223931545E+01 -0.730573623E-01  0.110678423E+00
   C  0.225413552E+01  0.239856136E-01 -0.502592124E-02
   H -0.129061579E+02  0.985669618E+00  0.303822106E+00
   H  0.126544266E+02 -0.689150594E+00 -0.820347523E+00
     4
 # iter = 36000  time[fs]=36.00000
   C -0.231201111E+01 -0.766237963E-01  0.113739763E+00
   C  0.232533110E+01  0.250404836E-01 -0.479630674E-02
   H -0.132864664E+02  0.101381078E+01  0.312767557E+00
   H  0.130264065E+02 -0.710673569E+00 -0.844708178E+00
     4
 # iter = 36500  time[fs]=36.50000
   C -0.238529991E+01 -0.802268637E-01  0.116797257E+00
   C  0.239707392E+01  0.260894696E-01 -0.459928203E-02
   H -0.136678284E+02  0.104191613E+01  0.321615794E+00
   H  0.133992679E+02 -0.732373018E+00 -0.869256881E+00
     4
 # iter = 37000  time[fs]=37.00000
   C -0.245912015E+01 -0.838385296E-01  0.119877083E+00
   C  0.246935882E+01  0.271608489E-01 -0.440504582E-02
   H -0.140500328E+02  0.107014124E+01  0.330525693E+00
   H  0.137731163E+02 -0.754085768E+00 -0.893829773E+00
     4
 # iter = 37500  time[fs]=37.50000
   C -0.253343345E+01 -0.874513050E-01  0.122985015E+00
   C  0.254216156E+01  0.282611217E-01 -0.420569046E-02
   H -0.144329930E+02  0.109852164E+01  0.339535845E+00
   H  0.141479409E+02 -0.775769323E+00 -0.918383728E+00
     4
 # iter = 38000  time[fs]=38.00000
   C -0.260822087E+01 -0.910746966E-01  0.126109962E+00
   C  0.261544235E+01  0.293787849E-01 -0.401141733E-02
   H -0.148167255E+02  0.112699365E+01  0.348585375E+00
   H  0.145236355E+02 -0.797480992E+00 -0.942975475E+00
     4
 # iter = 38500  time[fs]=38.50000
   C -0.268346430E+01 -0.947168248E-01  0.129242337E+00
   C  0.268916517E+01  0.305038927E-01 -0.383096684E-02
   H -0.152012415E+02  0.115550224E+01  0.357621870E+00
   H  0.149001052E+02 -0.819269882E+00 -0.967653589E+00
     4
 # iter = 39000  time[fs]=39.00000
   C -0.275913856E+01 -0.983767065E-01  0.132381761E+00
   C  0.276330577E+01  0.316362662E-01 -0.366339999E-02
   H -0.155865017E+02  0.118404632E+01  0.366646668E+00
   H  0.152773124E+02 -0.841131556E+00 -0.992413140E+00
     4
 # iter = 39500  time[fs]=39.50000
   C -0.283521628E+01 -0.102049365E+00  0.135531950E+00
   C  0.283784605E+01  0.327800498E-01 -0.350353483E-02
   H -0.159724455E+02  0.121264873E+01  0.375684832E+00
   H  0.156552459E+02 -0.863038055E+00 -0.101722571E+01
     4
 # iter = 40000  time[fs]=40.00000
   C -0.291167410E+01 -0.105732147E+00  0.138694381E+00
   C  0.291276714E+01  0.339369811E-01 -0.334866907E-02
   H -0.163590284E+02  0.124131902E+01  0.384748033E+00
   H  0.160338836E+02 -0.884975017E+00 -0.104207653E+01
     4
 # iter = 40500  time[fs]=40.50000
   C -0.298849322E+01 -0.109425472E+00  0.141867542E+00
   C  0.298804847E+01  0.351055898E-01 -0.319937507E-02
   H -0.167462258E+02  0.127004911E+01  0.393830128E+00
   H  0.164131877E+02 -0.906946083E+00 -0.106696883E+01
     4
 # iter = 41000  time[fs]=41.00000
   C -0.306565672E+01 -0.113130270E+00  0.145049486E+00
   C  0.306367035E+01  0.362839226E-01 -0.305676923E-02
   H -0.171340178E+02  0.129882826E+01  0.402922207E+00
   H  0.167931201E+02 -0.928957823E+00 -0.109190884E+01
     4
 # iter = 41500  time[fs]=41.50000
   C -0.314314785E+01 -0.116846372E+00  0.148239428E+00
   C  0.313961554E+01  0.374712480E-01 -0.292080233E-02
   H -0.175223801E+02  0.132765251E+01  0.412022000E+00
   H  0.171736510E+02 -0.951010317E+00 -0.111689628E+01
     4
 # iter = 42000  time[fs]=42.00000
   C -0.322095025E+01 -0.120572873E+00  0.151437386E+00
   C  0.321586879E+01  0.386676698E-01 -0.279064098E-02
   H -0.179112853E+02  0.135652250E+01  0.421131752E+00
   H  0.175547569E+02 -0.973099263E+00 -0.114192654E+01
     4
 # iter = 42500  time[fs]=42.50000
   C -0.329904875E+01 -0.124309007E+00  0.154643295E+00
   C  0.329241579E+01  0.398731942E-01 -0.266559684E-02
   H -0.183007083E+02  0.138543835E+01  0.430253081E+00
   H  0.179364154E+02 -0.995221115E+00 -0.116699578E+01
     4
 # iter = 43000  time[fs]=43.00000
   C -0.337742952E+01 -0.128054403E+00  0.157856745E+00
   C  0.336924280E+01  0.410874471E-01 -0.254540504E-02
   H -0.186906275E+02  0.141439810E+01  0.439385425E+00
   H  0.183186032E+02 -0.101737462E+01 -0.119210248E+01
     4
 # iter = 43500  time[fs]=43.50000
   C -0.345607980E+01 -0.131808849E+00  0.161077220E+00
   C  0.344633682E+01  0.423099316E-01 -0.242996352E-02
   H -0.190810236E+02  0.144339910E+01  0.448527466E+00
   H  0.187012979E+02 -0.103955940E+01 -0.121724600E+01
     4
 # iter = 44000  time[fs]=44.00000
   C -0.353498752E+01 -0.135572059E+00  0.164304319E+00
   C  0.352368578E+01  0.435402639E-01 -0.231909424E-02
   H -0.194718778E+02  0.147243935E+01  0.457678433E+00
   H  0.190844787E+02 -0.106177461E+01 -0.124242525E+01
     4
 # iter = 44500  time[fs]=44.50000
   C -0.361414131E+01 -0.139343674E+00  0.167537757E+00
   C  0.360127845E+01  0.447781771E-01 -0.221253578E-02
   H -0.198631719E+02  0.150151748E+01  0.466838138E+00
   H  0.194681266E+02 -0.108401893E+01 -0.126763868E+01
     4
 # iter = 45000  time[fs]=45.00000
   C -0.369353048E+01 -0.143123342E+00  0.170777278E+00
   C  0.367910432E+01  0.460234301E-01 -0.211003294E-02
   H -0.202548888E+02  0.153063227E+01  0.476006463E+00
   H  0.198522236E+02 -0.110629104E+01 -0.129288478E+01
     4
 # iter = 45500  time[fs]=45.50000
   C -0.377314501E+01 -0.146910760E+00  0.174022616E+00
   C  0.375715347E+01  0.472757620E-01 -0.201137909E-02
   H -0.206470124E+02  0.155978240E+01  0.485183126E+00
   H  0.202367528E+02 -0.112858988E+01 -0.131816227E+01
     4
 # iter = 46000  time[fs]=46.00000
   C -0.385297551E+01 -0.150705658E+00  0.177273502E+00
   C  0.383541658E+01  0.485349064E-01 -0.191640003E-02
   H -0.210395275E+02  0.158896649E+01  0.494367752E+00
   H  0.206216980E+02 -0.115091454E+01 -0.134347005E+01
     4
 # iter = 46500  time[fs]=46.50000
   C -0.393301312E+01 -0.154507776E+00  0.180529688E+00
   C  0.391388484E+01  0.498006136E-01 -0.182492993E-02
   H -0.214324200E+02  0.161818329E+01  0.503560010E+00
   H  0.210070439E+02 -0.117326415E+01 -0.136880708E+01
     4
 # iter = 47000  time[fs]=47.00000
   C -0.401324951E+01 -0.158316860E+00  0.183790947E+00
   C  0.399254999E+01  0.510726547E-01 -0.173680560E-02
   H -0.218256762E+02  0.164743164E+01  0.512759627E+00
   H  0.213927760E+02 -0.119563783E+01 -0.139417232E+01
     4
 # iter = 47500  time[fs]=47.50000
   C -0.409367680E+01 -0.162132665E+00  0.187057069E+00
   C  0.407140423E+01  0.523508140E-01 -0.165187180E-02
   H -0.222192832E+02  0.167671045E+01  0.521966359E+00
   H  0.217788807E+02 -0.121803474E+01 -0.141956475E+01
     4
 # iter = 48000  time[fs]=48.00000
   C -0.417428755E+01 -0.165954962E+00  0.190327857E+00
   C  0.415044020E+01  0.536348849E-01 -0.156998466E-02
   H -0.226132289E+02  0.170601868E+01  0.531179967E+00
   H  0.221653449E+02 -0.124045408E+01 -0.144498344E+01
     4
 # iter = 48500  time[fs]=48.50000
   C -0.425507475E+01 -0.169783533E+00  0.193603121E+00
   C  0.422965094E+01  0.549246689E-01 -0.149101074E-02
   H -0.230075017E+02  0.173535535E+01  0.540400212E+00
   H  0.225521564E+02 -0.126289511E+01 -0.147042751E+01
     4
 # iter = 49000  time[fs]=49.00000
   C -0.433603176E+01 -0.173618169E+00  0.196882682E+00
   C  0.430902986E+01  0.562199766E-01 -0.141482479E-02
   H -0.234020906E+02  0.176471951E+01  0.549626869E+00
   H  0.229393034E+02 -0.128535713E+01 -0.149589611E+01
     4
 # iter = 49500  time[fs]=49.50000
   C -0.441715228E+01 -0.177458674E+00  0.200166373E+00
   C  0.438857073E+01  0.575206283E-01 -0.134130853E-02
   H -0.237969852E+02  0.179411025E+01  0.558859725E+00
   H  0.233267748E+02 -0.130783944E+01 -0.152138843E+01
     4
 # iter = 50000  time[fs]=50.00000
   C -0.449843036E+01 -0.181304857E+00  0.203454036E+00
   C  0.446826765E+01  0.588264525E-01 -0.127035037E-02
   H -0.241921754E+02  0.182352673E+01  0.568098579E+00
   H  0.237145600E+02 -0.133034143E+01 -0.154690372E+01
     4
 # iter = 50500  time[fs]=50.50000
   C -0.457986035E+01 -0.185156539E+00  0.206745521E+00
   C  0.454811502E+01  0.601372855E-01 -0.120184522E-02
   H -0.245876517E+02  0.185296813E+01  0.577343239E+00
   H  0.241026489E+02 -0.135286245E+01 -0.157244125E+01
     4
 # iter = 51000  time[fs]=51.00000
   C -0.466143689E+01 -0.189013548E+00  0.210040686E+00
   C  0.462810753E+01  0.614529709E-01 -0.113569403E-02
   H -0.249834053E+02  0.188243367E+01  0.586593523E+00
   H  0.244910319E+02 -0.137540194E+01 -0.159800030E+01
     4
 # iter = 51500  time[fs]=51.50000
   C -0.474315489E+01 -0.192875717E+00  0.213339397E+00
   C  0.470824013E+01  0.627733591E-01 -0.107180332E-02
   H -0.253794273E+02  0.191192263E+01  0.595849256E+00
   H  0.248796998E+02 -0.139795932E+01 -0.162358024E+01
     4
 # iter = 52000  time[fs]=52.00000
   C -0.482500951E+01 -0.196742892E+00  0.216641526E+00
   C  0.478850803E+01  0.640983073E-01 -0.101008474E-02
   H -0.257757097E+02  0.194143428E+01  0.605110269E+00
   H  0.252686438E+02 -0.142053407E+01 -0.164918041E+01
     4
 # iter = 52500  time[fs]=52.50000
   C -0.490699614E+01 -0.200614920E+00  0.219946954E+00
   C  0.486890667E+01  0.654276788E-01 -0.950454692E-03
   H -0.261722444E+02  0.197096795E+01  0.614376405E+00
   H  0.256578556E+02 -0.144312567E+01 -0.167480022E+01
     4
 # iter = 53000  time[fs]=53.00000
   C -0.498911040E+01 -0.204491659E+00  0.223255565E+00
   C  0.494943169E+01  0.667613425E-01 -0.892834074E-03
   H -0.265690241E+02  0.200052300E+01  0.623647511E+00
   H  0.260473272E+02 -0.146573363E+01 -0.170043909E+01
     4
 # iter = 53500  time[fs]=53.50000
   C -0.507134812E+01 -0.208372970E+00  0.226567250E+00
   C  0.503007897E+01  0.680991732E-01 -0.837147933E-03
   H -0.269660415E+02  0.203009880E+01  0.632923441E+00
   H  0.264370509E+02 -0.148835748E+01 -0.172609646E+01
     4
 # iter = 54000  time[fs]=54.00000
   C -0.515370531E+01 -0.212258721E+00  0.229881907E+00
   C  0.511084457E+01  0.694410508E-01 -0.783325213E-03
   H -0.273632897E+02  0.205969478E+01  0.642204055E+00
   H  0.268270195E+02 -0.151099678E+01 -0.175177180E+01
     4
 # iter = 54500  time[fs]=54.50000
   C -0.523617819E+01 -0.216148786E+00  0.233199435E+00
   C  0.519172472E+01  0.707868600E-01 -0.731298491E-03
   H -0.277607622E+02  0.208931034E+01  0.651489221E+00
   H  0.272172259E+02 -0.153365109E+01 -0.177746461E+01
     4
 # iter = 55000  time[fs]=55.00000
   C -0.531876313E+01 -0.220043043E+00  0.236519741E+00
   C  0.527271583E+01  0.721364905E-01 -0.681003743E-03
   H -0.281584527E+02  0.211894497E+01  0.660778809E+00
   H  0.276076633E+02 -0.155632001E+01 -0.180317439E+01
     4
 # iter = 55500  time[fs]=55.50000
   C -0.540145666E+01 -0.223941376E+00  0.239842736E+00
   C  0.535381447E+01  0.734898361E-01 -0.632380130E-03
   H -0.285563550E+02  0.214859812E+01  0.670072698E+00
   H  0.279983254E+02 -0.157900312E+01 -0.182890068E+01
     4
 # iter = 56000  time[fs]=56.00000
   C -0.548425549E+01 -0.227843672E+00  0.243168334E+00
   C  0.543501737E+01  0.748467951E-01 -0.585369794E-03
   H -0.289544634E+02  0.217826930E+01  0.679370770E+00
   H  0.283892061E+02 -0.160170007E+01 -0.185464303E+01
     4
 # iter = 56500  time[fs]=56.50000
   C -0.556715645E+01 -0.231749826E+00  0.246496454E+00
   C  0.551632139E+01  0.762072696E-01 -0.539917680E-03
   H -0.293527723E+02  0.220795804E+01  0.688672911E+00
   H  0.287802992E+02 -0.162441047E+01 -0.188040102E+01
     4
 # iter = 57000  time[fs]=57.00000
   C -0.565015650E+01 -0.235659732E+00  0.249827017E+00
   C  0.559772354E+01  0.775711658E-01 -0.495971357E-03
   H -0.297512764E+02  0.223766386E+01  0.697979012E+00
   H  0.291715993E+02 -0.164713398E+01 -0.190617422E+01
     4
 # iter = 57500  time[fs]=57.50000
   C -0.573325277E+01 -0.239573293E+00  0.253159951E+00
   C  0.567922095E+01  0.789383931E-01 -0.453480866E-03
   H -0.301499705E+02  0.226738633E+01  0.707288971E+00
   H  0.295631007E+02 -0.166987026E+01 -0.193196225E+01
     4
 # iter = 58000  time[fs]=58.00000
   C -0.581644246E+01 -0.243490412E+00  0.256495182E+00
   C  0.576081086E+01  0.803088648E-01 -0.412398569E-03
   H -0.305488496E+02  0.229712501E+01  0.716602686E+00
   H  0.299547984E+02 -0.169261899E+01 -0.195776471E+01
     4
 # iter = 58500  time[fs]=58.50000
   C -0.589972292E+01 -0.247410998E+00  0.259832644E+00
   C  0.584249064E+01  0.816824971E-01 -0.372679012E-03
   H -0.309479090E+02  0.232687950E+01  0.725920061E+00
   H  0.303466870E+02 -0.171537985E+01 -0.198358124E+01
     4
 # iter = 59000  time[fs]=59.00000
   C -0.598309159E+01 -0.251334962E+00  0.263172271E+00
   C  0.592425776E+01  0.830592094E-01 -0.334278800E-03
   H -0.313471442E+02  0.235664940E+01  0.735241002E+00
   H  0.307387620E+02 -0.173815254E+01 -0.200941149E+01
     4
 # iter = 59500  time[fs]=59.50000
   C -0.606654604E+01 -0.255262219E+00  0.266514000E+00
   C  0.600610980E+01  0.844389243E-01 -0.297156480E-03
   H -0.317465507E+02  0.238643433E+01  0.744565422E+00
   H  0.311310184E+02 -0.176093677E+01 -0.203525511E+01
     4
 # iter = 60000  time[fs]=60.00000
   C -0.615008391E+01 -0.259192688E+00  0.269857773E+00
   C  0.608804443E+01  0.858215669E-01 -0.261272425E-03
   H -0.321461243E+02  0.241623392E+01  0.753893233E+00
   H  0.315234520E+02 -0.178373226E+01 -0.206111178E+01
     4
 # iter = 60500  time[fs]=60.50000
   C -0.623370293E+01 -0.263126288E+00  0.273203531E+00
   C  0.617005941E+01  0.872070652E-01 -0.226588739E-03
   H -0.325458609E+02  0.244604782E+01  0.763224353E+00
   H  0.319160582E+02 -0.180653875E+01 -0.208698118E+01
     4
 # iter = 61000  time[fs]=61.00000
   C -0.631740095E+01 -0.267062944E+00  0.276551219E+00
   C  0.625215260E+01  0.885953496E-01 -0.193069156E-03
   H -0.329457565E+02  0.247587569E+01  0.772558701E+00
   H  0.323088329E+02 -0.182935596E+01 -0.211286301E+01
     4
 # iter = 61500  time[fs]=61.50000
   C -0.640117588E+01 -0.271002583E+00  0.279900785E+00
   C  0.633432193E+01  0.899863531E-01 -0.160678954E-03
   H -0.333458074E+02  0.250571719E+01  0.781896201E+00
   H  0.327017720E+02 -0.185218366E+01 -0.213875696E+01
     4
 # iter = 62000  time[fs]=62.00000
   C -0.648502571E+01 -0.274945132E+00  0.283252178E+00
   C  0.641656541E+01  0.913800110E-01 -0.129384868E-03
   H -0.337460099E+02  0.253557202E+01  0.791236778E+00
   H  0.330948718E+02 -0.187502159E+01 -0.216466277E+01
     4
 # iter = 62500  time[fs]=62.50000
   C -0.656894851E+01 -0.278890525E+00  0.286605349E+00
   C  0.649888113E+01  0.927762609E-01 -0.991550149E-04
   H -0.341463603E+02  0.256543985E+01  0.800580360E+00
   H  0.334881283E+02 -0.189786953E+01 -0.219058014E+01
     4
 # iter = 63000  time[fs]=63.00000
   C -0.665294243E+01 -0.282838693E+00  0.289960252E+00
   C  0.658126725E+01  0.941750423E-01 -0.699588207E-04
   H -0.345468555E+02  0.259532041E+01  0.809926878E+00
   H  0.338815380E+02 -0.192072724E+01 -0.221650883E+01
     4
 # iter = 63500  time[fs]=63.50000
   C -0.673700567E+01 -0.286789575E+00  0.293316840E+00
   C  0.666372200E+01  0.955762969E-01 -0.417669505E-04
   H -0.349474919E+02  0.262521339E+01  0.819276265E+00
   H  0.342750974E+02 -0.194359452E+01 -0.224244856E+01
     4
 # iter = 64000  time[fs]=64.00000
   C -0.682113650E+01 -0.290743107E+00  0.296675071E+00
   C  0.674624367E+01  0.969799685E-01 -0.145512449E-04
   H -0.353482664E+02  0.265511852E+01  0.828628456E+00
   H  0.346688031E+02 -0.196647114E+01 -0.226839909E+01
     4
 # iter = 64500  time[fs]=64.50000
   C -0.690533328E+01 -0.294699229E+00  0.300034904E+00
   C  0.682883061E+01  0.983860024E-01  0.117153392E-04
   H -0.357491760E+02  0.268503554E+01  0.837983389E+00
   H  0.350626517E+02 -0.198935690E+01 -0.229436019E+01
     4
 # iter = 65000  time[fs]=65.00000
   C -0.698959438E+01 -0.298657885E+00  0.303396297E+00
   C  0.691148124E+01  0.997943460E-01  0.370587860E-04
   H -0.361502176E+02  0.271496418E+01  0.847341002E+00
   H  0.354566402E+02 -0.201225161E+01 -0.232033163E+01
     4
 # iter = 65500  time[fs]=65.50000
   C -0.707391828E+01 -0.302619018E+00  0.306759212E+00
   C  0.699419402E+01  0.101204948E+00  0.615040732E-04
   H -0.365513884E+02  0.274490420E+01  0.856701238E+00
   H  0.358507654E+02 -0.203515507E+01 -0.234631317E+01
     4
 # iter = 66000  time[fs]=66.00000
   C -0.715830346E+01 -0.306582574E+00  0.310123611E+00
   C  0.707696747E+01  0.102617760E+00  0.850752216E-04
   H -0.369526856E+02  0.277485535E+01  0.866064039E+00
   H  0.362450245E+02 -0.205806710E+01 -0.237230460E+01
     4
 # iter = 66500  time[fs]=66.50000
   C -0.724274850E+01 -0.310548501E+00  0.313489459E+00
   C  0.715980017E+01  0.104032733E+00  0.107795342E-03
   H -0.373541064E+02  0.280481739E+01  0.875429350E+00
   H  0.366394144E+02 -0.208098751E+01 -0.239830571E+01
     4
 # iter = 67000  time[fs]=67.00000
   C -0.732725200E+01 -0.314516747E+00  0.316856721E+00
   C  0.724269074E+01  0.105449821E+00  0.129686680E-03
   H -0.377556483E+02  0.283479011E+01  0.884797120E+00
   H  0.370339325E+02 -0.210391614E+01 -0.242431630E+01
     4
 # iter = 67500  time[fs]=67.50000
   C -0.741181261E+01 -0.318487265E+00  0.320225364E+00
   C  0.732563785E+01  0.106868980E+00  0.150770656E-03
   H -0.381573086E+02  0.286477327E+01  0.894167295E+00
   H  0.374285760E+02 -0.212685281E+01 -0.245033617E+01
     4
 # iter = 68000  time[fs]=68.00000
   C -0.749642904E+01 -0.322460005E+00  0.323595354E+00
   C  0.740864020E+01  0.108290166E+00  0.171067906E-03
   H -0.385590850E+02  0.289476666E+01  0.903539826E+00
   H  0.378233424E+02 -0.214979736E+01 -0.247636513E+01
     4
 # iter = 68500  time[fs]=68.50000
   C -0.758110003E+01 -0.326434922E+00  0.326966660E+00
   C  0.749169656E+01  0.109713337E+00  0.190598316E-03
   H -0.389609751E+02  0.292477008E+01  0.912914664E+00
   H  0.382182291E+02 -0.217274963E+01 -0.250240299E+01
     4
 # iter = 69000  time[fs]=69.00000
   C -0.766582436E+01 -0.330411971E+00  0.330339253E+00
   C  0.757480572E+01  0.111138451E+00  0.209381058E-03
   H -0.393629765E+02  0.295478333E+01  0.922291764E+00
   H  0.386132336E+02 -0.219570947E+01 -0.252844958E+01
     4
 # iter = 69500  time[fs]=69.50000
   C -0.775060085E+01 -0.334391109E+00  0.333713102E+00
   C  0.765796651E+01  0.112565470E+00  0.227434626E-03
   H -0.397650870E+02  0.298480620E+01  0.931671078E+00
   H  0.390083536E+02 -0.221867673E+01 -0.255450471E+01
     4
 # iter = 70000  time[fs]=70.00000
   C -0.783542837E+01 -0.338372294E+00  0.337088181E+00
   C  0.774117781E+01  0.113994355E+00  0.244776859E-03
   H -0.401673044E+02  0.301483851E+01  0.941052563E+00
   H  0.394035867E+02 -0.224165126E+01 -0.258056823E+01
     4
 # iter = 70500  time[fs]=70.50000
   C -0.792030581E+01 -0.342355484E+00  0.340464461E+00
   C  0.782443853E+01  0.115425068E+00  0.261424980E-03
   H -0.405696266E+02  0.304488008E+01  0.950436177E+00
   H  0.397989308E+02 -0.226463292E+01 -0.260663996E+01
     4
 # iter = 71000  time[fs]=71.00000
   C -0.800523211E+01 -0.346340639E+00  0.343841916E+00
   C  0.790774760E+01  0.116857574E+00  0.277395617E-03
   H -0.409720516E+02  0.307493072E+01  0.959821877E+00
   H  0.401943836E+02 -0.228762157E+01 -0.263271975E+01
     4
 # iter = 71500  time[fs]=71.50000
   C -0.809020623E+01 -0.350327722E+00  0.347220520E+00
   C  0.799110401E+01  0.118291837E+00  0.292704829E-03
   H -0.413745774E+02  0.310499027E+01  0.969209622E+00
   H  0.405899430E+02 -0.231061709E+01 -0.265880744E+01
     4
 # iter = 72000  time[fs]=72.00000
   C -0.817522717E+01 -0.354316695E+00  0.350600249E+00
   C  0.807450675E+01  0.119727823E+00  0.307368135E-03
   H -0.417772019E+02  0.313505855E+01  0.978599375E+00
   H  0.409856070E+02 -0.233361934E+01 -0.268490288E+01
     4
 # iter = 72500  time[fs]=72.50000
   C -0.826029395E+01 -0.358307522E+00  0.353981078E+00
   C  0.815795487E+01  0.121165499E+00  0.321400536E-03
   H -0.421799235E+02  0.316513540E+01  0.987991096E+00
   H  0.413813736E+02 -0.235662819E+01 -0.271100592E+01
     4
 # iter = 73000  time[fs]=73.00000
   C -0.834540564E+01 -0.362300166E+00  0.357362985E+00
   C  0.824144744E+01  0.122604832E+00  0.334816534E-03
   H -0.425827401E+02  0.319522066E+01  0.997384749E+00
   H  0.417772408E+02 -0.237964353E+01 -0.273711643E+01
     4
 # iter = 73500  time[fs]=73.50000
   C -0.843056131E+01 -0.366294595E+00  0.360745947E+00
   C  0.832498354E+01  0.124045792E+00  0.347630157E-03
   H -0.429856502E+02  0.322531417E+01  0.100678030E+01
   H  0.421732067E+02 -0.240266523E+01 -0.276323426E+01
     4
 # iter = 74000  time[fs]=74.00000
   C -0.851576009E+01 -0.370290773E+00  0.364129941E+00
   C  0.840856230E+01  0.125488347E+00  0.359854978E-03
   H -0.433886518E+02  0.325541579E+01  0.101617771E+01
   H  0.425692696E+02 -0.242569318E+01 -0.278935928E+01
     4
 # iter = 74500  time[fs]=74.50000
   C -0.860100111E+01 -0.374288670E+00  0.367514947E+00
   C  0.849218287E+01  0.126932469E+00  0.371504134E-03
   H -0.437917434E+02  0.328552537E+01  0.102557694E+01
   H  0.429654277E+02 -0.244872727E+01 -0.281549135E+01
     4
 # iter = 75000  time[fs]=75.00000
   C -0.868628353E+01 -0.378288253E+00  0.370900944E+00
   C  0.857584442E+01  0.128378128E+00  0.382590340E-03
   H -0.441949232E+02  0.331564276E+01  0.103497797E+01
   H  0.433616791E+02 -0.247176739E+01 -0.284163036E+01
     4
 # iter = 75500  time[fs]=75.50000
   C -0.877160654E+01 -0.382289491E+00  0.374287912E+00
   C  0.865954614E+01  0.129825296E+00  0.393125915E-03
   H -0.445981898E+02  0.334576783E+01  0.104438076E+01
   H  0.437580222E+02 -0.249481342E+01 -0.286777618E+01
     4
 # iter = 76000  time[fs]=76.00000
   C -0.885696935E+01 -0.386292354E+00  0.377675832E+00
   C  0.874328726E+01  0.131273945E+00  0.403122788E-03
   H -0.450015416E+02  0.337590043E+01  0.105378527E+01
   H  0.441544555E+02 -0.251786527E+01 -0.289392868E+01
     4
 # iter = 76500  time[fs]=76.50000
   C -0.894237121E+01 -0.390296814E+00  0.381064685E+00
   C  0.882706701E+01  0.132724051E+00  0.412592523E-03
   H -0.454049770E+02  0.340604045E+01  0.106319149E+01
   H  0.445509772E+02 -0.254092284E+01 -0.292008775E+01
     4
 # iter = 77000  time[fs]=77.00000
   C -0.902781135E+01 -0.394302842E+00  0.384454452E+00
   C  0.891088466E+01  0.134175585E+00  0.421546325E-03
   H -0.458084946E+02  0.343618774E+01  0.107259937E+01
   H  0.449475858E+02 -0.256398603E+01 -0.294625327E+01
     4
 # iter = 77500  time[fs]=77.50000
   C -0.911328906E+01 -0.398310411E+00  0.387845117E+00
   C  0.899473949E+01  0.135628524E+00  0.429995062E-03
   H -0.462120929E+02  0.346634219E+01  0.108200890E+01
   H  0.453442799E+02 -0.258705473E+01 -0.297242514E+01
     4
 # iter = 78000  time[fs]=78.00000
   C -0.919880364E+01 -0.402319492E+00  0.391236661E+00
   C  0.907863080E+01  0.137082842E+00  0.437949271E-03
   H -0.466157707E+02  0.349650367E+01  0.109142004E+01
   H  0.457410578E+02 -0.261012886E+01 -0.299860324E+01
     4
 # iter = 78500  time[fs]=78.50000
   C -0.928435440E+01 -0.406330061E+00  0.394629069E+00
   C  0.916255792E+01  0.138538516E+00  0.445419177E-03
   H -0.470195264E+02  0.352667207E+01  0.110083276E+01
   H  0.461379183E+02 -0.263320833E+01 -0.302478746E+01
     4
 # iter = 79000  time[fs]=79.00000
   C -0.936994067E+01 -0.410342092E+00  0.398022322E+00
   C  0.924652019E+01  0.139995522E+00  0.452414700E-03
   H -0.474233588E+02  0.355684726E+01  0.111024704E+01
   H  0.465348598E+02 -0.265629304E+01 -0.305097772E+01
     4
 # iter = 79500  time[fs]=79.50000
   C -0.945556180E+01 -0.414355559E+00  0.401416407E+00
   C  0.933051696E+01  0.141453838E+00  0.458945471E-03
   H -0.478272666E+02  0.358702914E+01  0.111966284E+01
   H  0.469318811E+02 -0.267938292E+01 -0.307717389E+01
     4
 # iter = 80000  time[fs]=80.00000
   C -0.954121717E+01 -0.418370439E+00  0.404811307E+00
   C  0.941454761E+01  0.142913442E+00  0.465020839E-03
   H -0.482312485E+02  0.361721759E+01  0.112908016E+01
   H  0.473289807E+02 -0.270247786E+01 -0.310337589E+01
