     4
 # iter = 25000  time[fs]=25.00000
   C -0.955452972E+00 -0.749860384E-02 -0.215877797E-01
   C  0.969517536E+00  0.737751498E-02 -0.414108888E-01
   H -0.518973612E+01  0.303457700E-01  0.185098723E+00
   H  0.510005012E+01 -0.293662440E+00  0.410164434E+00
     4
 # iter = 25500  time[fs]=25.50000
   C -0.999540868E+00 -0.924518097E-02 -0.241568058E-01
   C  0.100809103E+01  0.710431435E-02 -0.451894710E-01
   H -0.552676947E+01  0.246669727E-01  0.188314204E+00
   H  0.540400206E+01 -0.321711721E+00  0.427969545E+00
     4
 # iter = 26000  time[fs]=26.00000
   C -0.104722493E+01 -0.120588416E-01 -0.277580781E-01
   C  0.104834460E+01  0.600290994E-02 -0.498738992E-01
   H -0.587199540E+01  0.136107644E-01  0.186230170E+00
   H  0.570543264E+01 -0.355347045E+00  0.440624376E+00
     4
 # iter = 26500  time[fs]=26.50000
   C -0.109517871E+01 -0.128175738E-01 -0.292707472E-01
   C  0.109263390E+01  0.663373219E-02 -0.528979662E-01
   H -0.620900862E+01  0.132554946E-01  0.194915160E+00
   H  0.602012794E+01 -0.378459660E+00  0.464192119E+00
     4
 # iter = 27000  time[fs]=27.00000
   C -0.114305683E+01 -0.113660660E-01 -0.285408746E-01
   C  0.114089502E+01  0.912142847E-02 -0.541316435E-01
   H -0.653674905E+01  0.243944631E-01  0.215154657E+00
   H  0.634861545E+01 -0.390237203E+00  0.499444857E+00
     4
 # iter = 27500  time[fs]=27.50000
   C -0.119300539E+01 -0.100254924E-01 -0.278911247E-01
   C  0.119104708E+01  0.115574366E-01 -0.554784939E-01
   H -0.686696380E+01  0.350610399E-01  0.234975747E+00
   H  0.667868526E+01 -0.402636719E+00  0.534389718E+00
     4
 # iter = 28000  time[fs]=28.00000
   C -0.124650584E+01 -0.104379188E-01 -0.289651268E-01
   C  0.124158092E+01  0.125908947E-01 -0.582848168E-01
   H -0.720793096E+01  0.367880820E-01  0.245905931E+00
   H  0.700166291E+01 -0.424116075E+00  0.560538204E+00
     4
 # iter = 28500  time[fs]=28.50000
   C -0.130274649E+01 -0.119385261E-01 -0.310996600E-01
   C  0.129289406E+01  0.127650627E-01 -0.620032263E-01
   H -0.755606250E+01  0.329956061E-01  0.251360476E+00
   H  0.732080074E+01 -0.451241250E+00  0.581298751E+00
     4
 # iter = 29000  time[fs]=29.00000
   C -0.135996400E+01 -0.128977214E-01 -0.326667181E-01
   C  0.134618886E+01  0.134154620E-01 -0.652944482E-01
   H -0.790281835E+01  0.320752341E-01  0.259726825E+00
   H  0.764435026E+01 -0.475605413E+00  0.605056380E+00
     4
 # iter = 29500  time[fs]=29.50000
   C -0.141747369E+01 -0.127522075E-01 -0.331045396E-01
   C  0.140180500E+01  0.150024336E-01 -0.676946953E-01
   H -0.824517253E+01  0.369242770E-01  0.273898706E+00
   H  0.797508201E+01 -0.494300451E+00  0.634699857E+00
     4
 # iter = 30000  time[fs]=30.00000
   C -0.147595353E+01 -0.122898989E-01 -0.332025042E-01
   C  0.145898481E+01  0.168772173E-01 -0.698495557E-01
   H -0.858707898E+01  0.434775771E-01  0.289807901E+00
   H  0.830881298E+01 -0.511385744E+00  0.666152381E+00
     4
 # iter = 30500  time[fs]=30.50000
   C -0.153618291E+01 -0.123898101E-01 -0.338410175E-01
   C  0.151690627E+01  0.183163926E-01 -0.724795431E-01
   H -0.893297405E+01  0.472009343E-01  0.302917541E+00
   H  0.864090362E+01 -0.531390870E+00  0.694868854E+00
     4
 # iter = 31000  time[fs]=31.00000
   C -0.159808309E+01 -0.130634884E-01 -0.350329433E-01
   C  0.157546866E+01  0.193087731E-01 -0.755931914E-01
   H -0.928283379E+01  0.480306671E-01  0.313161561E+00
   H  0.897119987E+01 -0.554373090E+00  0.720778365E+00
     4
 # iter = 31500  time[fs]=31.50000
   C -0.166099766E+01 -0.137363947E-01 -0.362049819E-01
   C  0.163506074E+01  0.203244244E-01 -0.787180120E-01
   H -0.963362255E+01  0.489235699E-01  0.323494616E+00
   H  0.930258045E+01 -0.577368128E+00  0.746833130E+00
     4
 # iter = 32000  time[fs]=32.00000
   C -0.172449598E+01 -0.140521296E-01 -0.370018937E-01
   C  0.169589991E+01  0.216544804E-01 -0.815606506E-01
   H -0.998343680E+01  0.517125729E-01  0.335747728E+00
   H  0.963680781E+01 -0.598536827E+00  0.774861485E+00
     4
 # iter = 32500  time[fs]=32.50000
   C -0.178866082E+01 -0.141608487E-01 -0.375749156E-01
   C  0.175779475E+01  0.231743746E-01 -0.842436338E-01
   H -0.103329907E+02  0.556204838E-01  0.349142014E+00
   H  0.997303951E+01 -0.618652183E+00  0.804080620E+00
     4
 # iter = 33000  time[fs]=33.00000
   C -0.185374130E+01 -0.143728670E-01 -0.382353687E-01
   C  0.182042863E+01  0.246281687E-01 -0.870210253E-01
   H -0.106838297E+02  0.590450439E-01  0.362073699E+00
   H  0.103096136E+02 -0.639313177E+00  0.832882648E+00
     4
 # iter = 33500  time[fs]=33.50000
   C -0.191977218E+01 -0.147786656E-01 -0.390746703E-01
   C  0.188367091E+01  0.259404652E-01 -0.899665006E-01
   H -0.110363716E+02  0.615171027E-01  0.374072265E+00
   H  0.106460077E+02 -0.660985401E+00  0.860793919E+00
     4
 # iter = 34000  time[fs]=34.00000
   C -0.198656958E+01 -0.152451038E-01 -0.399605508E-01
   C  0.194757947E+01  0.272195128E-01 -0.929702284E-01
   H -0.113898862E+02  0.637201071E-01  0.385819918E+00
   H  0.109828576E+02 -0.682981514E+00  0.888494474E+00
     4
 # iter = 34500  time[fs]=34.50000
   C -0.205395703E+01 -0.156420300E-01 -0.407636679E-01
   C  0.201221424E+01  0.285711886E-01 -0.959248739E-01
   H -0.117436625E+02  0.663222888E-01  0.397983758E+00
   H  0.113207882E+02 -0.704629710E+00  0.916649469E+00
     4
 # iter = 35000  time[fs]=35.00000
   C -0.212189390E+01 -0.159711360E-01 -0.414864646E-01
   C  0.207753097E+01  0.299932223E-01 -0.988313632E-01
   H -0.120976729E+02  0.693126297E-01  0.410551743E+00
   H  0.116597486E+02 -0.725938102E+00  0.945244701E+00
     4
 # iter = 35500  time[fs]=35.50000
   C -0.219041524E+01 -0.163061712E-01 -0.422033885E-01
   C  0.214342988E+01  0.314242614E-01 -0.101749807E+00
   H -0.124522638E+02  0.723089463E-01  0.423140754E+00
   H  0.119993197E+02 -0.747286426E+00  0.973894841E+00
     4
 # iter = 36000  time[fs]=36.00000
   C -0.225952551E+01 -0.166871161E-01 -0.429550686E-01
   C  0.220984220E+01  0.328307311E-01 -0.104712631E+00
   H -0.128076107E+02  0.751032343E-01  0.435541930E+00
   H  0.123392598E+02 -0.768880351E+00  0.100238908E+01
     4
 # iter = 36500  time[fs]=36.50000
   C -0.232917415E+01 -0.170959833E-01 -0.437241205E-01
   C  0.227674968E+01  0.342266929E-01 -0.107704712E+00
   H -0.131635928E+02  0.777863594E-01  0.447845351E+00
   H  0.126796289E+02 -0.790626688E+00  0.103081588E+01
     4
 # iter = 37000  time[fs]=37.00000
   C -0.239929990E+01 -0.175014694E-01 -0.444798018E-01
   C  0.234414763E+01  0.356371896E-01 -0.110700022E+00
   H -0.135200226E+02  0.805179375E-01  0.460209911E+00
   H  0.130205582E+02 -0.812363632E+00  0.105933268E+01
     4
 # iter = 37500  time[fs]=37.50000
   C -0.246986722E+01 -0.178956402E-01 -0.452147004E-01
   C  0.241201459E+01  0.370681285E-01 -0.113691739E+00
   H -0.138768355E+02  0.833372719E-01  0.472674245E+00
   H  0.133620608E+02 -0.834049916E+00  0.108797671E+01
     4
 # iter = 38000  time[fs]=38.00000
   C -0.254086205E+01 -0.182898878E-01 -0.459406948E-01
   C  0.248031541E+01  0.385095958E-01 -0.116688928E+00
   H -0.142340679E+02  0.861841796E-01  0.485177555E+00
   H  0.137040520E+02 -0.855743960E+00  0.111668581E+01
     4
 # iter = 38500  time[fs]=38.50000
   C -0.261227069E+01 -0.186939933E-01 -0.466680194E-01
   C  0.254901822E+01  0.399530387E-01 -0.119699351E+00
   H -0.145917497E+02  0.890068805E-01  0.497667492E+00
   H  0.140464576E+02 -0.877495903E+00  0.114540635E+01
     4
 # iter = 39000  time[fs]=39.00000
   C -0.268407075E+01 -0.191073372E-01 -0.473964775E-01
   C  0.261810150E+01  0.413984768E-01 -0.122722252E+00
   H -0.149498587E+02  0.918072858E-01  0.510145439E+00
   H  0.143892583E+02 -0.899302278E+00  0.117413857E+01
     4
 # iter = 39500  time[fs]=39.50000
   C -0.275623690E+01 -0.195247220E-01 -0.481212667E-01
   C  0.268754905E+01  0.428497199E-01 -0.125753134E+00
   H -0.153083502E+02  0.946109821E-01  0.522636491E+00
   H  0.147324603E+02 -0.921136030E+00  0.120290652E+01
     4
 # iter = 40000  time[fs]=40.00000
   C -0.282874787E+01 -0.199435710E-01 -0.488401797E-01
   C  0.275734405E+01  0.443084565E-01 -0.128789667E+00
   H -0.156671946E+02  0.974301272E-01  0.535152350E+00
   H  0.150760576E+02 -0.942983639E+00  0.123172090E+01
     4
 # iter = 40500  time[fs]=40.50000
   C -0.290158719E+01 -0.203647831E-01 -0.495544605E-01
   C  0.282746815E+01  0.457735503E-01 -0.131832387E+00
   H -0.160263809E+02  0.100259041E+00  0.547686909E+00
   H  0.154200274E+02 -0.964849522E+00  0.126057467E+01
     4
 # iter = 41000  time[fs]=41.00000
   C -0.297474016E+01 -0.207898131E-01 -0.502658874E-01
   C  0.289790375E+01  0.472434335E-01 -0.134882300E+00
   H -0.163859023E+02  0.103089244E+00  0.560231292E+00
   H  0.157643454E+02 -0.986740975E+00  0.128945807E+01
     4
 # iter = 41500  time[fs]=41.50000
   C -0.304819193E+01 -0.212188452E-01 -0.509749477E-01
   C  0.296863544E+01  0.487176051E-01 -0.137939382E+00
   H -0.167457462E+02  0.105918865E+00  0.572783256E+00
   H  0.161089948E+02 -0.100865876E+01  0.131836802E+01
     4
 # iter = 42000  time[fs]=42.00000
   C -0.312192778E+01 -0.216512036E-01 -0.516812500E-01
   C  0.303964954E+01  0.501962913E-01 -0.141002912E+00
   H -0.171058965E+02  0.108750522E+00  0.585345071E+00
   H  0.164539644E+02 -0.103059921E+01  0.134730604E+01
     4
 # iter = 42500  time[fs]=42.50000
   C -0.319593406E+01 -0.220863490E-01 -0.523845221E-01
   C  0.311093318E+01  0.516796260E-01 -0.144072292E+00
   H -0.174663386E+02  0.111586181E+00  0.597918375E+00
   H  0.167992429E+02 -0.105255937E+01  0.137627304E+01
     4
 # iter = 43000  time[fs]=43.00000
   C -0.327019841E+01 -0.225241788E-01 -0.530849121E-01
   C  0.318247401E+01  0.531674034E-01 -0.147147292E+00
   H -0.178270606E+02  0.114425606E+00  0.610502628E+00
   H  0.171448179E+02 -0.107453855E+01  0.140526778E+01
     4
 # iter = 43500  time[fs]=43.50000
   C -0.334470941E+01 -0.229647494E-01 -0.537827126E-01
   C  0.325426034E+01  0.546593042E-01 -0.150227821E+00
   H -0.181880524E+02  0.117267786E+00  0.623096529E+00
   H  0.174906768E+02 -0.109653690E+01  0.143428834E+01
     4
 # iter = 44000  time[fs]=44.00000
   C -0.341945627E+01 -0.234080223E-01 -0.544781074E-01
   C  0.332628128E+01  0.561551025E-01 -0.153313718E+00
   H -0.185493040E+02  0.120112241E+00  0.635699328E+00
   H  0.178368080E+02 -0.111855406E+01  0.146333334E+01
     4
 # iter = 44500  time[fs]=44.50000
   C -0.349442876E+01 -0.238538577E-01 -0.551711660E-01
   C  0.339852671E+01  0.576546705E-01 -0.156404746E+00
   H -0.189108051E+02  0.122959051E+00  0.648310848E+00
   H  0.181832016E+02 -0.114058918E+01  0.149240204E+01
     4
 # iter = 45000  time[fs]=45.00000
   C -0.356961726E+01 -0.243021110E-01 -0.558619416E-01
   C  0.347098712E+01  0.591578977E-01 -0.159500671E+00
   H -0.192725464E+02  0.125808355E+00  0.660930989E+00
   H  0.185298477E+02 -0.116264139E+01  0.152149379E+01
     4
 # iter = 45500  time[fs]=45.50000
   C -0.364501273E+01 -0.247526801E-01 -0.565505184E-01
   C  0.354365355E+01  0.606646517E-01 -0.162601301E+00
   H -0.196345188E+02  0.128660110E+00  0.673559478E+00
   H  0.188767373E+02 -0.118471003E+01  0.155060782E+01
     4
 # iter = 46000  time[fs]=46.00000
   C -0.372060673E+01 -0.252054880E-01 -0.572369957E-01
   C  0.361651753E+01  0.621747908E-01 -0.165706468E+00
   H -0.199967142E+02  0.131514170E+00  0.686195955E+00
   H  0.192238614E+02 -0.120679458E+01  0.157974326E+01
     4
 # iter = 46500  time[fs]=46.50000
   C -0.379639126E+01 -0.256604586E-01 -0.579214642E-01
   C  0.368957111E+01  0.636881837E-01 -0.168816013E+00
   H -0.203591247E+02  0.134370415E+00  0.698840096E+00
   H  0.195712117E+02 -0.122889455E+01  0.160889934E+01
     4
 # iter = 47000  time[fs]=47.00000
   C -0.387235878E+01 -0.261175112E-01 -0.586040007E-01
   C  0.376280677E+01  0.652047134E-01 -0.171929777E+00
   H -0.207217427E+02  0.137228778E+00  0.711491640E+00
   H  0.199187804E+02 -0.125100939E+01  0.163807535E+01
     4
 # iter = 47500  time[fs]=47.50000
   C -0.394850217E+01 -0.265765667E-01 -0.592846753E-01
   C  0.383621744E+01  0.667242708E-01 -0.175047608E+00
   H -0.210845611E+02  0.140089207E+00  0.724150352E+00
   H  0.202665599E+02 -0.127313861E+01  0.166727064E+01
     4
 # iter = 48000  time[fs]=48.00000
   C -0.402481471E+01 -0.270375516E-01 -0.599635565E-01
   C  0.390979641E+01  0.682467510E-01 -0.178169362E+00
   H -0.214475732E+02  0.142951641E+00  0.736815999E+00
   H  0.206145431E+02 -0.129528171E+01  0.169648459E+01
     4
 # iter = 48500  time[fs]=48.50000
   C -0.410129003E+01 -0.275003983E-01 -0.606407106E-01
   C  0.398353736E+01  0.697720529E-01 -0.181294904E+00
   H -0.218107725E+02  0.145816017E+00  0.749488351E+00
   H  0.209627234E+02 -0.131743826E+01  0.172571658E+01
     4
 # iter = 49000  time[fs]=49.00000
   C -0.417792211E+01 -0.279650425E-01 -0.613162009E-01
   C  0.405743428E+01  0.713000803E-01 -0.184424106E+00
   H -0.221741530E+02  0.148682271E+00  0.762167188E+00
   H  0.213110942E+02 -0.133960783E+01  0.175496604E+01
     4
 # iter = 49500  time[fs]=49.50000
   C -0.425470525E+01 -0.284314224E-01 -0.619900868E-01
   C  0.413148149E+01  0.728307421E-01 -0.187556846E+00
   H -0.225377088E+02  0.151550347E+00  0.774852303E+00
   H  0.216596494E+02 -0.136179001E+01  0.178423242E+01
     4
 # iter = 50000  time[fs]=50.00000
   C -0.433163402E+01 -0.288994793E-01 -0.626624246E-01
   C  0.420567360E+01  0.743639519E-01 -0.190693008E+00
   H -0.229014343E+02  0.154420191E+00  0.787543502E+00
   H  0.220083833E+02 -0.138398442E+01  0.181351519E+01
     4
 # iter = 50500  time[fs]=50.50000
   C -0.440870330E+01 -0.293691571E-01 -0.633332679E-01
   C  0.428000550E+01  0.758996272E-01 -0.193832480E+00
   H -0.232653243E+02  0.157291751E+00  0.800240596E+00
   H  0.223572903E+02 -0.140619067E+01  0.184281386E+01
     4
 # iter = 51000  time[fs]=51.00000
   C -0.448590820E+01 -0.298404027E-01 -0.640026677E-01
   C  0.435447234E+01  0.774376894E-01 -0.196975157E+00
   H -0.236293738E+02  0.160164979E+00  0.812943407E+00
   H  0.227063649E+02 -0.142840842E+01  0.187212795E+01
     4
 # iter = 51500  time[fs]=51.50000
   C -0.456324409E+01 -0.303131652E-01 -0.646706726E-01
   C  0.442906949E+01  0.789780633E-01 -0.200120937E+00
   H -0.239935779E+02  0.163039826E+00  0.825651764E+00
   H  0.230556023E+02 -0.145063733E+01  0.190145700E+01
     4
 # iter = 52000  time[fs]=52.00000
   C -0.464070656E+01 -0.307873964E-01 -0.653373289E-01
   C  0.450379256E+01  0.805206773E-01 -0.203269726E+00
   H -0.243579319E+02  0.165916247E+00  0.838365504E+00
   H  0.234049975E+02 -0.147287706E+01  0.193080058E+01
     4
 # iter = 52500  time[fs]=52.50000
   C -0.471829140E+01 -0.312630500E-01 -0.660026807E-01
   C  0.457863738E+01  0.820654631E-01 -0.206421430E+00
   H -0.247224316E+02  0.168794199E+00  0.851084470E+00
   H  0.237545458E+02 -0.149512732E+01  0.196015827E+01
     4
 # iter = 53000  time[fs]=53.00000
   C -0.479599461E+01 -0.317400818E-01 -0.666667702E-01
   C  0.465359995E+01  0.836123551E-01 -0.209575962E+00
   H -0.250870727E+02  0.171673639E+00  0.863808512E+00
   H  0.241042430E+02 -0.151738781E+01  0.198952967E+01
     4
 # iter = 53500  time[fs]=53.50000
   C -0.487381239E+01 -0.322184499E-01 -0.673296375E-01
   C  0.472867649E+01  0.851612909E-01 -0.212733238E+00
   H -0.254518512E+02  0.174554528E+00  0.876537488E+00
   H  0.244540847E+02 -0.153965823E+01  0.201891440E+01
     4
 # iter = 54000  time[fs]=54.00000
   C -0.495174109E+01 -0.326981137E-01 -0.679913211E-01
   C  0.480386338E+01  0.867122105E-01 -0.215893178E+00
   H -0.258167632E+02  0.177436827E+00  0.889271260E+00
   H  0.248040668E+02 -0.156193832E+01  0.204831209E+01
     4
 # iter = 54500  time[fs]=54.50000
   C -0.502977724E+01 -0.331790348E-01 -0.686518574E-01
   C  0.487915715E+01  0.882650566E-01 -0.219055704E+00
   H -0.261818049E+02  0.180320499E+00  0.902009696E+00
   H  0.251541855E+02 -0.158422782E+01  0.207772238E+01
     4
 # iter = 55000  time[fs]=55.00000
   C -0.510791752E+01 -0.336611763E-01 -0.693112817E-01
   C  0.495455451E+01  0.898197744E-01 -0.222220743E+00
   H -0.265469729E+02  0.183205508E+00  0.914752671E+00
   H  0.255044370E+02 -0.160652646E+01  0.210714495E+01
     4
 # iter = 55500  time[fs]=55.50000
   C -0.518615877E+01 -0.341445027E-01 -0.699696275E-01
   C  0.503005230E+01  0.913763111E-01 -0.225388224E+00
   H -0.269122638E+02  0.186091821E+00  0.927500062E+00
   H  0.258548177E+02 -0.162883402E+01  0.213657946E+01
     4
 # iter = 56000  time[fs]=56.00000
   C -0.526449795E+01 -0.346289803E-01 -0.706269268E-01
   C  0.510564750E+01  0.929346163E-01 -0.228558080E+00
   H -0.272776742E+02  0.188979404E+00  0.940251754E+00
   H  0.262053243E+02 -0.165115026E+01  0.216602561E+01
     4
 # iter = 56500  time[fs]=56.50000
   C -0.534293216E+01 -0.351145764E-01 -0.712832105E-01
   C  0.518133723E+01  0.944946414E-01 -0.231730244E+00
   H -0.276432010E+02  0.191868226E+00  0.953007633E+00
   H  0.265559533E+02 -0.167347495E+01  0.219548309E+01
     4
 # iter = 57000  time[fs]=57.00000
   C -0.542145863E+01 -0.356012599E-01 -0.719385080E-01
   C  0.525711872E+01  0.960563401E-01 -0.234904655E+00
   H -0.280088412E+02  0.194758256E+00  0.965767594E+00
   H  0.269067016E+02 -0.169580789E+01  0.222495161E+01
     4
 # iter = 57500  time[fs]=57.50000
   C -0.550007469E+01 -0.360890010E-01 -0.725928475E-01
   C  0.533298933E+01  0.976196675E-01 -0.238081253E+00
   H -0.283745919E+02  0.197649465E+00  0.978531532E+00
   H  0.272575662E+02 -0.171814885E+01  0.225443090E+01
     4
 # iter = 58000  time[fs]=58.00000
   C -0.557877779E+01 -0.365777708E-01 -0.732462563E-01
   C  0.540894651E+01  0.991845807E-01 -0.241259980E+00
   H -0.287404503E+02  0.200541824E+00  0.991299347E+00
   H  0.276085440E+02 -0.174049766E+01  0.228392070E+01
     4
 # iter = 58500  time[fs]=58.50000
   C -0.565756550E+01 -0.370675417E-01 -0.738987602E-01
   C  0.548498783E+01  0.100751038E+00 -0.244440780E+00
   H -0.291064136E+02  0.203435307E+00  0.100407094E+01
   H  0.279596323E+02 -0.176285410E+01  0.231342073E+01
     4
 # iter = 59000  time[fs]=59.00000
   C -0.573643545E+01 -0.375582873E-01 -0.745503842E-01
   C  0.556111096E+01  0.102319001E+00 -0.247623601E+00
   H -0.294724794E+02  0.206329886E+00  0.101684623E+01
   H  0.283108283E+02 -0.178521801E+01  0.234293076E+01
     4
 # iter = 59500  time[fs]=59.50000
   C -0.581538540E+01 -0.380499819E-01 -0.752011524E-01
   C  0.563731366E+01  0.103888430E+00 -0.250808390E+00
   H -0.298386450E+02  0.209225537E+00  0.102962511E+01
   H  0.286621294E+02 -0.180758919E+01  0.237245055E+01
     4
 # iter = 60000  time[fs]=60.00000
   C -0.589441318E+01 -0.385426011E-01 -0.758510879E-01
   C  0.571359376E+01  0.105459288E+00 -0.253995099E+00
   H -0.302049082E+02  0.212122234E+00  0.104240751E+01
   H  0.290135331E+02 -0.182996748E+01  0.240197986E+01
     4
 # iter = 60500  time[fs]=60.50000
   C -0.597351672E+01 -0.390361212E-01 -0.765002127E-01
   C  0.578994921E+01  0.107031541E+00 -0.257183679E+00
   H -0.305712665E+02  0.215019954E+00  0.105519334E+01
   H  0.293650369E+02 -0.185235272E+01  0.243151847E+01
     4
 # iter = 61000  time[fs]=61.00000
   C -0.605269401E+01 -0.395305194E-01 -0.771485482E-01
   C  0.586637801E+01  0.108605154E+00 -0.260374085E+00
   H -0.309377177E+02  0.217918674E+00  0.106798252E+01
   H  0.297166384E+02 -0.187474473E+01  0.246106617E+01
     4
 # iter = 61500  time[fs]=61.50000
   C -0.613194314E+01 -0.400257738E-01 -0.777961149E-01
   C  0.594287825E+01  0.110180093E+00 -0.263566273E+00
   H -0.313042597E+02  0.220818372E+00  0.108077498E+01
   H  0.300683354E+02 -0.189714338E+01  0.249062275E+01
     4
 # iter = 62000  time[fs]=62.00000
   C -0.621126224E+01 -0.405218632E-01 -0.784429326E-01
   C  0.601944809E+01  0.111756328E+00 -0.266760199E+00
   H -0.316708904E+02  0.223719027E+00  0.109357063E+01
   H  0.304201257E+02 -0.191954850E+01  0.252018801E+01
     4
 # iter = 62500  time[fs]=62.50000
   C -0.629064955E+01 -0.410187673E-01 -0.790890204E-01
   C  0.609608575E+01  0.113333828E+00 -0.269955823E+00
   H -0.320376077E+02  0.226620617E+00  0.110636941E+01
   H  0.307720072E+02 -0.194195995E+01  0.254976175E+01
     4
 # iter = 63000  time[fs]=63.00000
   C -0.637010334E+01 -0.415164665E-01 -0.797343966E-01
   C  0.617278952E+01  0.114912562E+00 -0.273153105E+00
   H -0.324044097E+02  0.229523123E+00  0.111917125E+01
   H  0.311239777E+02 -0.196437760E+01  0.257934379E+01
     4
 # iter = 63500  time[fs]=63.50000
   C -0.644962196E+01 -0.420149417E-01 -0.803790788E-01
   C  0.624955777E+01  0.116492502E+00 -0.276352006E+00
   H -0.327712945E+02  0.232426524E+00  0.113197607E+01
   H  0.314760354E+02 -0.198680131E+01  0.260893395E+01
     4
 # iter = 64000  time[fs]=64.00000
   C -0.652920382E+01 -0.425141746E-01 -0.810230841E-01
   C  0.632638891E+01  0.118073621E+00 -0.279552490E+00
   H -0.331382603E+02  0.235330803E+00  0.114478383E+01
   H  0.318281782E+02 -0.200923095E+01  0.263853204E+01
     4
 # iter = 64500  time[fs]=64.50000
   C -0.660884737E+01 -0.430141476E-01 -0.816664290E-01
   C  0.640328140E+01  0.119655892E+00 -0.282754520E+00
   H -0.335053053E+02  0.238235942E+00  0.115759444E+01
   H  0.321804044E+02 -0.203166638E+01  0.266813791E+01
     4
 # iter = 65000  time[fs]=65.00000
   C -0.668855114E+01 -0.435148435E-01 -0.823091293E-01
   C  0.648023377E+01  0.121239289E+00 -0.285958062E+00
   H -0.338724278E+02  0.241141921E+00  0.117040785E+01
   H  0.325327122E+02 -0.205410750E+01  0.269775139E+01
     4
 # iter = 65500  time[fs]=65.50000
   C -0.676831370E+01 -0.440162459E-01 -0.829512004E-01
   C  0.655724460E+01  0.122823788E+00 -0.289163082E+00
   H -0.342396262E+02  0.244048724E+00  0.118322401E+01
   H  0.328850997E+02 -0.207655417E+01  0.272737231E+01
     4
 # iter = 66000  time[fs]=66.00000
   C -0.684813366E+01 -0.445183387E-01 -0.835926570E-01
   C  0.663431251E+01  0.124409363E+00 -0.292369547E+00
   H -0.346068989E+02  0.246956336E+00  0.119604285E+01
   H  0.332375653E+02 -0.209900629E+01  0.275700052E+01
     4
 # iter = 66500  time[fs]=66.50000
   C -0.692800968E+01 -0.450211066E-01 -0.842335136E-01
   C  0.671143617E+01  0.125995991E+00 -0.295577428E+00
   H -0.349742443E+02  0.249864738E+00  0.120886431E+01
   H  0.335901075E+02 -0.212146374E+01  0.278663587E+01
     4
 # iter = 67000  time[fs]=67.00000
   C -0.700794048E+01 -0.455245346E-01 -0.848737838E-01
   C  0.678861430E+01  0.127583650E+00 -0.298786692E+00
   H -0.353416608E+02  0.252773916E+00  0.122168836E+01
   H  0.339427245E+02 -0.214392642E+01  0.281627823E+01
     4
 # iter = 67500  time[fs]=67.50000
   C -0.708792482E+01 -0.460286082E-01 -0.855134810E-01
   C  0.686584567E+01  0.129172319E+00 -0.301997311E+00
   H -0.357091472E+02  0.255683855E+00  0.123451492E+01
   H  0.342954149E+02 -0.216639422E+01  0.284592744E+01
     4
 # iter = 68000  time[fs]=68.00000
   C -0.716796148E+01 -0.465333135E-01 -0.861526183E-01
   C  0.694312906E+01  0.130761975E+00 -0.305209256E+00
   H -0.360767018E+02  0.258594540E+00  0.124734395E+01
   H  0.346481771E+02 -0.218886704E+01  0.287558337E+01
     4
 # iter = 68500  time[fs]=68.50000
   C -0.724804930E+01 -0.470386369E-01 -0.867912081E-01
   C  0.702046332E+01  0.132352598E+00 -0.308422499E+00
   H -0.364443235E+02  0.261505956E+00  0.126017541E+01
   H  0.350010098E+02 -0.221134477E+01  0.290524589E+01
     4
 # iter = 69000  time[fs]=69.00000
   C -0.732818715E+01 -0.475445652E-01 -0.874292624E-01
   C  0.709784733E+01  0.133944168E+00 -0.311637014E+00
   H -0.368120107E+02  0.264418090E+00  0.127300925E+01
   H  0.353539116E+02 -0.223382733E+01  0.293491487E+01
     4
 # iter = 69500  time[fs]=69.50000
   C -0.740837394E+01 -0.480510858E-01 -0.880667931E-01
   C  0.717528000E+01  0.135536666E+00 -0.314852774E+00
   H -0.371797623E+02  0.267330927E+00  0.128584541E+01
   H  0.357068810E+02 -0.225631462E+01  0.296459018E+01
     4
 # iter = 70000  time[fs]=70.00000
   C -0.748860861E+01 -0.485581863E-01 -0.887038114E-01
   C  0.725276029E+01  0.137130073E+00 -0.318069755E+00
   H -0.375475770E+02  0.270244456E+00  0.129868385E+01
   H  0.360599167E+02 -0.227880655E+01  0.299427170E+01
     4
 # iter = 70500  time[fs]=70.50000
   C -0.756889014E+01 -0.490658547E-01 -0.893403284E-01
   C  0.733028716E+01  0.138724371E+00 -0.321287932E+00
   H -0.379154536E+02  0.273158663E+00  0.131152454E+01
   H  0.364130176E+02 -0.230130303E+01  0.302395933E+01
     4
 # iter = 71000  time[fs]=71.00000
   C -0.764921753E+01 -0.495740795E-01 -0.899763546E-01
   C  0.740785963E+01  0.140319542E+00 -0.324507281E+00
   H -0.382833908E+02  0.276073535E+00  0.132436742E+01
   H  0.367661822E+02 -0.232380398E+01  0.305365293E+01
     4
 # iter = 71500  time[fs]=71.50000
   C -0.772958983E+01 -0.500828494E-01 -0.906119006E-01
   C  0.748547676E+01  0.141915569E+00 -0.327727779E+00
   H -0.386513876E+02  0.278989061E+00  0.133721246E+01
   H  0.371194095E+02 -0.234630931E+01  0.308335240E+01
     4
 # iter = 72000  time[fs]=72.00000
   C -0.781000610E+01 -0.505921535E-01 -0.912469761E-01
   C  0.756313760E+01  0.143512435E+00 -0.330949404E+00
   H -0.390194428E+02  0.281905229E+00  0.135005962E+01
   H  0.374726983E+02 -0.236881894E+01  0.311305763E+01
     4
 # iter = 72500  time[fs]=72.50000
   C -0.789046543E+01 -0.511019812E-01 -0.918815910E-01
   C  0.764084126E+01  0.145110124E+00 -0.334172134E+00
   H -0.393875554E+02  0.284822027E+00  0.136290885E+01
   H  0.378260473E+02 -0.239133280E+01  0.314276852E+01
     4
 # iter = 73000  time[fs]=73.00000
   C -0.797096696E+01 -0.516123222E-01 -0.925157547E-01
   C  0.771858687E+01  0.146708620E+00 -0.337395948E+00
   H -0.397557242E+02  0.287739444E+00  0.137576012E+01
   H  0.381794555E+02 -0.241385081E+01  0.317248496E+01
     4
 # iter = 73500  time[fs]=73.50000
   C -0.805150982E+01 -0.521231664E-01 -0.931494763E-01
   C  0.779637358E+01  0.148307909E+00 -0.340620826E+00
   H -0.401239483E+02  0.290657470E+00  0.138861340E+01
   H  0.385329219E+02 -0.243637289E+01  0.320220686E+01
     4
 # iter = 74000  time[fs]=74.00000
   C -0.813209320E+01 -0.526345043E-01 -0.937827647E-01
   C  0.787420057E+01  0.149907975E+00 -0.343846747E+00
   H -0.404922267E+02  0.293576093E+00  0.140146864E+01
   H  0.388864452E+02 -0.245889897E+01  0.323193411E+01
     4
 # iter = 74500  time[fs]=74.50000
   C -0.821271629E+01 -0.531463262E-01 -0.944156285E-01
   C  0.795206704E+01  0.151508803E+00 -0.347073692E+00
   H -0.408605583E+02  0.296495304E+00  0.141432581E+01
   H  0.392400247E+02 -0.248142898E+01  0.326166662E+01
     4
 # iter = 75000  time[fs]=75.00000
   C -0.829337831E+01 -0.536586232E-01 -0.950480760E-01
   C  0.802997223E+01  0.153110380E+00 -0.350301642E+00
   H -0.412289423E+02  0.299415093E+00  0.142718488E+01
   H  0.395936591E+02 -0.250396285E+01  0.329140431E+01
     4
 # iter = 75500  time[fs]=75.50000
   C -0.837407851E+01 -0.541713862E-01 -0.956801155E-01
   C  0.810791536E+01  0.154712693E+00 -0.353530579E+00
   H -0.415973776E+02  0.302335449E+00  0.144004582E+01
   H  0.399473477E+02 -0.252650052E+01  0.332114707E+01
     4
 # iter = 76000  time[fs]=76.00000
   C -0.845481615E+01 -0.546846066E-01 -0.963117547E-01
   C  0.818589572E+01  0.156315726E+00 -0.356760485E+00
   H -0.419658635E+02  0.305256363E+00  0.145290859E+01
   H  0.403010893E+02 -0.254904192E+01  0.335089483E+01
     4
 # iter = 76500  time[fs]=76.50000
   C -0.853559052E+01 -0.551982759E-01 -0.969430014E-01
   C  0.826391260E+01  0.157919469E+00 -0.359991343E+00
   H -0.423343991E+02  0.308177826E+00  0.146577316E+01
   H  0.406548832E+02 -0.257158698E+01  0.338064749E+01
     4
 # iter = 77000  time[fs]=77.00000
   C -0.861640092E+01 -0.557123860E-01 -0.975738630E-01
   C  0.834196529E+01  0.159523908E+00 -0.363223135E+00
   H -0.427029834E+02  0.311099829E+00  0.147863950E+01
   H  0.410087283E+02 -0.259413565E+01  0.341040499E+01
     4
 # iter = 77500  time[fs]=77.50000
   C -0.869724668E+01 -0.562269287E-01 -0.982043469E-01
   C  0.842005314E+01  0.161129030E+00 -0.366455846E+00
   H -0.430716157E+02  0.314022362E+00  0.149150757E+01
   H  0.413626239E+02 -0.261668786E+01  0.344016722E+01
     4
 # iter = 78000  time[fs]=78.00000
   C -0.877812714E+01 -0.567418965E-01 -0.988344599E-01
   C  0.849817549E+01  0.162734825E+00 -0.369689459E+00
   H -0.434402951E+02  0.316945418E+00  0.150437737E+01
   H  0.417165691E+02 -0.263924356E+01  0.346993412E+01
     4
 # iter = 78500  time[fs]=78.50000
   C -0.885904166E+01 -0.572572816E-01 -0.994642091E-01
   C  0.857633170E+01  0.164341279E+00 -0.372923958E+00
   H -0.438090209E+02  0.319868988E+00  0.151724884E+01
   H  0.420705630E+02 -0.266180269E+01  0.349970561E+01
     4
 # iter = 79000  time[fs]=79.00000
   C -0.893998962E+01 -0.577730768E-01 -0.100093601E+00
   C  0.865452115E+01  0.165948383E+00 -0.376159328E+00
   H -0.441777922E+02  0.322793063E+00  0.153012197E+01
   H  0.424246049E+02 -0.268436519E+01  0.352948161E+01
     4
 # iter = 79500  time[fs]=79.50000
   C -0.902097042E+01 -0.582892747E-01 -0.100722642E+00
   C  0.873274325E+01  0.167556124E+00 -0.379395555E+00
   H -0.445466085E+02  0.325717636E+00  0.154299672E+01
   H  0.427786939E+02 -0.270693101E+01  0.355926206E+01
     4
 # iter = 80000  time[fs]=80.00000
   C -0.910198346E+01 -0.588058686E-01 -0.101351339E+00
   C  0.881099740E+01  0.169164493E+00 -0.382632624E+00
   H -0.449154688E+02  0.328642699E+00  0.155587308E+01
   H  0.431328293E+02 -0.272950009E+01  0.358904687E+01
