     4
 # iter = 25000  time[fs]=25.00000
   C -0.956296113E+00  0.254047549E-01 -0.171132074E-01
   C  0.102836630E+01 -0.421927225E-01  0.116593164E-02
   H -0.514779558E+01 -0.586904304E+00  0.554826165E+00
   H  0.527171869E+01  0.725346337E+00 -0.588664551E+00
     4
 # iter = 25500  time[fs]=25.50000
   C -0.100218344E+01  0.276501871E-01 -0.203815326E-01
   C  0.107266497E+01 -0.467895603E-01  0.190918632E-02
   H -0.548597569E+01 -0.631793844E+00  0.582862678E+00
   H  0.557765851E+01  0.765317937E+00 -0.634115181E+00
     4
 # iter = 26000  time[fs]=26.00000
   C -0.105199247E+01  0.291127662E-01 -0.246302536E-01
   C  0.111892491E+01 -0.525722877E-01  0.168361486E-02
   H -0.583497988E+01 -0.682774410E+00  0.606134406E+00
   H  0.588369423E+01  0.800751941E+00 -0.685663897E+00
     4
 # iter = 26500  time[fs]=26.50000
   C -0.110272612E+01  0.325293528E-01 -0.271117408E-01
   C  0.116996233E+01 -0.564582286E-01  0.356122115E-02
   H -0.617808285E+01 -0.723678820E+00  0.640649869E+00
   H  0.620534496E+01  0.847650963E+00 -0.727150583E+00
     4
 # iter = 27000  time[fs]=27.00000
   C -0.115401221E+01  0.380275255E-01 -0.276881483E-01
   C  0.122569173E+01 -0.582861628E-01  0.769195107E-02
   H -0.651396571E+01 -0.753644580E+00  0.687142823E+00
   H  0.654289767E+01  0.906732614E+00 -0.757716810E+00
     4
 # iter = 27500  time[fs]=27.50000
   C -0.120767399E+01  0.435569107E-01 -0.284000526E-01
   C  0.128360910E+01 -0.603336839E-01  0.117866626E-01
   H -0.685416629E+01 -0.784585300E+00  0.733594351E+00
   H  0.688392538E+01  0.965954490E+00 -0.789278655E+00
     4
 # iter = 28000  time[fs]=28.00000
   C -0.126495669E+01  0.476648201E-01 -0.306905409E-01
   C  0.134189818E+01 -0.642101761E-01  0.142248348E-01
   H -0.720678119E+01 -0.824921941E+00  0.771492966E+00
   H  0.721956576E+01  0.101678536E+01 -0.830258396E+00
     4
 # iter = 28500  time[fs]=28.50000
   C -0.132509611E+01  0.509279823E-01 -0.339734270E-01
   C  0.140103218E+01 -0.692541057E-01  0.156576020E-01
   H -0.756805666E+01 -0.871189692E+00  0.804222991E+00
   H  0.755291306E+01  0.106259851E+01 -0.877190966E+00
     4
 # iter = 29000  time[fs]=29.00000
   C -0.138649716E+01  0.547721554E-01 -0.368138324E-01
   C  0.146245145E+01 -0.738544781E-01  0.176861906E-01
   H -0.792930428E+01 -0.914955546E+00  0.840146402E+00
   H  0.789208318E+01  0.111174917E+01 -0.921642314E+00
     4
 # iter = 29500  time[fs]=29.50000
   C -0.144851805E+01  0.596858164E-01 -0.387146914E-01
   C  0.152656260E+01 -0.774506295E-01  0.208619413E-01
   H -0.828737179E+01 -0.953288232E+00  0.882133134E+00
   H  0.823972534E+01  0.116709882E+01 -0.960680822E+00
     4
 # iter = 30000  time[fs]=30.00000
   C -0.151171933E+01  0.649695705E-01 -0.403673842E-01
   C  0.159245661E+01 -0.808127423E-01  0.244057792E-01
   H -0.864610711E+01 -0.990226321E+00  0.926091837E+00
   H  0.859154637E+01  0.122454498E+01 -0.998345651E+00
     4
 # iter = 30500  time[fs]=30.50000
   C -0.157675475E+01  0.698443500E-01 -0.425434779E-01
   C  0.165914805E+01 -0.848011223E-01  0.274490444E-01
   H -0.900985413E+01 -0.103028103E+01  0.967465003E+00
   H  0.894280850E+01  0.127951953E+01 -0.103914841E+01
     4
 # iter = 31000  time[fs]=31.00000
   C -0.164352722E+01  0.742944089E-01 -0.452516773E-01
   C  0.172651746E+01 -0.894223724E-01  0.299773862E-01
   H -0.937850459E+01 -0.107349377E+01  0.100616985E+01
   H  0.929327182E+01  0.133193190E+01 -0.108312976E+01
     4
 # iter = 31500  time[fs]=31.50000
   C -0.171143501E+01  0.788198520E-01 -0.479852896E-01
   C  0.179503309E+01 -0.941064099E-01  0.325537150E-01
   H -0.974894608E+01 -0.111688643E+01  0.104514729E+01
   H  0.964573967E+01  0.138471741E+01 -0.112731025E+01
     4
 # iter = 32000  time[fs]=32.00000
   C -0.178007769E+01  0.837293526E-01 -0.504295153E-01
   C  0.186495799E+01 -0.984982753E-01  0.355263221E-01
   H -0.101192071E+02 -0.115860749E+01  0.108621568E+01
   H  0.100019068E+02  0.143968897E+01 -0.116983725E+01
     4
 # iter = 32500  time[fs]=32.50000
   C -0.184950864E+01  0.888864825E-01 -0.527151067E-01
   C  0.193606503E+01 -0.102742078E+00  0.387448857E-01
   H -0.104899425E+02 -0.119941866E+01  0.112858376E+01
   H  0.103608690E+02  0.149604929E+01 -0.121147208E+01
     4
 # iter = 33000  time[fs]=33.00000
   C -0.191992962E+01  0.940143032E-01 -0.551137422E-01
   C  0.200797698E+01 -0.107139912E+00  0.419015365E-01
   H -0.108626453E+02 -0.124090870E+01  0.117063625E+01
   H  0.107209085E+02  0.155217714E+01 -0.125380325E+01
     4
 # iter = 33500  time[fs]=33.50000
   C -0.199135581E+01  0.990295066E-01 -0.577038482E-01
   C  0.208053986E+01 -0.111777698E+00  0.449050049E-01
   H -0.112376853E+02 -0.128353411E+01  0.121189268E+01
   H  0.110814525E+02  0.160758702E+01 -0.129728670E+01
     4
 # iter = 34000  time[fs]=34.00000
   C -0.206361179E+01  0.104045724E+00 -0.603672610E-01
   C  0.215382589E+01 -0.116521426E+00  0.478843472E-01
   H -0.116142886E+02 -0.132659941E+01  0.125302674E+01
   H  0.114430918E+02  0.166294845E+01 -0.134122608E+01
     4
 # iter = 34500  time[fs]=34.50000
   C -0.213653008E+01  0.109174226E+00 -0.629885066E-01
   C  0.222790974E+01 -0.121240258E+00  0.509658132E-01
   H -0.119917045E+02 -0.136942545E+01  0.129469782E+01
   H  0.118064102E+02  0.171891700E+01 -0.138494141E+01
     4
 # iter = 35000  time[fs]=35.00000
   C -0.221006395E+01  0.114410582E+00 -0.655681149E-01
   C  0.230274110E+01 -0.125933370E+00  0.541459642E-01
   H -0.123698694E+02 -0.141201358E+01  0.133688653E+01
   H  0.121713194E+02  0.177546953E+01 -0.142843345E+01
     4
 # iter = 35500  time[fs]=35.50000
   C -0.228423426E+01  0.119687220E+00 -0.681700425E-01
   C  0.237820300E+01 -0.130671073E+00  0.573505300E-01
   H -0.127490979E+02 -0.145473735E+01  0.137920291E+01
   H  0.125373658E+02  0.183221244E+01 -0.147207528E+01
     4
 # iter = 36000  time[fs]=36.00000
   C -0.235903601E+01  0.124966462E+00 -0.708286073E-01
   C  0.245421558E+01 -0.135490604E+00  0.605385980E-01
   H -0.131295358E+02 -0.149779679E+01  0.142143187E+01
   H  0.129042764E+02  0.188892736E+01 -0.151606644E+01
     4
 # iter = 36500  time[fs]=36.50000
   C -0.243441665E+01  0.130261791E+00 -0.735272034E-01
   C  0.253075952E+01 -0.140372282E+00  0.637264332E-01
   H -0.135110351E+02 -0.154109358E+01  0.146365792E+01
   H  0.132720825E+02  0.194569583E+01 -0.156030802E+01
     4
 # iter = 37000  time[fs]=37.00000
   C -0.251031501E+01  0.135598570E+00 -0.762375630E-01
   C  0.260783167E+01 -0.145283456E+00  0.669435068E-01
   H -0.138933836E+02 -0.158446119E+01  0.150603488E+01
   H  0.136408889E+02  0.200266895E+01 -0.160463293E+01
     4
 # iter = 37500  time[fs]=37.50000
   C -0.258669321E+01  0.140981767E+00 -0.789520145E-01
   C  0.268540871E+01 -0.150214617E+00  0.701963689E-01
   H -0.142764937E+02 -0.162785402E+01  0.154859663E+01
   H  0.140106843E+02  0.205987805E+01 -0.164899506E+01
     4
 # iter = 38000  time[fs]=38.00000
   C -0.266353286E+01  0.146399495E+00 -0.816799244E-01
   C  0.276345076E+01 -0.155175405E+00  0.734726220E-01
   H -0.146603810E+02 -0.167132645E+01  0.159127796E+01
   H  0.143813618E+02  0.211725549E+01 -0.169344837E+01
     4
 # iter = 38500  time[fs]=38.50000
   C -0.274081640E+01  0.151841416E+00 -0.844292821E-01
   C  0.284192181E+01 -0.160173980E+00  0.767615302E-01
   H -0.150450560E+02 -0.171492493E+01  0.163402240E+01
   H  0.147528262E+02  0.217474254E+01 -0.173803885E+01
     4
 # iter = 39000  time[fs]=39.00000
   C -0.281851915E+01  0.157306455E+00 -0.871989684E-01
   C  0.292079812E+01 -0.165208365E+00  0.800626683E-01
   H -0.154304786E+02 -0.175864254E+01  0.167682758E+01
   H  0.151250393E+02  0.223233473E+01 -0.178275918E+01
     4
 # iter = 39500  time[fs]=39.50000
   C -0.289661423E+01  0.162797673E+00 -0.899838730E-01
   C  0.300006232E+01 -0.170272165E+00  0.833801829E-01
   H -0.158165878E+02 -0.180244905E+01  0.171971510E+01
   H  0.154979892E+02  0.229005171E+01 -0.182757870E+01
     4
 # iter = 40000  time[fs]=40.00000
   C -0.297507874E+01  0.168315925E+00 -0.927812224E-01
   C  0.307969614E+01 -0.175361654E+00  0.867156999E-01
   H -0.162033384E+02 -0.184632799E+01  0.176269340E+01
   H  0.158716535E+02  0.234790009E+01 -0.187248056E+01
     4
 # iter = 40500  time[fs]=40.50000
   C -0.305389435E+01  0.173859104E+00 -0.955913291E-01
   C  0.315967939E+01 -0.180476600E+00  0.900674795E-01
   H -0.165907054E+02 -0.189028102E+01  0.180575333E+01
   H  0.162459940E+02  0.240586900E+01 -0.191746605E+01
     4
 # iter = 41000  time[fs]=41.00000
   C -0.313304457E+01  0.179424697E+00 -0.984150224E-01
   C  0.323999274E+01 -0.185617394E+00  0.934332854E-01
   H -0.169786685E+02 -0.193431286E+01  0.184888317E+01
   H  0.166209721E+02  0.246394510E+01 -0.196253956E+01
     4
 # iter = 41500  time[fs]=41.50000
   C -0.321251306E+01  0.185011387E+00 -0.101252040E+00
   C  0.332061937E+01 -0.190783239E+00  0.968121803E-01
   H -0.173672030E+02 -0.197842189E+01  0.189207803E+01
   H  0.169965577E+02  0.252212197E+01 -0.200769911E+01
     4
 # iter = 42000  time[fs]=42.00000
   C -0.329228386E+01  0.190618686E+00 -0.104101389E+00
   C  0.340154444E+01 -0.195972555E+00  0.100204118E+00
   H -0.177562812E+02 -0.202260218E+01  0.193533770E+01
   H  0.173727269E+02  0.258039798E+01 -0.205293849E+01
     4
 # iter = 42500  time[fs]=42.50000
   C -0.337234219E+01  0.196246051E+00 -0.106962216E+00
   C  0.348275405E+01 -0.201183948E+00  0.103608959E+00
   H -0.181458777E+02 -0.206684870E+01  0.197866149E+01
   H  0.177494569E+02  0.263877107E+01 -0.209825235E+01
     4
 # iter = 43000  time[fs]=43.00000
   C -0.345267459E+01  0.201892618E+00 -0.109834076E+00
   C  0.356423483E+01 -0.206416508E+00  0.107026172E+00
   H -0.185359707E+02 -0.211115879E+01  0.202204667E+01
   H  0.181267242E+02  0.269723727E+01 -0.214363775E+01
     4
 # iter = 43500  time[fs]=43.50000
   C -0.353326861E+01  0.207557438E+00 -0.112716680E+00
   C  0.364597412E+01 -0.211669530E+00  0.110455105E+00
   H -0.189265405E+02 -0.215553073E+01  0.206548989E+01
   H  0.185045060E+02  0.275579201E+01 -0.218909270E+01
     4
 # iter = 44000  time[fs]=44.00000
   C -0.361411253E+01  0.213239700E+00 -0.115609677E+00
   C  0.372796017E+01 -0.216942258E+00  0.113895233E+00
   H -0.193175683E+02 -0.219996246E+01  0.210898847E+01
   H  0.188827811E+02  0.281443147E+01 -0.223461486E+01
     4
 # iter = 44500  time[fs]=44.50000
   C -0.369519529E+01  0.218938730E+00 -0.118512642E+00
   C  0.381018210E+01 -0.222233879E+00  0.117346160E+00
   H -0.197090357E+02 -0.224445147E+01  0.215254042E+01
   H  0.192615302E+02  0.287315258E+01 -0.228020150E+01
     4
 # iter = 45000  time[fs]=45.00000
   C -0.377650649E+01  0.224653902E+00 -0.121425162E+00
   C  0.389262967E+01 -0.227543612E+00  0.120807524E+00
   H -0.201009254E+02 -0.228899536E+01  0.219614390E+01
   H  0.196407354E+02  0.293195251E+01 -0.232584997E+01
     4
 # iter = 45500  time[fs]=45.50000
   C -0.385803640E+01  0.230384596E+00 -0.124346875E+00
   C  0.397529329E+01 -0.232870753E+00  0.124278950E+00
   H -0.204932210E+02 -0.233359202E+01  0.223979704E+01
   H  0.200203791E+02  0.299082839E+01 -0.237155794E+01
     4
 # iter = 46000  time[fs]=46.00000
   C -0.393977589E+01  0.236130209E+00 -0.127277459E+00
   C  0.405816387E+01 -0.238214656E+00  0.127760060E+00
   H -0.208859074E+02 -0.237823957E+01  0.228349795E+01
   H  0.204004451E+02  0.304977743E+01 -0.241732330E+01
     4
 # iter = 46500  time[fs]=46.50000
   C -0.402171636E+01  0.241890174E+00 -0.130216601E+00
   C  0.414123291E+01 -0.243574707E+00  0.131250501E+00
   H -0.212789703E+02 -0.242293619E+01  0.232724484E+01
   H  0.207809178E+02  0.310879699E+01 -0.246314405E+01
     4
 # iter = 47000  time[fs]=47.00000
   C -0.410384970E+01  0.247663960E+00 -0.133163999E+00
   C  0.422449237E+01 -0.248950316E+00  0.134749946E+00
   H -0.216723959E+02 -0.246768015E+01  0.237103609E+01
   H  0.211617824E+02  0.316788459E+01 -0.250901823E+01
     4
 # iter = 47500  time[fs]=47.50000
   C -0.418616828E+01  0.253451068E+00 -0.136119363E+00
   C  0.430793471E+01 -0.254340920E+00  0.138258085E+00
   H -0.220661713E+02 -0.251246976E+01  0.241487016E+01
   H  0.215430252E+02  0.322703793E+01 -0.255494400E+01
     4
 # iter = 48000  time[fs]=48.00000
   C -0.426866488E+01  0.259251023E+00 -0.139082419E+00
   C  0.439155278E+01 -0.259745988E+00  0.141774625E+00
   H -0.224602842E+02 -0.255730345E+01  0.245874559E+01
   H  0.219246330E+02  0.328625478E+01 -0.260091958E+01
     4
 # iter = 48500  time[fs]=48.50000
   C -0.435133268E+01  0.265063371E+00 -0.142052908E+00
   C  0.447533984E+01 -0.265165016E+00  0.145299282E+00
   H -0.228547230E+02 -0.260217972E+01  0.250266097E+01
   H  0.223065932E+02  0.334553304E+01 -0.264694331E+01
     4
 # iter = 49000  time[fs]=49.00000
   C -0.443416524E+01  0.270887684E+00 -0.145030582E+00
   C  0.455928952E+01 -0.270597527E+00  0.148831787E+00
   H -0.232494766E+02 -0.264709717E+01  0.254661497E+01
   H  0.226888939E+02  0.340487069E+01 -0.269301362E+01
     4
 # iter = 49500  time[fs]=49.50000
   C -0.451715646E+01  0.276723552E+00 -0.148015207E+00
   C  0.464339578E+01 -0.276043066E+00  0.152371885E+00
   H -0.236445345E+02 -0.269205444E+01  0.259060634E+01
   H  0.230715238E+02  0.346426582E+01 -0.273912900E+01
     4
 # iter = 50000  time[fs]=50.00000
   C -0.460030056E+01  0.282570587E+00 -0.151006558E+00
   C  0.472765291E+01 -0.281501198E+00  0.155919331E+00
   H -0.240398867E+02 -0.273705024E+01  0.263463385E+01
   H  0.234544723E+02  0.352371660E+01 -0.278528800E+01
     4
 # iter = 50500  time[fs]=50.50000
   C -0.468359207E+01  0.288428420E+00 -0.154004421E+00
   C  0.481205549E+01 -0.286971513E+00  0.159473893E+00
   H -0.244355237E+02 -0.278208336E+01  0.267869637E+01
   H  0.238377289E+02  0.358322130E+01 -0.283148926E+01
     4
 # iter = 51000  time[fs]=51.00000
   C -0.476702577E+01  0.294296699E+00 -0.157008591E+00
   C  0.489659837E+01 -0.292453617E+00  0.163035349E+00
   H -0.248314364E+02 -0.282715261E+01  0.272279281E+01
   H  0.242212840E+02  0.364277826E+01 -0.287773147E+01
     4
 # iter = 51500  time[fs]=51.50000
   C -0.485059674E+01  0.300175089E+00 -0.160018873E+00
   C  0.498127668E+01 -0.297947134E+00  0.166603487E+00
   H -0.252276162E+02 -0.287225690E+01  0.276692211E+01
   H  0.246051282E+02  0.370238590E+01 -0.292401339E+01
     4
 # iter = 52000  time[fs]=52.00000
   C -0.493430029E+01  0.306063269E+00 -0.163035080E+00
   C  0.506608578E+01 -0.303451709E+00  0.170178103E+00
   H -0.256240547E+02 -0.291739515E+01  0.281108329E+01
   H  0.249892526E+02  0.376204270E+01 -0.297033381E+01
     4
 # iter = 52500  time[fs]=52.50000
   C -0.501813194E+01  0.311960934E+00 -0.166057035E+00
   C  0.515102125E+01 -0.308966999E+00  0.173759004E+00
   H -0.260207442E+02 -0.296256635E+01  0.285527538E+01
   H  0.253736488E+02  0.382174722E+01 -0.301669161E+01
     4
 # iter = 53000  time[fs]=53.00000
   C -0.510208745E+01  0.317867791E+00 -0.169084566E+00
   C  0.523607890E+01 -0.314492678E+00  0.177346004E+00
   H -0.264176771E+02 -0.300776953E+01  0.289949749E+01
   H  0.257583086E+02  0.388149806E+01 -0.306308568E+01
     4
 # iter = 53500  time[fs]=53.50000
   C -0.518616278E+01  0.323783563E+00 -0.172117510E+00
   C  0.532125472E+01 -0.320028434E+00  0.180938925E+00
   H -0.268148461E+02 -0.305300375E+01  0.294374873E+01
   H  0.261432242E+02  0.394129391E+01 -0.310951499E+01
     4
 # iter = 54000  time[fs]=54.00000
   C -0.527035406E+01  0.329707983E+00 -0.175155710E+00
   C  0.540654490E+01 -0.325573968E+00  0.184537598E+00
   H -0.272122444E+02 -0.309826814E+01  0.298802827E+01
   H  0.265283883E+02  0.400113349E+01 -0.315597854E+01
     4
 # iter = 54500  time[fs]=54.50000
   C -0.535465762E+01  0.335640795E+00 -0.178199018E+00
   C  0.549194582E+01 -0.331128996E+00  0.188141858E+00
   H -0.276098655E+02 -0.314356183E+01  0.303233533E+01
   H  0.269137936E+02  0.406101558E+01 -0.320247537E+01
     4
 # iter = 55000  time[fs]=55.00000
   C -0.543906995E+01  0.341581755E+00 -0.181247288E+00
   C  0.557745399E+01 -0.336693243E+00  0.191751549E+00
   H -0.280077029E+02 -0.318888401E+01  0.307666911E+01
   H  0.272994334E+02  0.412093902E+01 -0.324900456E+01
     4
 # iter = 55500  time[fs]=55.50000
   C -0.552358768E+01  0.347530629E+00 -0.184300382E+00
   C  0.566306610E+01 -0.342266448E+00  0.195366522E+00
   H -0.284057507E+02 -0.323423389E+01  0.312102891E+01
   H  0.276853012E+02  0.418090269E+01 -0.329556522E+01
     4
 # iter = 56000  time[fs]=56.00000
   C -0.560820763E+01  0.353487193E+00 -0.187358170E+00
   C  0.574877899E+01 -0.347848359E+00  0.198986631E+00
   H -0.288040030E+02 -0.327961073E+01  0.316541400E+01
   H  0.280713906E+02  0.424090550E+01 -0.334215652E+01
     4
 # iter = 56500  time[fs]=56.50000
   C -0.569292671E+01  0.359451231E+00 -0.190420522E+00
   C  0.583458963E+01 -0.353438734E+00  0.202611738E+00
   H -0.292024542E+02 -0.332501380E+01  0.320982371E+01
   H  0.284576957E+02  0.430094642E+01 -0.338877763E+01
     4
 # iter = 57000  time[fs]=57.00000
   C -0.577774200E+01  0.365422538E+00 -0.193487318E+00
   C  0.592049512E+01 -0.359037343E+00  0.206241711E+00
   H -0.296010990E+02 -0.337044240E+01  0.325425739E+01
   H  0.288442107E+02  0.436102447E+01 -0.343542778E+01
     4
 # iter = 57500  time[fs]=57.50000
   C -0.586265069E+01  0.371400916E+00 -0.196558439E+00
   C  0.600649269E+01 -0.364643964E+00  0.209876420E+00
   H -0.299999323E+02 -0.341589588E+01  0.329871442E+01
   H  0.292309299E+02  0.442113868E+01 -0.348210621E+01
     4
 # iter = 58000  time[fs]=58.00000
   C -0.594765010E+01  0.377386173E+00 -0.199633772E+00
   C  0.609257968E+01 -0.370258382E+00  0.213515744E+00
   H -0.303989490E+02 -0.346137359E+01  0.334319419E+01
   H  0.296178482E+02  0.448128813E+01 -0.352881221E+01
     4
 # iter = 58500  time[fs]=58.50000
   C -0.603273763E+01  0.383378127E+00 -0.202713210E+00
   C  0.617875355E+01 -0.375880392E+00  0.217159564E+00
   H -0.307981446E+02 -0.350687491E+01  0.338769613E+01
   H  0.300049603E+02  0.454147193E+01 -0.357554507E+01
     4
 # iter = 59000  time[fs]=59.00000
   C -0.611791083E+01  0.389376603E+00 -0.205796647E+00
   C  0.626501185E+01 -0.381509798E+00  0.220807765E+00
   H -0.311975143E+02 -0.355239925E+01  0.343221968E+01
   H  0.303922613E+02  0.460168925E+01 -0.362230413E+01
     4
 # iter = 59500  time[fs]=59.50000
   C -0.620316731E+01  0.395381431E+00 -0.208883982E+00
   C  0.635135224E+01 -0.387146408E+00  0.224460237E+00
   H -0.315970539E+02 -0.359794604E+01  0.347676430E+01
   H  0.307797465E+02  0.466193924E+01 -0.366908875E+01
     4
 # iter = 60000  time[fs]=60.00000
   C -0.628850480E+01  0.401392448E+00 -0.211975119E+00
   C  0.643777247E+01 -0.392790041E+00  0.228116876E+00
   H -0.319967590E+02 -0.364351473E+01  0.352132948E+01
   H  0.311674112E+02  0.472222113E+01 -0.371589829E+01
     4
 # iter = 60500  time[fs]=60.50000
   C -0.637392111E+01  0.407409498E+00 -0.215069964E+00
   C  0.652427039E+01 -0.398440520E+00  0.231777578E+00
   H -0.323966256E+02 -0.368910478E+01  0.356591472E+01
   H  0.315552511E+02  0.478253414E+01 -0.376273216E+01
     4
 # iter = 61000  time[fs]=61.00000
   C -0.645941414E+01  0.413432430E+00 -0.218168426E+00
   C  0.661084391E+01 -0.404097675E+00  0.235442246E+00
   H -0.327966498E+02 -0.373471569E+01  0.361051953E+01
   H  0.319432619E+02  0.484287754E+01 -0.380958978E+01
     4
 # iter = 61500  time[fs]=61.50000
   C -0.654498187E+01  0.419461098E+00 -0.221270419E+00
   C  0.669749104E+01 -0.409761342E+00  0.239110784E+00
   H -0.331968277E+02 -0.378034696E+01  0.365514346E+01
   H  0.323314395E+02  0.490325062E+01 -0.385647060E+01
     4
 # iter = 62000  time[fs]=62.00000
   C -0.663062236E+01  0.425495362E+00 -0.224375859E+00
   C  0.678420987E+01 -0.415431365E+00  0.242783101E+00
   H -0.335971557E+02 -0.382599812E+01  0.369978606E+01
   H  0.327197799E+02  0.496365269E+01 -0.390337407E+01
     4
 # iter = 62500  time[fs]=62.50000
   C -0.671633373E+01  0.431535088E+00 -0.227484664E+00
   C  0.687099855E+01 -0.421107591E+00  0.246459108E+00
   H -0.339976302E+02 -0.387166870E+01  0.374444690E+01
   H  0.331082794E+02  0.502408309E+01 -0.395029967E+01
     4
 # iter = 63000  time[fs]=63.00000
   C -0.680211418E+01  0.437580144E+00 -0.230596757E+00
   C  0.695785529E+01 -0.426789873E+00  0.250138721E+00
   H -0.343982480E+02 -0.391735826E+01  0.378912556E+01
   H  0.334969342E+02  0.508454118E+01 -0.399724690E+01
     4
 # iter = 63500  time[fs]=63.50000
   C -0.688796199E+01  0.443630405E+00 -0.233712062E+00
   C  0.704477839E+01 -0.432478070E+00  0.253821855E+00
   H -0.347990056E+02 -0.396306637E+01  0.383382163E+01
   H  0.338857408E+02  0.514502633E+01 -0.404421528E+01
     4
 # iter = 64000  time[fs]=64.00000
   C -0.697387546E+01  0.449685749E+00 -0.236830505E+00
   C  0.713176620E+01 -0.438172044E+00  0.257508433E+00
   H -0.351998999E+02 -0.400879262E+01  0.387853473E+01
   H  0.342746957E+02  0.520553795E+01 -0.409120433E+01
     4
 # iter = 64500  time[fs]=64.50000
   C -0.705985301E+01  0.455746058E+00 -0.239952016E+00
   C  0.721881712E+01 -0.443871663E+00  0.261198375E+00
   H -0.356009279E+02 -0.405453660E+01  0.392326448E+01
   H  0.346637956E+02  0.526607546E+01 -0.413821360E+01
     4
 # iter = 65000  time[fs]=65.00000
   C -0.714589306E+01  0.461811220E+00 -0.243076526E+00
   C  0.730592963E+01 -0.449576799E+00  0.264891609E+00
   H -0.360020864E+02 -0.410029793E+01  0.396801052E+01
   H  0.350530372E+02  0.532663830E+01 -0.418524266E+01
     4
 # iter = 65500  time[fs]=65.50000
   C -0.723199413E+01  0.467881125E+00 -0.246203970E+00
   C  0.739310224E+01 -0.455287330E+00  0.268588061E+00
   H -0.364033728E+02 -0.414607623E+01  0.401277249E+01
   H  0.354424176E+02  0.538722592E+01 -0.423229106E+01
     4
 # iter = 66000  time[fs]=66.00000
   C -0.731815477E+01  0.473955666E+00 -0.249334284E+00
   C  0.748033353E+01 -0.461003134E+00  0.272287661E+00
   H -0.368047841E+02 -0.419187114E+01  0.405755005E+01
   H  0.358319336E+02  0.544783780E+01 -0.427935841E+01
     4
 # iter = 66500  time[fs]=66.50000
   C -0.740437357E+01  0.480034741E+00 -0.252467405E+00
   C  0.756762211E+01 -0.466724097E+00  0.275990342E+00
   H -0.372063177E+02 -0.423768230E+01  0.410234287E+01
   H  0.362215824E+02  0.550847342E+01 -0.432644430E+01
     4
 # iter = 67000  time[fs]=67.00000
   C -0.749064919E+01  0.486118250E+00 -0.255603273E+00
   C  0.765496666E+01 -0.472450106E+00  0.279696039E+00
   H -0.376079711E+02 -0.428350938E+01  0.414715064E+01
   H  0.366113610E+02  0.556913231E+01 -0.437354835E+01
     4
 # iter = 67500  time[fs]=67.50000
   C -0.757698032E+01  0.492206099E+00 -0.258741831E+00
   C  0.774236589E+01 -0.478181053E+00  0.283404688E+00
   H -0.380097416E+02 -0.432935203E+01  0.419197303E+01
   H  0.370012669E+02  0.562981396E+01 -0.442067018E+01
     4
 # iter = 68000  time[fs]=68.00000
   C -0.766336571E+01  0.498298192E+00 -0.261883022E+00
   C  0.782981856E+01 -0.483916833E+00  0.287116227E+00
   H -0.384116268E+02 -0.437520995E+01  0.423680976E+01
   H  0.373912973E+02  0.569051793E+01 -0.446780942E+01
     4
 # iter = 68500  time[fs]=68.50000
   C -0.774980413E+01  0.504394442E+00 -0.265026791E+00
   C  0.791732346E+01 -0.489657345E+00  0.290830596E+00
   H -0.388136243E+02 -0.442108283E+01  0.428166052E+01
   H  0.377814496E+02  0.575124377E+01 -0.451496573E+01
     4
 # iter = 69000  time[fs]=69.00000
   C -0.783629440E+01  0.510494759E+00 -0.268173086E+00
   C  0.800487943E+01 -0.495402489E+00  0.294547738E+00
   H -0.392157319E+02 -0.446697035E+01  0.432652505E+01
   H  0.381717214E+02  0.581199102E+01 -0.456213876E+01
     4
 # iter = 69500  time[fs]=69.50000
   C -0.792283540E+01  0.516599059E+00 -0.271321855E+00
   C  0.809248535E+01 -0.501152170E+00  0.298267597E+00
   H -0.396179473E+02 -0.451287223E+01  0.437140305E+01
   H  0.385621102E+02  0.587275928E+01 -0.460932819E+01
     4
 # iter = 70000  time[fs]=70.00000
   C -0.800942600E+01  0.522707261E+00 -0.274473048E+00
   C  0.818014012E+01 -0.506906295E+00  0.301990117E+00
   H -0.400202684E+02 -0.455878818E+01  0.441629426E+01
   H  0.389526138E+02  0.593354813E+01 -0.465653368E+01
     4
 # iter = 70500  time[fs]=70.50000
   C -0.809606514E+01  0.528819285E+00 -0.277626617E+00
   C  0.826784270E+01 -0.512664775E+00  0.305715247E+00
   H -0.404226930E+02 -0.460471793E+01  0.446119844E+01
   H  0.393432298E+02  0.599435717E+01 -0.470375492E+01
     4
 # iter = 71000  time[fs]=71.00000
   C -0.818275179E+01  0.534935053E+00 -0.280782515E+00
   C  0.835559205E+01 -0.518427522E+00  0.309442935E+00
   H -0.408252192E+02 -0.465066122E+01  0.450611532E+01
   H  0.397339560E+02  0.605518601E+01 -0.475099162E+01
     4
 # iter = 71500  time[fs]=71.50000
   C -0.826948494E+01  0.541054491E+00 -0.283940696E+00
   C  0.844338720E+01 -0.524194451E+00  0.313173130E+00
   H -0.412278449E+02 -0.469661777E+01  0.455104466E+01
   H  0.401247902E+02  0.611603428E+01 -0.479824347E+01
     4
 # iter = 72000  time[fs]=72.00000
   C -0.835626363E+01  0.547177526E+00 -0.287101117E+00
   C  0.853122718E+01 -0.529965481E+00  0.316905785E+00
   H -0.416305682E+02 -0.474258735E+01  0.459598622E+01
   H  0.405157305E+02  0.617690160E+01 -0.484551019E+01
     4
 # iter = 72500  time[fs]=72.50000
   C -0.844308689E+01  0.553304087E+00 -0.290263733E+00
   C  0.861911106E+01 -0.535740531E+00  0.320640853E+00
   H -0.420333872E+02 -0.478856969E+01  0.464093978E+01
   H  0.409067747E+02  0.623778763E+01 -0.489279150E+01
     4
 # iter = 73000  time[fs]=73.00000
   C -0.852995383E+01  0.559434106E+00 -0.293428504E+00
   C  0.870703794E+01 -0.541519524E+00  0.324378287E+00
   H -0.424363002E+02 -0.483456458E+01  0.468590511E+01
   H  0.412979210E+02  0.629869202E+01 -0.494008713E+01
     4
 # iter = 73500  time[fs]=73.50000
   C -0.861686356E+01  0.565567516E+00 -0.296595388E+00
   C  0.879500694E+01 -0.547302384E+00  0.328118043E+00
   H -0.428393053E+02 -0.488057176E+01  0.473088199E+01
   H  0.416891673E+02  0.635961442E+01 -0.498739682E+01
     4
 # iter = 74000  time[fs]=74.00000
   C -0.870381521E+01  0.571704252E+00 -0.299764347E+00
   C  0.888301723E+01 -0.553089039E+00  0.331860078E+00
   H -0.432424009E+02 -0.492659102E+01  0.477587021E+01
   H  0.420805118E+02  0.642055451E+01 -0.503472030E+01
     4
 # iter = 74500  time[fs]=74.50000
   C -0.879080795E+01  0.577844252E+00 -0.302935341E+00
   C  0.897106797E+01 -0.558879416E+00  0.335604351E+00
   H -0.436455853E+02 -0.497262214E+01  0.482086956E+01
   H  0.424719528E+02  0.648151198E+01 -0.508205734E+01
     4
 # iter = 75000  time[fs]=75.00000
   C -0.887784097E+01  0.583987454E+00 -0.306108334E+00
   C  0.905915836E+01 -0.564673447E+00  0.339350819E+00
   H -0.440488569E+02 -0.501866491E+01  0.486587985E+01
   H  0.428634884E+02  0.654248650E+01 -0.512940768E+01
     4
 # iter = 75500  time[fs]=75.50000
   C -0.896491348E+01  0.590133798E+00 -0.309283288E+00
   C  0.914728762E+01 -0.570471064E+00  0.343099444E+00
   H -0.444522140E+02 -0.506471911E+01  0.491090088E+01
   H  0.432551169E+02  0.660347779E+01 -0.517677109E+01
     4
 # iter = 76000  time[fs]=76.00000
   C -0.905202471E+01  0.596283228E+00 -0.312460169E+00
   C  0.923545502E+01 -0.576272202E+00  0.346850186E+00
   H -0.448556552E+02 -0.511078454E+01  0.495593245E+01
   H  0.436468367E+02  0.666448554E+01 -0.522414734E+01
     4
 # iter = 76500  time[fs]=76.50000
   C -0.913917393E+01  0.602435686E+00 -0.315638942E+00
   C  0.932365980E+01 -0.582076798E+00  0.350603007E+00
   H -0.452591790E+02 -0.515686101E+01  0.500097439E+01
   H  0.440386462E+02  0.672550947E+01 -0.527153620E+01
     4
 # iter = 77000  time[fs]=77.00000
   C -0.922636040E+01  0.608591118E+00 -0.318819574E+00
   C  0.941190126E+01 -0.587884788E+00  0.354357872E+00
   H -0.456627838E+02 -0.520294833E+01  0.504602651E+01
   H  0.444305438E+02  0.678654930E+01 -0.531893746E+01
     4
 # iter = 77500  time[fs]=77.50000
   C -0.931358343E+01  0.614749470E+00 -0.322002031E+00
   C  0.950017870E+01 -0.593696112E+00  0.358114743E+00
   H -0.460664683E+02 -0.524904630E+01  0.509108865E+01
   H  0.448225279E+02  0.684760475E+01 -0.536635090E+01
     4
 # iter = 78000  time[fs]=78.00000
   C -0.940084234E+01  0.620910691E+00 -0.325186283E+00
   C  0.958849146E+01 -0.599510713E+00  0.361873587E+00
   H -0.464702312E+02 -0.529515475E+01  0.513616061E+01
   H  0.452145970E+02  0.690867557E+01 -0.541377632E+01
     4
 # iter = 78500  time[fs]=78.50000
   C -0.948813645E+01  0.627074730E+00 -0.328372297E+00
   C  0.967683887E+01 -0.605328531E+00  0.365634369E+00
   H -0.468740709E+02 -0.534127350E+01  0.518124225E+01
   H  0.456067497E+02  0.696976148E+01 -0.546121352E+01
     4
 # iter = 79000  time[fs]=79.00000
   C -0.957546512E+01  0.633241537E+00 -0.331560044E+00
   C  0.976522030E+01 -0.611149512E+00  0.369397057E+00
   H -0.472779864E+02 -0.538740237E+01  0.522633340E+01
   H  0.459989846E+02  0.703086225E+01 -0.550866229E+01
     4
 # iter = 79500  time[fs]=79.50000
   C -0.966282773E+01  0.639411066E+00 -0.334749495E+00
   C  0.985363514E+01 -0.616973601E+00  0.373161617E+00
   H -0.476819761E+02 -0.543354120E+01  0.527143389E+01
   H  0.463913002E+02  0.709197762E+01 -0.555612244E+01
     4
 # iter = 80000  time[fs]=80.00000
   C -0.975022366E+01  0.645583268E+00 -0.337940620E+00
   C  0.994208277E+01 -0.622800745E+00  0.376928019E+00
   H -0.480860390E+02 -0.547968982E+01  0.531654358E+01
   H  0.467836952E+02  0.715310736E+01 -0.560359380E+01
