     4
 # iter = 25000  time[fs]=25.00000
   C -0.993078851E+00 -0.414151858E-01  0.825347337E-02
   C  0.983746347E+00 -0.943632233E-02  0.188413077E-01
   H -0.527808714E+01 -0.626169977E+00 -0.414805214E+00
   H  0.523526919E+01  0.706392838E+00 -0.792600459E-01
     4
 # iter = 25500  time[fs]=25.50000
   C -0.103976550E+01 -0.426050691E-01  0.879809896E-02
   C  0.102319767E+01 -0.147558340E-01  0.182153841E-01
   H -0.561786053E+01 -0.674532269E+00 -0.449271565E+00
   H  0.554486679E+01  0.740861311E+00 -0.928064072E-01
     4
 # iter = 26000  time[fs]=26.00000
   C -0.109025189E+01 -0.446594998E-01  0.851288269E-02
   C  0.106446586E+01 -0.211650755E-01  0.165307225E-01
   H -0.596814714E+01 -0.728926553E+00 -0.489577191E+00
   H  0.585475267E+01  0.770793556E+00 -0.111870083E+00
     4
 # iter = 26500  time[fs]=26.50000
   C -0.114179022E+01 -0.450611374E-01  0.990736356E-02
   C  0.111056492E+01 -0.254182647E-01  0.170341331E-01
   H -0.631227161E+01 -0.773201051E+00 -0.519592474E+00
   H  0.618041708E+01  0.812187767E+00 -0.120349437E+00
     4
 # iter = 27000  time[fs]=27.00000
   C -0.119403015E+01 -0.436795183E-01  0.131054643E-01
   C  0.116143362E+01 -0.273590176E-01  0.198823778E-01
   H -0.664895294E+01 -0.806500809E+00 -0.538480552E+00
   H  0.652212095E+01  0.865758041E+00 -0.117438324E+00
     4
 # iter = 27500  time[fs]=27.50000
   C -0.124862676E+01 -0.423766429E-01  0.162397518E-01
   C  0.121444731E+01 -0.294097771E-01  0.226528346E-01
   H -0.698975685E+01 -0.840740438E+00 -0.558170896E+00
   H  0.686741374E+01  0.919459103E+00 -0.115099818E+00
     4
 # iter = 28000  time[fs]=28.00000
   C -0.130670696E+01 -0.424695771E-01  0.179887675E-01
   C  0.126770548E+01 -0.332847053E-01  0.236309417E-01
   H -0.734280356E+01 -0.884342217E+00 -0.587098663E+00
   H  0.720741427E+01  0.964757717E+00 -0.121796768E+00
     4
 # iter = 28500  time[fs]=28.50000
   C -0.136756174E+01 -0.434215529E-01  0.188858004E-01
   C  0.132172725E+01 -0.382941219E-01  0.235059244E-01
   H -0.770436222E+01 -0.933846701E+00 -0.621815974E+00
   H  0.754520307E+01  0.100502608E+01 -0.134098206E+00
     4
 # iter = 29000  time[fs]=29.00000
   C -0.142972325E+01 -0.439208162E-01  0.202398505E-01
   C  0.137805251E+01 -0.427427234E-01  0.239725221E-01
   H -0.806576533E+01 -0.980827632E+00 -0.653906856E+00
   H  0.788888564E+01  0.104861891E+01 -0.143599303E+00
     4
 # iter = 29500  time[fs]=29.50000
   C -0.149259520E+01 -0.435133459E-01  0.225027377E-01
   C  0.143712501E+01 -0.460455018E-01  0.256149866E-01
   H -0.842387673E+01 -0.102235762E+01 -0.680452830E+00
   H  0.824110215E+01  0.109839734E+01 -0.147394537E+00
     4
 # iter = 30000  time[fs]=30.00000
   C -0.155668052E+01 -0.428318009E-01  0.250400421E-01
   C  0.149799441E+01 -0.490246356E-01  0.276102111E-01
   H -0.878255579E+01 -0.106247572E+01 -0.705500644E+00
   H  0.859755124E+01  0.115025857E+01 -0.149546738E+00
     4
 # iter = 30500  time[fs]=30.50000
   C -0.162256781E+01 -0.425824401E-01  0.271441168E-01
   C  0.155962788E+01 -0.525968625E-01  0.290404483E-01
   H -0.914615582E+01 -0.110569312E+01 -0.733568244E+00
   H  0.895348808E+01  0.119963432E+01 -0.154588658E+00
     4
 # iter = 31000  time[fs]=31.00000
   C -0.169016009E+01 -0.427744691E-01  0.288046826E-01
   C  0.162190754E+01 -0.567749700E-01  0.298918908E-01
   H -0.951457813E+01 -0.115205284E+01 -0.764704720E+00
   H  0.930866713E+01  0.124643412E+01 -0.162579568E+00
     4
 # iter = 31500  time[fs]=31.50000
   C -0.175889970E+01 -0.429461554E-01  0.304826509E-01
   C  0.168533622E+01 -0.609609774E-01  0.307615047E-01
   H -0.988471969E+01 -0.119857949E+01 -0.795940155E+00
   H  0.966588721E+01  0.129359355E+01 -0.170556397E+00
     4
 # iter = 32000  time[fs]=32.00000
   C -0.182841354E+01 -0.428112508E-01  0.324636445E-01
   C  0.175019866E+01 -0.647839771E-01  0.320191792E-01
   H -0.102546168E+02 -0.124342353E+01 -0.825429917E+00
   H  0.100268392E+02  0.134292581E+01 -0.176681298E+00
     4
 # iter = 32500  time[fs]=32.50000
   C -0.189874378E+01 -0.424907979E-01  0.346261493E-01
   C  0.181626007E+01 -0.684006241E-01  0.335072384E-01
   H -0.106249303E+02 -0.128734739E+01 -0.853940798E+00
   H  0.103906155E+02  0.139363390E+01 -0.181729014E+00
     4
 # iter = 33000  time[fs]=33.00000
   C -0.197006865E+01 -0.422346647E-01  0.367199500E-01
   C  0.188312615E+01 -0.721343067E-01  0.349012876E-01
   H -0.109971578E+02 -0.133194005E+01 -0.883065718E+00
   H  0.107554951E+02  0.144409687E+01 -0.187300301E+00
     4
 # iter = 33500  time[fs]=33.50000
   C -0.204239635E+01 -0.421160758E-01  0.386715769E-01
   C  0.195063821E+01 -0.760793130E-01  0.361060633E-01
   H -0.113716739E+02 -0.137765861E+01 -0.913265335E+00
   H  0.111209028E+02  0.149382957E+01 -0.193862121E+00
     4
 # iter = 34000  time[fs]=34.00000
   C -0.211556126E+01 -0.420285442E-01  0.405873539E-01
   C  0.201887641E+01 -0.800969052E-01  0.372593654E-01
   H -0.117477090E+02 -0.142380863E+01 -0.943848445E+00
   H  0.114874270E+02  0.154350188E+01 -0.200728124E+00
     4
 # iter = 34500  time[fs]=34.50000
   C -0.218940549E+01 -0.418680042E-01  0.425712475E-01
   C  0.208792303E+01 -0.840514075E-01  0.384959687E-01
   H -0.121245165E+02 -0.146971187E+01 -0.974139758E+00
   H  0.118556498E+02  0.159376976E+01 -0.207227408E+00
     4
 # iter = 35000  time[fs]=35.00000
   C -0.226388181E+01 -0.416363738E-01  0.446212912E-01
   C  0.215772776E+01 -0.879444522E-01  0.398133752E-01
   H -0.125020363E+02 -0.151537025E+01 -0.100414389E+01
   H  0.122254810E+02  0.164461045E+01 -0.213369082E+00
     4
 # iter = 35500  time[fs]=35.50000
   C -0.233900515E+01 -0.413934934E-01  0.466776353E-01
   C  0.222816942E+01 -0.918527077E-01  0.411340881E-01
   H -0.128805855E+02 -0.156115767E+01 -0.103423718E+01
   H  0.125964656E+02  0.169563068E+01 -0.219533891E+00
     4
 # iter = 36000  time[fs]=36.00000
   C -0.241476711E+01 -0.411720581E-01  0.487076072E-01
   C  0.229916582E+01 -0.958176409E-01  0.424158500E-01
   H -0.132603125E+02 -0.160727451E+01 -0.106462228E+01
   H  0.129683292E+02  0.174661244E+01 -0.225928391E+00
     4
 # iter = 36500  time[fs]=36.50000
   C -0.249111610E+01 -0.409581612E-01  0.507251604E-01
   C  0.237069857E+01 -0.998203139E-01  0.436768470E-01
   H -0.136410719E+02 -0.165362291E+01 -0.109520338E+01
   H  0.133411019E+02  0.179763762E+01 -0.232460148E+00
     4
 # iter = 37000  time[fs]=37.00000
   C -0.256799293E+01 -0.407271801E-01  0.527549831E-01
   C  0.244276621E+01 -0.103827906E+00  0.449491853E-01
   H -0.140226536E+02 -0.170003678E+01 -0.112581631E+01
   H  0.137148876E+02  0.184885767E+01 -0.238968034E+00
     4
 # iter = 37500  time[fs]=37.50000
   C -0.264535992E+01 -0.404732611E-01  0.548030093E-01
   C  0.251534571E+01 -0.107831935E+00  0.462406684E-01
   H -0.144049720E+02 -0.174647086E+01 -0.115641756E+01
   H  0.140896739E+02  0.190030424E+01 -0.245411445E+00
     4
 # iter = 38000  time[fs]=38.00000
   C -0.272319745E+01 -0.402060678E-01  0.568596662E-01
   C  0.258839639E+01 -0.111844047E+00  0.475390044E-01
   H -0.147880443E+02 -0.179297984E+01 -0.118706346E+01
   H  0.144653531E+02  0.195191001E+01 -0.251849442E+00
     4
 # iter = 38500  time[fs]=38.50000
   C -0.280148685E+01 -0.399339518E-01  0.589167006E-01
   C  0.266188150E+01 -0.115874211E+00  0.488336143E-01
   H -0.151718826E+02 -0.183961040E+01 -0.121780219E+01
   H  0.148418293E+02  0.200361656E+01 -0.258332761E+00
     4
 # iter = 39000  time[fs]=39.00000
   C -0.288020311E+01 -0.396568869E-01  0.609742427E-01
   C  0.273577716E+01 -0.119921560E+00  0.501247846E-01
   H -0.155564484E+02 -0.188635589E+01 -0.124862849E+01
   H  0.152190634E+02  0.205541971E+01 -0.264858478E+00
     4
 # iter = 39500  time[fs]=39.50000
   C -0.295931942E+01 -0.393711493E-01  0.630361239E-01
   C  0.281006612E+01 -0.123980458E+00  0.514175990E-01
   H -0.159416818E+02 -0.193318633E+01 -0.127951369E+01
   H  0.155970433E+02  0.210733939E+01 -0.271400041E+00
     4
 # iter = 40000  time[fs]=40.00000
   C -0.303881272E+01 -0.390751032E-01  0.651040894E-01
   C  0.288473006E+01 -0.128048008E+00  0.527144354E-01
   H -0.163275389E+02 -0.198008545E+01 -0.131044274E+01
   H  0.159757456E+02  0.215938250E+01 -0.277944406E+00
     4
 # iter = 40500  time[fs]=40.50000
   C -0.311866430E+01 -0.387698882E-01  0.671771102E-01
   C  0.295974858E+01 -0.132124932E+00  0.540140743E-01
   H -0.167139958E+02 -0.202705513E+01 -0.134141863E+01
   H  0.163551319E+02  0.221153842E+01 -0.284496439E+00
     4
 # iter = 41000  time[fs]=41.00000
   C -0.319885726E+01 -0.384570731E-01  0.692537280E-01
   C  0.303510206E+01 -0.136212541E+00  0.553147371E-01
   H -0.171010332E+02 -0.207410026E+01 -0.137244731E+01
   H  0.167351630E+02  0.226379406E+01 -0.291063861E+00
     4
 # iter = 41500  time[fs]=41.50000
   C -0.327937495E+01 -0.381371883E-01  0.713335219E-01
   C  0.311077350E+01 -0.140310825E+00  0.566159876E-01
   H -0.174886273E+02 -0.212121937E+01 -0.140352831E+01
   H  0.171158084E+02  0.231614326E+01 -0.297647828E+00
     4
 # iter = 42000  time[fs]=42.00000
   C -0.336020119E+01 -0.378100560E-01  0.734167779E-01
   C  0.318674793E+01 -0.144418883E+00  0.579183025E-01
   H -0.178767513E+02 -0.216840673E+01 -0.143465680E+01
   H  0.174970438E+02  0.236858460E+01 -0.304245049E+00
     4
 # iter = 42500  time[fs]=42.50000
   C -0.344132095E+01 -0.374755924E-01  0.755036864E-01
   C  0.326301131E+01 -0.148535964E+00  0.592220319E-01
   H -0.182653805E+02 -0.221565742E+01 -0.146582876E+01
   H  0.178788461E+02  0.242111626E+01 -0.310852924E+00
     4
 # iter = 43000  time[fs]=43.00000
   C -0.352272054E+01 -0.371340488E-01  0.775941002E-01
   C  0.333955011E+01 -0.152661778E+00  0.605270850E-01
   H -0.186544939E+02 -0.226296893E+01 -0.149704246E+01
   H  0.182611913E+02  0.247373446E+01 -0.317471097E+00
     4
 # iter = 43500  time[fs]=43.50000
   C -0.360438727E+01 -0.367857897E-01  0.796877566E-01
   C  0.341635150E+01 -0.156796205E+00  0.618332182E-01
   H -0.190440725E+02 -0.231033967E+01 -0.152829710E+01
   H  0.186440565E+02  0.252643486E+01 -0.324100022E+00
     4
 # iter = 44000  time[fs]=44.00000
   C -0.368630919E+01 -0.364310891E-01  0.817844810E-01
   C  0.349340361E+01 -0.160939033E+00  0.631402986E-01
   H -0.194340980E+02 -0.235776769E+01 -0.155959144E+01
   H  0.190274201E+02  0.257921382E+01 -0.330739654E+00
     4
 # iter = 44500  time[fs]=44.50000
   C -0.376847503E+01 -0.360701260E-01  0.838841909E-01
   C  0.357069538E+01 -0.165089951E+00  0.644483100E-01
   H -0.198245526E+02 -0.240525059E+01 -0.159092377E+01
   H  0.194112627E+02  0.263206847E+01 -0.337389417E+00
     4
 # iter = 45000  time[fs]=45.00000
   C -0.385087419E+01 -0.357030626E-01  0.859868177E-01
   C  0.364821648E+01 -0.169248647E+00  0.657572506E-01
   H -0.202154196E+02 -0.245278607E+01 -0.162229243E+01
   H  0.197955659E+02  0.268499615E+01 -0.344048703E+00
     4
 # iter = 45500  time[fs]=45.50000
   C -0.393349675E+01 -0.353300829E-01  0.880922685E-01
   C  0.372595715E+01 -0.173414862E+00  0.670670843E-01
   H -0.206066831E+02 -0.250037213E+01 -0.165369601E+01
   H  0.201803122E+02  0.273799418E+01 -0.350717113E+00
     4
 # iter = 46000  time[fs]=46.00000
   C -0.401633340E+01 -0.349513796E-01  0.902004386E-01
   C  0.380390821E+01 -0.177588366E+00  0.683777567E-01
   H -0.209983285E+02 -0.254800696E+01 -0.168513329E+01
   H  0.205654850E+02  0.279105991E+01 -0.357394374E+00
     4
 # iter = 46500  time[fs]=46.50000
   C -0.409937537E+01 -0.345671346E-01  0.923112314E-01
   C  0.388206100E+01 -0.181768936E+00  0.696892206E-01
   H -0.213903418E+02 -0.259568885E+01 -0.171660309E+01
   H  0.209510684E+02  0.284419087E+01 -0.364080208E+00
     4
 # iter = 47000  time[fs]=47.00000
   C -0.418261439E+01 -0.341775158E-01  0.944245614E-01
   C  0.396040741E+01 -0.185956350E+00  0.710014409E-01
   H -0.217827096E+02 -0.264341612E+01 -0.174810427E+01
   H  0.213370477E+02  0.289738475E+01 -0.370774309E+00
     4
 # iter = 47500  time[fs]=47.50000
   C -0.426604267E+01 -0.337826821E-01  0.965403495E-01
   C  0.403893975E+01 -0.190150392E+00  0.723143877E-01
   H -0.221754196E+02 -0.269118718E+01 -0.177963570E+01
   H  0.217234089E+02  0.295063937E+01 -0.377476372E+00
     4
 # iter = 48000  time[fs]=48.00000
   C -0.434965283E+01 -0.333827877E-01  0.986585185E-01
   C  0.411765078E+01 -0.194350858E+00  0.736280308E-01
   H -0.225684596E+02 -0.273900053E+01 -0.181119634E+01
   H  0.221101385E+02  0.300395266E+01 -0.384186116E+00
     4
 # iter = 48500  time[fs]=48.50000
   C -0.443343793E+01 -0.329779819E-01  0.100778993E+00
   C  0.419653367E+01 -0.198557553E+00  0.749423404E-01
   H -0.229618185E+02 -0.278685473E+01 -0.184278521E+01
   H  0.224972239E+02  0.305732265E+01 -0.390903285E+00
     4
 # iter = 49000  time[fs]=49.00000
   C -0.451739138E+01 -0.325684084E-01  0.102901702E+00
   C  0.427558193E+01 -0.202770293E+00  0.762572885E-01
   H -0.233554854E+02 -0.283474843E+01 -0.187440137E+01
   H  0.228846532E+02  0.311074744E+01 -0.397627635E+00
     4
 # iter = 49500  time[fs]=49.50000
   C -0.460150697E+01 -0.321542048E-01  0.105026577E+00
   C  0.435478945E+01 -0.206988896E+00  0.775728492E-01
   H -0.237494502E+02 -0.288268036E+01 -0.190604393E+01
   H  0.232724147E+02  0.316422527E+01 -0.404358931E+00
     4
 # iter = 50000  time[fs]=50.00000
   C -0.468577877E+01 -0.317355031E-01  0.107153553E+00
   C  0.443415041E+01 -0.211213193E+00  0.788889983E-01
   H -0.241437031E+02 -0.293064926E+01 -0.193771204E+01
   H  0.236604978E+02  0.321775441E+01 -0.411096949E+00
     4
 # iter = 50500  time[fs]=50.50000
   C -0.477020121E+01 -0.313124302E-01  0.109282567E+00
   C  0.451365932E+01 -0.215443019E+00  0.802057131E-01
   H -0.245382348E+02 -0.297865398E+01 -0.196940490E+01
   H  0.240488919E+02  0.327133326E+01 -0.417841476E+00
     4
 # iter = 51000  time[fs]=51.00000
   C -0.485476897E+01 -0.308851083E-01  0.111413560E+00
   C  0.459331094E+01 -0.219678214E+00  0.815229721E-01
   H -0.249330366E+02 -0.302669340E+01 -0.200112172E+01
   H  0.244375873E+02  0.332496025E+01 -0.424592307E+00
     4
 # iter = 51500  time[fs]=51.50000
   C -0.493947700E+01 -0.304536547E-01  0.113546474E+00
   C  0.467310033E+01 -0.223918628E+00  0.828407550E-01
   H -0.253281000E+02 -0.307476646E+01 -0.203286178E+01
   H  0.248265745E+02  0.337863393E+01 -0.431349249E+00
     4
 # iter = 52000  time[fs]=52.00000
   C -0.502432052E+01 -0.300181824E-01  0.115681254E+00
   C  0.475302276E+01 -0.228164115E+00  0.841590425E-01
   H -0.257234169E+02 -0.312287212E+01 -0.206462436E+01
   H  0.252158445E+02  0.343235287E+01 -0.438112117E+00
     4
 # iter = 52500  time[fs]=52.50000
   C -0.510929495E+01 -0.295788002E-01  0.117817849E+00
   C  0.483307376E+01 -0.232414535E+00  0.854778166E-01
   H -0.261189798E+02 -0.317100944E+01 -0.209640880E+01
   H  0.256053887E+02  0.348611574E+01 -0.444880733E+00
     4
 # iter = 53000  time[fs]=53.00000
   C -0.519439597E+01 -0.291356126E-01  0.119956206E+00
   C  0.491324904E+01 -0.236669754E+00  0.867970599E-01
   H -0.265147812E+02 -0.321917746E+01 -0.212821445E+01
   H  0.259951990E+02  0.353992123E+01 -0.451654929E+00
     4
 # iter = 53500  time[fs]=53.50000
   C -0.527961944E+01 -0.286887204E-01  0.122096279E+00
   C  0.499354456E+01 -0.240929641E+00  0.881167563E-01
   H -0.269108142E+02 -0.326737531E+01 -0.216004070E+01
   H  0.263852674E+02  0.359376811E+01 -0.458434541E+00
     4
 # iter = 54000  time[fs]=54.00000
   C -0.536496141E+01 -0.282382206E-01  0.124238020E+00
   C  0.507395642E+01 -0.245194073E+00  0.894368903E-01
   H -0.273070720E+02 -0.331560213E+01 -0.219188695E+01
   H  0.267755865E+02  0.364765522E+01 -0.465219416E+00
     4
 # iter = 54500  time[fs]=54.50000
   C -0.545041813E+01 -0.277842066E-01  0.126381384E+00
   C  0.515448094E+01 -0.249462929E+00  0.907574472E-01
   H -0.277035482E+02 -0.336385711E+01 -0.222375266E+01
   H  0.271661491E+02  0.370158140E+01 -0.472009405E+00
     4
 # iter = 55000  time[fs]=55.00000
   C -0.553598600E+01 -0.273267685E-01  0.128526329E+00
   C  0.523511459E+01 -0.253736096E+00  0.920784132E-01
   H -0.281002366E+02 -0.341213945E+01 -0.225563726E+01
   H  0.275569482E+02  0.375554558E+01 -0.478804364E+00
     4
 # iter = 55500  time[fs]=55.50000
   C -0.562166160E+01 -0.268659932E-01  0.130672813E+00
   C  0.531585399E+01 -0.258013460E+00  0.933997749E-01
   H -0.284971313E+02 -0.346044843E+01 -0.228754025E+01
   H  0.279479773E+02  0.380954672E+01 -0.485604158E+00
     4
 # iter = 56000  time[fs]=56.00000
   C -0.570744165E+01 -0.264019644E-01  0.132820796E+00
   C  0.539669593E+01 -0.262294916E+00  0.947215199E-01
   H -0.288942267E+02 -0.350878330E+01 -0.231946112E+01
   H  0.283392301E+02  0.386358382E+01 -0.492408655E+00
     4
 # iter = 56500  time[fs]=56.50000
   C -0.579332302E+01 -0.259347629E-01  0.134970240E+00
   C  0.547763732E+01 -0.266580361E+00  0.960436360E-01
   H -0.292915174E+02 -0.355714338E+01 -0.235139940E+01
   H  0.287307005E+02  0.391765591E+01 -0.499217729E+00
     4
 # iter = 57000  time[fs]=57.00000
   C -0.587930271E+01 -0.254644665E-01  0.137121109E+00
   C  0.555867523E+01 -0.270869694E+00  0.973661118E-01
   H -0.296889980E+02 -0.360552801E+01 -0.238335463E+01
   H  0.291223825E+02  0.397176208E+01 -0.506031260E+00
     4
 # iter = 57500  time[fs]=57.50000
   C -0.596537785E+01 -0.249911506E-01  0.139273365E+00
   C  0.563980682E+01 -0.275162821E+00  0.986889364E-01
   H -0.300866636E+02 -0.365393655E+01 -0.241532637E+01
   H  0.295142707E+02  0.402590145E+01 -0.512849131E+00
     4
 # iter = 58000  time[fs]=58.00000
   C -0.605154569E+01 -0.245148877E-01  0.141426976E+00
   C  0.572102940E+01 -0.279459648E+00  0.100012099E+00
   H -0.304845094E+02 -0.370236838E+01 -0.244731419E+01
   H  0.299063597E+02  0.408007315E+01 -0.519671230E+00
     4
 # iter = 58500  time[fs]=58.50000
   C -0.613780359E+01 -0.240357480E-01  0.143581908E+00
   C  0.580234038E+01 -0.283760087E+00  0.101335591E+00
   H -0.308825307E+02 -0.375082291E+01 -0.247931768E+01
   H  0.302986442E+02  0.413427636E+01 -0.526497450E+00
     4
 # iter = 59000  time[fs]=59.00000
   C -0.622414904E+01 -0.235537994E-01  0.145738129E+00
   C  0.588373726E+01 -0.288064051E+00  0.102659401E+00
   H -0.312807231E+02 -0.379929957E+01 -0.251133646E+01
   H  0.306911192E+02  0.418851031E+01 -0.533327687E+00
     4
 # iter = 59500  time[fs]=59.50000
   C -0.631057959E+01 -0.230691072E-01  0.147895609E+00
   C  0.596521768E+01 -0.292371457E+00  0.103983521E+00
   H -0.316790822E+02 -0.384779782E+01 -0.254337013E+01
   H  0.310837800E+02  0.424277422E+01 -0.540161842E+00
     4
 # iter = 60000  time[fs]=60.00000
   C -0.639709292E+01 -0.225817349E-01  0.150054317E+00
   C  0.604677933E+01 -0.296682225E+00  0.105307942E+00
   H -0.320776040E+02 -0.389631712E+01 -0.257541834E+01
   H  0.314766220E+02  0.429706737E+01 -0.546999818E+00
     4
 # iter = 60500  time[fs]=60.50000
   C -0.648368681E+01 -0.220917437E-01  0.152214226E+00
   C  0.612842003E+01 -0.300996277E+00  0.106632656E+00
   H -0.324762844E+02 -0.394485697E+01 -0.260748074E+01
   H  0.318696406E+02  0.435138905E+01 -0.553841523E+00
     4
 # iter = 61000  time[fs]=61.00000
   C -0.657035908E+01 -0.215991928E-01  0.154375306E+00
   C  0.621013766E+01 -0.305313538E+00  0.107957655E+00
   H -0.328751196E+02 -0.399341688E+01 -0.263955698E+01
   H  0.322628317E+02  0.440573857E+01 -0.560686867E+00
     4
 # iter = 61500  time[fs]=61.50000
   C -0.665710769E+01 -0.211041395E-01  0.156537533E+00
   C  0.629193018E+01 -0.309633935E+00  0.109282930E+00
   H -0.332741058E+02 -0.404199636E+01 -0.267164674E+01
   H  0.326561910E+02  0.446011528E+01 -0.567535764E+00
     4
 # iter = 62000  time[fs]=62.00000
   C -0.674393065E+01 -0.206066394E-01  0.158700879E+00
   C  0.637379566E+01 -0.313957399E+00  0.110608475E+00
   H -0.336732396E+02 -0.409059498E+01 -0.270374970E+01
   H  0.330497145E+02  0.451451855E+01 -0.574388132E+00
     4
 # iter = 62500  time[fs]=62.50000
   C -0.683082603E+01 -0.201067461E-01  0.160865320E+00
   C  0.645573220E+01 -0.318283860E+00  0.111934283E+00
   H -0.340725174E+02 -0.413921228E+01 -0.273586556E+01
   H  0.334433984E+02  0.456894776E+01 -0.581243889E+00
     4
 # iter = 63000  time[fs]=63.00000
   C -0.691779200E+01 -0.196045117E-01  0.163030831E+00
   C  0.653773800E+01 -0.322613253E+00  0.113260347E+00
   H -0.344719360E+02 -0.418784783E+01 -0.276799402E+01
   H  0.338372390E+02  0.462340233E+01 -0.588102959E+00
     4
 # iter = 63500  time[fs]=63.50000
   C -0.700482679E+01 -0.190999866E-01  0.165197389E+00
   C  0.661981132E+01 -0.326945515E+00  0.114586659E+00
   H -0.348714920E+02 -0.423650123E+01 -0.280013480E+01
   H  0.342312327E+02  0.467788167E+01 -0.594965265E+00
     4
 # iter = 64000  time[fs]=64.00000
   C -0.709192868E+01 -0.185932196E-01  0.167364972E+00
   C  0.670195048E+01 -0.331280584E+00  0.115913215E+00
   H -0.352711825E+02 -0.428517208E+01 -0.283228762E+01
   H  0.346253760E+02  0.473238523E+01 -0.601830737E+00
     4
 # iter = 64500  time[fs]=64.50000
   C -0.717909603E+01 -0.180842581E-01  0.169533557E+00
   C  0.678415385E+01 -0.335618400E+00  0.117240008E+00
   H -0.356710043E+02 -0.433385999E+01 -0.286445222E+01
   H  0.350196656E+02  0.478691249E+01 -0.608699303E+00
     4
 # iter = 65000  time[fs]=65.00000
   C -0.726632726E+01 -0.175731479E-01  0.171703123E+00
   C  0.686641989E+01 -0.339958905E+00  0.118567032E+00
   H -0.360709546E+02 -0.438256459E+01 -0.289662834E+01
   H  0.354140982E+02  0.484146292E+01 -0.615570896E+00
     4
 # iter = 65500  time[fs]=65.50000
   C -0.735362081E+01 -0.170599336E-01  0.173873649E+00
   C  0.694874707E+01 -0.344302042E+00  0.119894281E+00
   H -0.364710305E+02 -0.443128552E+01 -0.292881572E+01
   H  0.358086706E+02  0.489603603E+01 -0.622445451E+00
     4
 # iter = 66000  time[fs]=66.00000
   C -0.744097523E+01 -0.165446584E-01  0.176045116E+00
   C  0.703113396E+01 -0.348647758E+00  0.121221750E+00
   H -0.368712294E+02 -0.448002242E+01 -0.296101414E+01
   H  0.362033798E+02  0.495063132E+01 -0.629322903E+00
     4
 # iter = 66500  time[fs]=66.50000
   C -0.752838907E+01 -0.160273641E-01  0.178217504E+00
   C  0.711357914E+01 -0.352996000E+00  0.122549434E+00
   H -0.372715486E+02 -0.452877497E+01 -0.299322335E+01
   H  0.365982229E+02  0.500524833E+01 -0.636203192E+00
     4
 # iter = 67000  time[fs]=67.00000
   C -0.761586096E+01 -0.155080915E-01  0.180390794E+00
   C  0.719608127E+01 -0.357346716E+00  0.123877328E+00
   H -0.376719855E+02 -0.457754283E+01 -0.302544312E+01
   H  0.369931970E+02  0.505988660E+01 -0.643086257E+00
     4
 # iter = 67500  time[fs]=67.50000
   C -0.770338956E+01 -0.149868800E-01  0.182564968E+00
   C  0.727863902E+01 -0.361699856E+00  0.125205427E+00
   H -0.380725377E+02 -0.462632569E+01 -0.305767325E+01
   H  0.373882995E+02  0.511454570E+01 -0.649972042E+00
     4
 # iter = 68000  time[fs]=68.00000
   C -0.779097359E+01 -0.144637679E-01  0.184740008E+00
   C  0.736125114E+01 -0.366055372E+00  0.126533726E+00
   H -0.384732028E+02 -0.467512323E+01 -0.308991351E+01
   H  0.377835274E+02  0.516922519E+01 -0.656860490E+00
     4
 # iter = 68500  time[fs]=68.50000
   C -0.787861180E+01 -0.139387926E-01  0.186915898E+00
   C  0.744391641E+01 -0.370413218E+00  0.127862221E+00
   H -0.388739784E+02 -0.472393516E+01 -0.312216370E+01
   H  0.381788784E+02  0.522392467E+01 -0.663751546E+00
     4
 # iter = 69000  time[fs]=69.00000
   C -0.796630298E+01 -0.134119902E-01  0.189092620E+00
   C  0.752663363E+01 -0.374773347E+00  0.129190908E+00
   H -0.392748623E+02 -0.477276120E+01 -0.315442362E+01
   H  0.385743499E+02  0.527864372E+01 -0.670645159E+00
     4
 # iter = 69500  time[fs]=69.50000
   C -0.805404597E+01 -0.128833958E-01  0.191270158E+00
   C  0.760940166E+01 -0.379135716E+00  0.130519782E+00
   H -0.396758524E+02 -0.482160105E+01 -0.318669308E+01
   H  0.389699394E+02  0.533338196E+01 -0.677541277E+00
     4
 # iter = 70000  time[fs]=70.00000
   C -0.814183963E+01 -0.123530437E-01  0.193448497E+00
   C  0.769221940E+01 -0.383500282E+00  0.131848838E+00
   H -0.400769464E+02 -0.487045445E+01 -0.321897189E+01
   H  0.393656446E+02  0.538813902E+01 -0.684439850E+00
     4
 # iter = 70500  time[fs]=70.50000
   C -0.822968289E+01 -0.118209671E-01  0.195627620E+00
   C  0.777508576E+01 -0.387867001E+00  0.133178074E+00
   H -0.404781423E+02 -0.491932113E+01 -0.325125986E+01
   H  0.397614632E+02  0.544291451E+01 -0.691340831E+00
     4
 # iter = 71000  time[fs]=71.00000
   C -0.831757466E+01 -0.112871983E-01  0.197807515E+00
   C  0.785799972E+01 -0.392235835E+00  0.134507485E+00
   H -0.408794382E+02 -0.496820083E+01 -0.328355681E+01
   H  0.401573930E+02  0.549770810E+01 -0.698244173E+00
     4
 # iter = 71500  time[fs]=71.50000
   C -0.840551394E+01 -0.107517688E-01  0.199988165E+00
   C  0.794096026E+01 -0.396606744E+00  0.135837068E+00
   H -0.412808321E+02 -0.501709331E+01 -0.331586259E+01
   H  0.405534317E+02  0.555251942E+01 -0.705149830E+00
     4
 # iter = 72000  time[fs]=72.00000
   C -0.849349973E+01 -0.102147091E-01  0.202169557E+00
   C  0.802396641E+01 -0.400979688E+00  0.137166819E+00
   H -0.416823221E+02 -0.506599832E+01 -0.334817701E+01
   H  0.409495773E+02  0.560734814E+01 -0.712057759E+00
     4
 # iter = 72500  time[fs]=72.50000
   C -0.858153105E+01 -0.967604910E-02  0.204351677E+00
   C  0.810701722E+01 -0.405354631E+00  0.138496735E+00
   H -0.420839063E+02 -0.511491563E+01 -0.338049991E+01
   H  0.413458278E+02  0.566219394E+01 -0.718967915E+00
     4
 # iter = 73000  time[fs]=73.00000
   C -0.866960698E+01 -0.913581768E-02  0.206534512E+00
   C  0.819011177E+01 -0.409731536E+00  0.139826812E+00
   H -0.424855831E+02 -0.516384501E+01 -0.341283114E+01
   H  0.417421811E+02  0.571705650E+01 -0.725880259E+00
     4
 # iter = 73500  time[fs]=73.50000
   C -0.875772661E+01 -0.859404310E-02  0.208718049E+00
   C  0.827324918E+01 -0.414110368E+00  0.141157046E+00
   H -0.428873506E+02 -0.521278623E+01 -0.344517055E+01
   H  0.421386354E+02  0.577193551E+01 -0.732794749E+00
     4
 # iter = 74000  time[fs]=74.00000
   C -0.884588906E+01 -0.805075283E-02  0.210902275E+00
   C  0.835642857E+01 -0.418491092E+00  0.142487436E+00
   H -0.432892072E+02 -0.526173907E+01 -0.347751797E+01
   H  0.425351887E+02  0.582683066E+01 -0.739711346E+00
     4
 # iter = 74500  time[fs]=74.50000
   C -0.893409348E+01 -0.750597364E-02  0.213087179E+00
   C  0.843964911E+01 -0.422873675E+00  0.143817977E+00
   H -0.436911513E+02 -0.531070334E+01 -0.350987327E+01
   H  0.429318393E+02  0.588174166E+01 -0.746630012E+00
     4
 # iter = 75000  time[fs]=75.00000
   C -0.902233903E+01 -0.695973160E-02  0.215272747E+00
   C  0.852290999E+01 -0.427258083E+00  0.145148667E+00
   H -0.440931812E+02 -0.535967881E+01 -0.354223631E+01
   H  0.433285853E+02  0.593666823E+01 -0.753550709E+00
     4
 # iter = 75500  time[fs]=75.50000
   C -0.911062491E+01 -0.641205213E-02  0.217458969E+00
   C  0.860621042E+01 -0.431644286E+00  0.146479503E+00
   H -0.444952955E+02 -0.540866530E+01 -0.357460694E+01
   H  0.437254251E+02  0.599161010E+01 -0.760473401E+00
     4
 # iter = 76000  time[fs]=76.00000
   C -0.919895034E+01 -0.586295998E-02  0.219645833E+00
   C  0.868954962E+01 -0.436032252E+00  0.147810482E+00
   H -0.448974925E+02 -0.545766260E+01 -0.360698504E+01
   H  0.441223569E+02  0.604656698E+01 -0.767398052E+00
     4
 # iter = 76500  time[fs]=76.50000
   C -0.928731456E+01 -0.531247931E-02  0.221833328E+00
   C  0.877292685E+01 -0.440421950E+00  0.149141601E+00
   H -0.452997709E+02 -0.550667054E+01 -0.363937047E+01
   H  0.445193791E+02  0.610153862E+01 -0.774324629E+00
     4
 # iter = 77000  time[fs]=77.00000
   C -0.937571683E+01 -0.476063364E-02  0.224021443E+00
   C  0.885634139E+01 -0.444813352E+00  0.150472858E+00
   H -0.457021291E+02 -0.555568891E+01 -0.367176310E+01
   H  0.449164901E+02  0.615652476E+01 -0.781253098E+00
     4
 # iter = 77500  time[fs]=77.50000
   C -0.946415643E+01 -0.420744594E-02  0.226210168E+00
   C  0.893979254E+01 -0.449206427E+00  0.151804250E+00
   H -0.461045659E+02 -0.560471755E+01 -0.370416282E+01
   H  0.453136884E+02  0.621152515E+01 -0.788183425E+00
     4
 # iter = 78000  time[fs]=78.00000
   C -0.955263266E+01 -0.365293860E-02  0.228399493E+00
   C  0.902327959E+01 -0.453601150E+00  0.153135775E+00
   H -0.465070799E+02 -0.565375627E+01 -0.373656949E+01
   H  0.457109725E+02  0.626653955E+01 -0.795115580E+00
     4
 # iter = 78500  time[fs]=78.50000
   C -0.964114485E+01 -0.309713346E-02  0.230589408E+00
   C  0.910680190E+01 -0.457997491E+00  0.154467430E+00
   H -0.469096696E+02 -0.570280491E+01 -0.376898300E+01
   H  0.461083409E+02  0.632156772E+01 -0.802049531E+00
     4
 # iter = 79000  time[fs]=79.00000
   C -0.972969233E+01 -0.254005184E-02  0.232779902E+00
   C  0.919035881E+01 -0.462395424E+00  0.155799212E+00
   H -0.473123339E+02 -0.575186331E+01 -0.380140324E+01
   H  0.465057920E+02  0.637660943E+01 -0.808985248E+00
     4
 # iter = 79500  time[fs]=79.50000
   C -0.981827446E+01 -0.198171453E-02  0.234970966E+00
   C  0.927394969E+01 -0.466794924E+00  0.157131121E+00
   H -0.477150715E+02 -0.580093129E+01 -0.383383009E+01
   H  0.469033247E+02  0.643166446E+01 -0.815922701E+00
     4
 # iter = 80000  time[fs]=80.00000
   C -0.990689062E+01 -0.142214186E-02  0.237162592E+00
   C  0.935757392E+01 -0.471195964E+00  0.158463152E+00
   H -0.481178812E+02 -0.585000870E+01 -0.386626345E+01
   H  0.473009374E+02  0.648673257E+01 -0.822861862E+00
