     4
 # iter = 25000  time[fs]=25.00000
   C -0.990159249E+00 -0.504441695E-01  0.244621779E-02
   C  0.990209300E+00  0.479170749E-02  0.171470995E-02
   H -0.525466033E+01  0.384243290E+00 -0.516137670E-01
   H  0.538362629E+01  0.263159208E+00  0.438786623E+00
     4
 # iter = 25500  time[fs]=25.50000
   C -0.103722650E+01 -0.555396541E-01  0.126529877E-02
   C  0.103165259E+01  0.147379392E-02 -0.202538810E-02
   H -0.559966230E+01  0.399193584E+00 -0.648136067E-01
   H  0.569445658E+01  0.267519271E+00  0.454493170E+00
     4
 # iter = 26000  time[fs]=26.00000
   C -0.108822814E+01 -0.616597725E-01 -0.818715525E-03
   C  0.107506479E+01 -0.283994186E-02 -0.685577766E-02
   H -0.595548046E+01  0.409185028E+00 -0.834926613E-01
   H  0.600535812E+01  0.266753088E+00  0.465269006E+00
     4
 # iter = 26500  time[fs]=26.50000
   C -0.114022289E+01 -0.661006849E-01 -0.111111040E-02
   C  0.112333693E+01 -0.500756126E-02 -0.962894576E-02
   H -0.630539976E+01  0.430240846E+00 -0.915654964E-01
   H  0.633186198E+01  0.276921732E+00  0.487155601E+00
     4
 # iter = 27000  time[fs]=27.00000
   C -0.119284186E+01 -0.687185545E-01  0.523566823E-03
   C  0.117638723E+01 -0.487823575E-02 -0.101884283E-01
   H -0.664810240E+01  0.463112856E+00 -0.882297609E-01
   H  0.667426198E+01  0.298794435E+00  0.520904639E+00
     4
 # iter = 27500  time[fs]=27.50000
   C -0.124786769E+01 -0.715064813E-01  0.208451425E-02
   C  0.123165610E+01 -0.479784573E-02 -0.108745387E-01
   H -0.699511984E+01  0.495803183E+00 -0.854419406E-01
   H  0.702013402E+01  0.320374546E+00  0.554503692E+00
     4
 # iter = 28000  time[fs]=28.00000
   C -0.130651629E+01 -0.758730373E-01  0.215602433E-02
   C  0.128728733E+01 -0.642716793E-02 -0.133427482E-01
   H -0.735454431E+01  0.519817660E+00 -0.916606540E-01
   H  0.736061815E+01  0.333170594E+00  0.579447710E+00
     4
 # iter = 28500  time[fs]=28.50000
   C -0.136803378E+01 -0.812384776E-01  0.131121592E-02
   C  0.134376842E+01 -0.910061159E-02 -0.169225180E-01
   H -0.772262435E+01  0.538550762E+00 -0.103459893E+00
   H  0.769881215E+01  0.340590109E+00  0.599132819E+00
     4
 # iter = 29000  time[fs]=29.00000
   C -0.143085194E+01 -0.861919167E-01  0.954862355E-03
   C  0.140257666E+01 -0.111794339E-01 -0.199704953E-01
   H -0.809067660E+01  0.560370869E+00 -0.112443483E+00
   H  0.804283557E+01  0.351018161E+00  0.621934327E+00
     4
 # iter = 29500  time[fs]=29.50000
   C -0.149433720E+01 -0.902425296E-01  0.157219520E-02
   C  0.146413031E+01 -0.120996061E-01 -0.219183335E-01
   H -0.845555082E+01  0.588155632E+00 -0.115709768E+00
   H  0.839534012E+01  0.367342628E+00  0.650731409E+00
     4
 # iter = 30000  time[fs]=30.00000
   C -0.155903487E+01 -0.940651344E-01  0.248329250E-02
   C  0.152750002E+01 -0.126591080E-01 -0.235599757E-01
   H -0.882109319E+01  0.617823592E+00 -0.117319528E+00
   H  0.875203375E+01  0.385484602E+00  0.681437286E+00
     4
 # iter = 30500  time[fs]=30.50000
   C -0.162558185E+01 -0.984136444E-01  0.292957544E-02
   C  0.159167791E+01 -0.137474501E-01 -0.257811923E-01
   H -0.919164551E+01  0.644826417E+00 -0.121802959E+00
   H  0.910817934E+01  0.400897006E+00  0.709497848E+00
     4
 # iter = 31000  time[fs]=31.00000
   C -0.169387929E+01 -0.103294528E+00  0.290030260E-02
   C  0.165654262E+01 -0.153792290E-01 -0.285931404E-01
   H -0.956709973E+01  0.669087578E+00 -0.129220379E+00
   H  0.946353783E+01  0.413508113E+00  0.734835166E+00
     4
 # iter = 31500  time[fs]=31.50000
   C -0.176333392E+01 -0.108209332E+00  0.289001267E-02
   C  0.172257445E+01 -0.169778489E-01 -0.314160660E-01
   H -0.994434521E+01  0.693552147E+00 -0.136612167E+00
   H  0.982091344E+01  0.426270098E+00  0.760395922E+00
     4
 # iter = 32000  time[fs]=32.00000
   C -0.183355002E+01 -0.112848001E+00  0.320518538E-02
   C  0.179004341E+01 -0.181863965E-01 -0.338901489E-01
   H -0.103214117E+02  0.720042600E+00 -0.142142858E+00
   H  0.101820016E+02  0.441011039E+00  0.788003257E+00
     4
 # iter = 32500  time[fs]=32.50000
   C -0.190457708E+01 -0.117337490E+00  0.371559475E-02
   C  0.185871746E+01 -0.191584570E-01 -0.361662955E-01
   H -0.106989537E+02  0.747772531E+00 -0.146587278E+00
   H  0.105458983E+02  0.456947298E+00  0.816869048E+00
     4
 # iter = 33000  time[fs]=33.00000
   C -0.197661018E+01 -0.121943099E+00  0.415294872E-02
   C  0.192821079E+01 -0.202088921E-01 -0.385569015E-01
   H -0.110784636E+02  0.775131480E+00 -0.151545502E+00
   H  0.109108860E+02  0.472470052E+00  0.845380390E+00
     4
 # iter = 33500  time[fs]=33.50000
   C -0.204966179E+01 -0.126740840E+00  0.443849412E-02
   C  0.199836608E+01 -0.214307416E-01 -0.411527396E-01
   H -0.114603112E+02  0.801642869E+00 -0.157484717E+00
   H  0.112763918E+02  0.487105080E+00  0.873059370E+00
     4
 # iter = 34000  time[fs]=34.00000
   C -0.212355767E+01 -0.131614137E+00  0.468629127E-02
   C  0.206925763E+01 -0.226914210E-01 -0.438191412E-01
   H -0.118437229E+02  0.827983368E+00 -0.163719722E+00
   H  0.116430065E+02  0.501532200E+00  0.900582456E+00
     4
 # iter = 34500  time[fs]=34.50000
   C -0.219813160E+01 -0.136449163E+00  0.500785731E-02
   C  0.214096216E+01 -0.238612117E-01 -0.464244692E-01
   H -0.122279486E+02  0.854815041E+00 -0.169580696E+00
   H  0.120113141E+02  0.516416384E+00  0.928611562E+00
     4
 # iter = 35000  time[fs]=35.00000
   C -0.227333586E+01 -0.141245903E+00  0.540108179E-02
   C  0.221342841E+01 -0.249431900E-01 -0.489700312E-01
   H -0.126129247E+02  0.882121270E+00 -0.175077196E+00
   H  0.123812260E+02  0.531743094E+00  0.957129351E+00
     4
 # iter = 35500  time[fs]=35.50000
   C -0.234918920E+01 -0.146066604E+00  0.580176573E-02
   C  0.228653680E+01 -0.260129637E-01 -0.515298035E-01
   H -0.129989656E+02  0.909514775E+00 -0.180590062E+00
   H  0.127522886E+02  0.547126608E+00  0.985747527E+00
     4
 # iter = 36000  time[fs]=36.00000
   C -0.242568510E+01 -0.150944520E+00  0.617485233E-02
   C  0.236020576E+01 -0.271119887E-01 -0.541437352E-01
   H -0.133862171E+02  0.936782889E+00 -0.186326061E+00
   H  0.131242286E+02  0.562355810E+00  0.101425261E+01
     4
 # iter = 36500  time[fs]=36.50000
   C -0.250277059E+01 -0.155863044E+00  0.653528887E-02
   C  0.243441564E+01 -0.282231806E-01 -0.567933499E-01
   H -0.137745312E+02  0.964012194E+00 -0.192193194E+00
   H  0.134970771E+02  0.577518959E+00  0.104273067E+01
     4
 # iter = 37000  time[fs]=37.00000
   C -0.258038435E+01 -0.160794180E+00  0.690953303E-02
   C  0.250916341E+01 -0.293159435E-01 -0.594467633E-01
   H -0.141636960E+02  0.991358363E+00 -0.198030800E+00
   H  0.138709387E+02  0.592773337E+00  0.107133699E+01
     4
 # iter = 37500  time[fs]=37.50000
   C -0.265848801E+01 -0.165730167E+00  0.730392598E-02
   C  0.258442528E+01 -0.303831645E-01 -0.620956695E-01
   H -0.145536239E+02  0.101885706E+01 -0.203798611E+00
   H  0.142458020E+02  0.608156003E+00  0.110010676E+01
     4
 # iter = 38000  time[fs]=38.00000
   C -0.273706239E+01 -0.170679978E+00  0.770817612E-02
   C  0.266016055E+01 -0.314371457E-01 -0.647512636E-01
   H -0.149443303E+02  0.104644476E+01 -0.209555915E+00
   H  0.146215597E+02  0.623604614E+00  0.112897591E+01
     4
 # iter = 38500  time[fs]=38.50000
   C -0.281608923E+01 -0.175651270E+00  0.811340699E-02
   C  0.273633247E+01 -0.324885012E-01 -0.674231319E-01
   H -0.153358259E+02  0.107406657E+01 -0.215353662E+00
   H  0.149981163E+02  0.639065395E+00  0.115788906E+01
     4
 # iter = 39000  time[fs]=39.00000
   C -0.289554335E+01 -0.180642791E+00  0.851973322E-02
   C  0.281291682E+01 -0.335373017E-01 -0.701103894E-01
   H -0.157280706E+02  0.110172153E+01 -0.221189171E+00
   H  0.153754334E+02  0.654538452E+00  0.118684483E+01
     4
 # iter = 39500  time[fs]=39.50000
   C -0.297539749E+01 -0.185649401E+00  0.893123952E-02
   C  0.288989592E+01 -0.345789499E-01 -0.728075496E-01
   H -0.161210032E+02  0.112943256E+01 -0.227036136E+00
   H  0.157534990E+02  0.670047716E+00  0.121586575E+01
     4
 # iter = 40000  time[fs]=40.00000
   C -0.305562839E+01 -0.190668269E+00  0.934977355E-02
   C  0.296725114E+01 -0.356114438E-01 -0.755117813E-01
   H -0.165145787E+02  0.115720932E+01 -0.232881731E+00
   H  0.161322903E+02  0.685603796E+00  0.124496114E+01
     4
 # iter = 40500  time[fs]=40.50000
   C -0.313621727E+01 -0.195699605E+00  0.977420805E-02
   C  0.304496189E+01 -0.366362417E-01 -0.782237696E-01
   H -0.169087720E+02  0.118504382E+01 -0.238731009E+00
   H  0.165117689E+02  0.701199552E+00  0.127412264E+01
     4
 # iter = 41000  time[fs]=41.00000
   C -0.321714726E+01 -0.200744139E+00  0.102029560E-01
   C  0.312300847E+01 -0.376553236E-01 -0.809447719E-01
   H -0.173035630E+02  0.121292542E+01 -0.244591868E+00
   H  0.168918959E+02  0.716825139E+00  0.130333927E+01
     4
 # iter = 41500  time[fs]=41.50000
   C -0.329840168E+01 -0.205801543E+00  0.106355441E-01
   C  0.320137370E+01 -0.386693525E-01 -0.836747756E-01
   H -0.176989267E+02  0.124085023E+01 -0.250465630E+00
   H  0.172726409E+02  0.732477416E+00  0.133260683E+01
     4
 # iter = 42000  time[fs]=42.00000
   C -0.337996425E+01 -0.210870783E+00  0.110722578E-01
   C  0.328004247E+01 -0.396780913E-01 -0.864129110E-01
   H -0.180948355E+02  0.126881897E+01 -0.256349164E+00
   H  0.176539798E+02  0.748157816E+00  0.136192575E+01
     4
 # iter = 42500  time[fs]=42.50000
   C -0.346181990E+01 -0.215950972E+00  0.115132812E-01
   C  0.335900062E+01 -0.406814109E-01 -0.891584562E-01
   H -0.184912640E+02  0.129683184E+01 -0.262240021E+00
   H  0.180358895E+02  0.763867194E+00  0.139129594E+01
     4
 # iter = 43000  time[fs]=43.00000
   C -0.354395489E+01 -0.221041628E+00  0.119584370E-01
   C  0.343823450E+01 -0.416795946E-01 -0.919111381E-01
   H -0.188881904E+02  0.132488694E+01 -0.268137985E+00
   H  0.184183464E+02  0.779604270E+00  0.142071523E+01
     4
 # iter = 43500  time[fs]=43.50000
   C -0.362635651E+01 -0.226142432E+00  0.124074253E-01
   C  0.351773123E+01 -0.426730611E-01 -0.946708528E-01
   H -0.192855951E+02  0.135298169E+01 -0.274043638E+00
   H  0.188013274E+02  0.795367051E+00  0.145018082E+01
     4
 # iter = 44000  time[fs]=44.00000
   C -0.370901280E+01 -0.231253007E+00  0.128600408E-01
   C  0.359747881E+01 -0.436621101E-01 -0.974374089E-01
   H -0.196834591E+02  0.138111415E+01 -0.279957060E+00
   H  0.191848110E+02  0.811154134E+00  0.147969049E+01
     4
 # iter = 44500  time[fs]=44.50000
   C -0.379191248E+01 -0.236372912E+00  0.133161788E-01
   C  0.367746616E+01 -0.446469178E-01 -0.100210520E+00
   H -0.200817640E+02  0.140928300E+01 -0.285877791E+00
   H  0.195687778E+02  0.826964730E+00  0.150924273E+01
     4
 # iter = 45000  time[fs]=45.00000
   C -0.387504492E+01 -0.241501718E+00  0.137757496E-01
   C  0.375768286E+01 -0.456276362E-01 -0.102989902E+00
   H -0.204804924E+02  0.143748709E+01 -0.291805331E+00
   H  0.199532096E+02  0.842798159E+00  0.153883615E+01
     4
 # iter = 45500  time[fs]=45.50000
   C -0.395840020E+01 -0.246639055E+00  0.142386386E-01
   C  0.383811911E+01 -0.466044417E-01 -0.105775322E+00
   H -0.208796282E+02  0.146572513E+01 -0.297739387E+00
   H  0.203380886E+02  0.858653604E+00  0.156846927E+01
     4
 # iter = 46000  time[fs]=46.00000
   C -0.404196900E+01 -0.251784589E+00  0.147047194E-01
   C  0.391876568E+01 -0.475775195E-01 -0.108566575E+00
   H -0.212791561E+02  0.149399581E+01 -0.303679782E+00
   H  0.207233984E+02  0.874530188E+00  0.159814059E+01
     4
 # iter = 46500  time[fs]=46.50000
   C -0.412574256E+01 -0.256938004E+00  0.151738746E-01
   C  0.399961388E+01 -0.485470401E-01 -0.111363466E+00
   H -0.216790616E+02  0.152229792E+01 -0.309626331E+00
   H  0.211091232E+02  0.890427101E+00  0.162784869E+01
     4
 # iter = 47000  time[fs]=47.00000
   C -0.420971260E+01 -0.262098993E+00  0.156459999E-01
   C  0.408065555E+01 -0.495131551E-01 -0.114165801E+00
   H -0.220793312E+02  0.155063033E+01 -0.315578816E+00
   H  0.214952480E+02  0.906343621E+00  0.165759230E+01
     4
 # iter = 47500  time[fs]=47.50000
   C -0.429387132E+01 -0.267267264E+00  0.161209983E-01
   C  0.416188298E+01 -0.504760042E-01 -0.116973391E+00
   H -0.224799518E+02  0.157899201E+01 -0.321537012E+00
   H  0.218817590E+02  0.922279074E+00  0.168737019E+01
     4
 # iter = 48000  time[fs]=48.00000
   C -0.437821137E+01 -0.272442545E+00  0.165987755E-01
   C  0.424328891E+01 -0.514357209E-01 -0.119786058E+00
   H -0.228809111E+02  0.160738195E+01 -0.327500721E+00
   H  0.222686426E+02  0.938232814E+00  0.171718122E+01
     4
 # iter = 48500  time[fs]=48.50000
   C -0.446272579E+01 -0.277624578E+00  0.170792400E-01
   C  0.432486647E+01 -0.523924327E-01 -0.122603636E+00
   H -0.232821975E+02  0.163579921E+01 -0.333469759E+00
   H  0.226558862E+02  0.954204218E+00  0.174702428E+01
     4
 # iter = 49000  time[fs]=49.00000
   C -0.454740800E+01 -0.282813118E+00  0.175623047E-01
   C  0.440660917E+01 -0.533462599E-01 -0.125425966E+00
   H -0.236837999E+02  0.166424286E+01 -0.339443954E+00
   H  0.230434777E+02  0.970192692E+00  0.177689830E+01
     4
 # iter = 49500  time[fs]=49.50000
   C -0.463225179E+01 -0.288007933E+00  0.180478865E-01
   C  0.448851086E+01 -0.542973157E-01 -0.128252895E+00
   H -0.240857078E+02  0.169271206E+01 -0.345423138E+00
   H  0.234314056E+02  0.986197674E+00  0.180680229E+01
     4
 # iter = 50000  time[fs]=50.00000
   C -0.471725127E+01 -0.293208805E+00  0.185359064E-01
   C  0.457056573E+01 -0.552457068E-01 -0.131084277E+00
   H -0.244879111E+02  0.172120597E+01 -0.351407151E+00
   H  0.238196590E+02  0.100221863E+01  0.183673529E+01
     4
 # iter = 50500  time[fs]=50.50000
   C -0.480240083E+01 -0.298415524E+00  0.190262887E-01
   C  0.465276825E+01 -0.561915342E-01 -0.133919974E+00
   H -0.248904004E+02  0.174972382E+01 -0.357395842E+00
   H  0.242082276E+02  0.101825506E+01  0.186669640E+01
     4
 # iter = 51000  time[fs]=51.00000
   C -0.488769519E+01 -0.303627891E+00  0.195189611E-01
   C  0.473511321E+01 -0.571348934E-01 -0.136759852E+00
   H -0.252931664E+02  0.177826486E+01 -0.363389064E+00
   H  0.245971013E+02  0.103430646E+01  0.189668474E+01
     4
 # iter = 51500  time[fs]=51.50000
   C -0.497312930E+01 -0.308845719E+00  0.200138542E-01
   C  0.481759562E+01 -0.580758752E-01 -0.139603786E+00
   H -0.256962006E+02  0.180682837E+01 -0.369386679E+00
   H  0.249862707E+02  0.105037239E+01  0.192669949E+01
     4
 # iter = 52000  time[fs]=52.00000
   C -0.505869838E+01 -0.314068828E+00  0.205109016E-01
   C  0.490021077E+01 -0.590145656E-01 -0.142451654E+00
   H -0.260994947E+02  0.183541367E+01 -0.375388556E+00
   H  0.253757268E+02  0.106645239E+01  0.195673986E+01
     4
 # iter = 52500  time[fs]=52.50000
   C -0.514439787E+01 -0.319297046E+00  0.210100398E-01
   C  0.498295417E+01 -0.599510460E-01 -0.145303339E+00
   H -0.265030407E+02  0.186402013E+01 -0.381394568E+00
   H  0.257654609E+02  0.108254604E+01  0.198680508E+01
     4
 # iter = 53000  time[fs]=53.00000
   C -0.523022345E+01 -0.324530211E+00  0.215112079E-01
   C  0.506582154E+01 -0.608853940E-01 -0.148158731E+00
   H -0.269068312E+02  0.189264710E+01 -0.387404594E+00
   H  0.261554648E+02  0.109865295E+01  0.201689444E+01
     4
 # iter = 53500  time[fs]=53.50000
   C -0.531617099E+01 -0.329768168E+00  0.220143475E-01
   C  0.514880881E+01 -0.618176832E-01 -0.151017723E+00
   H -0.273108589E+02  0.192129401E+01 -0.393418519E+00
   H  0.265457305E+02  0.111477272E+01  0.204700723E+01
     4
 # iter = 54000  time[fs]=54.00000
   C -0.540223656E+01 -0.335010768E+00  0.225194026E-01
   C  0.523191211E+01 -0.627479837E-01 -0.153880213E+00
   H -0.277151168E+02  0.194996027E+01 -0.399436231E+00
   H  0.269362506E+02  0.113090498E+01  0.207714280E+01
     4
 # iter = 54500  time[fs]=54.50000
   C -0.548841640E+01 -0.340257870E+00  0.230263194E-01
   C  0.531512774E+01 -0.636763620E-01 -0.156746102E+00
   H -0.281195985E+02  0.197864535E+01 -0.405457625E+00
   H  0.273270177E+02  0.114704938E+01  0.210730051E+01
     4
 # iter = 55000  time[fs]=55.00000
   C -0.557470694E+01 -0.345509338E+00  0.235350463E-01
   C  0.539845217E+01 -0.646028818E-01 -0.159615298E+00
   H -0.285242975E+02  0.200734872E+01 -0.411482599E+00
   H  0.277180249E+02  0.116320558E+01  0.213747975E+01
     4
 # iter = 55500  time[fs]=55.50000
   C -0.566110476E+01 -0.350765042E+00  0.240455338E-01
   C  0.548188202E+01 -0.655276034E-01 -0.162487709E+00
   H -0.289292079E+02  0.203606989E+01 -0.417511055E+00
   H  0.281092656E+02  0.117937325E+01  0.216767994E+01
     4
 # iter = 56000  time[fs]=56.00000
   C -0.574760658E+01 -0.356024860E+00  0.245577342E-01
   C  0.556541408E+01 -0.664505847E-01 -0.165363248E+00
   H -0.293343236E+02  0.206480835E+01 -0.423542899E+00
   H  0.285007334E+02  0.119555209E+01  0.219790050E+01
     4
 # iter = 56500  time[fs]=56.50000
   C -0.583420929E+01 -0.361288671E+00  0.250716016E-01
   C  0.564904527E+01 -0.673718807E-01 -0.168241834E+00
   H -0.297396393E+02  0.209356367E+01 -0.429578042E+00
   H  0.288924222E+02  0.121174179E+01  0.222814090E+01
     4
 # iter = 57000  time[fs]=57.00000
   C -0.592090989E+01 -0.366556364E+00  0.255870921E-01
   C  0.573277265E+01 -0.682915441E-01 -0.171123385E+00
   H -0.301451494E+02  0.212233539E+01 -0.435616397E+00
   H  0.292843260E+02  0.122794206E+01  0.225840063E+01
     4
 # iter = 57500  time[fs]=57.50000
   C -0.600770553E+01 -0.371827827E+00  0.261041633E-01
   C  0.581659338E+01 -0.692096251E-01 -0.174007824E+00
   H -0.305508489E+02  0.215112308E+01 -0.441657881E+00
   H  0.296764392E+02  0.124415262E+01  0.228867918E+01
     4
 # iter = 58000  time[fs]=58.00000
   C -0.609459346E+01 -0.377102958E+00  0.266227743E-01
   C  0.590050478E+01 -0.701261719E-01 -0.176895078E+00
   H -0.309567329E+02  0.217992633E+01 -0.447702414E+00
   H  0.300687563E+02  0.126037322E+01  0.231897607E+01
     4
 # iter = 58500  time[fs]=58.50000
   C -0.618157105E+01 -0.382381656E+00  0.271428858E-01
   C  0.598450425E+01 -0.710412303E-01 -0.179785075E+00
   H -0.313627964E+02  0.220874476E+01 -0.453749919E+00
   H  0.304612722E+02  0.127660358E+01  0.234929083E+01
     4
 # iter = 59000  time[fs]=59.00000
   C -0.626863579E+01 -0.387663824E+00  0.276644601E-01
   C  0.606858931E+01 -0.719548444E-01 -0.182677745E+00
   H -0.317690350E+02  0.223757797E+01 -0.459800322E+00
   H  0.308539818E+02  0.129284348E+01  0.237962304E+01
     4
 # iter = 59500  time[fs]=59.50000
   C -0.635578526E+01 -0.392949371E+00  0.281874606E-01
   C  0.615275759E+01 -0.728670564E-01 -0.185573024E+00
   H -0.321754442E+02  0.226642561E+01 -0.465853552E+00
   H  0.312468802E+02  0.130909266E+01  0.240997225E+01
     4
 # iter = 60000  time[fs]=60.00000
   C -0.644301713E+01 -0.398238207E+00  0.287118521E-01
   C  0.623700678E+01 -0.737779068E-01 -0.188470846E+00
   H -0.325820199E+02  0.229528732E+01 -0.471909539E+00
   H  0.316399628E+02  0.132535091E+01  0.244033805E+01
     4
 # iter = 60500  time[fs]=60.50000
   C -0.653032919E+01 -0.403530246E+00  0.292376007E-01
   C  0.632133471E+01 -0.746874341E-01 -0.191371151E+00
   H -0.329887578E+02  0.232416276E+01 -0.477968218E+00
   H  0.320332251E+02  0.134161799E+01  0.247072005E+01
     4
 # iter = 61000  time[fs]=61.00000
   C -0.661771928E+01 -0.408825407E+00  0.297646737E-01
   C  0.640573927E+01 -0.755956757E-01 -0.194273878E+00
   H -0.333956541E+02  0.235305160E+01 -0.484029525E+00
   H  0.324266627E+02  0.135789371E+01  0.250111785E+01
     4
 # iter = 61500  time[fs]=61.50000
   C -0.670518534E+01 -0.414123611E+00  0.302930395E-01
   C  0.649021841E+01 -0.765026672E-01 -0.197178971E+00
   H -0.338027049E+02  0.238195353E+01 -0.490093397E+00
   H  0.328202714E+02  0.137417784E+01  0.253153110E+01
     4
 # iter = 62000  time[fs]=62.00000
   C -0.679272541E+01 -0.419424780E+00  0.308226675E-01
   C  0.657477020E+01 -0.774084429E-01 -0.200086374E+00
   H -0.342099066E+02  0.241086823E+01 -0.496159776E+00
   H  0.332140472E+02  0.139047020E+01  0.256195942E+01
     4
 # iter = 62500  time[fs]=62.50000
   C -0.688033756E+01 -0.424728843E+00  0.313535283E-01
   C  0.665939277E+01 -0.783130356E-01 -0.202996034E+00
   H -0.346172557E+02  0.243979542E+01 -0.502228604E+00
   H  0.336079863E+02  0.140677059E+01  0.259240248E+01
     4
 # iter = 63000  time[fs]=63.00000
   C -0.696801997E+01 -0.430035727E+00  0.318855934E-01
   C  0.674408429E+01 -0.792164771E-01 -0.205907899E+00
   H -0.350247486E+02  0.246873482E+01 -0.508299824E+00
   H  0.340020847E+02  0.142307883E+01  0.262285994E+01
     4
 # iter = 63500  time[fs]=63.50000
   C -0.705577087E+01 -0.435345366E+00  0.324188352E-01
   C  0.682884304E+01 -0.801187976E-01 -0.208821918E+00
   H -0.354323822E+02  0.249768613E+01 -0.514373384E+00
   H  0.343963390E+02  0.143939474E+01  0.265333147E+01
     4
 # iter = 64000  time[fs]=64.00000
   C -0.714358856E+01 -0.440657692E+00  0.329532273E-01
   C  0.691366734E+01 -0.810200266E-01 -0.211738044E+00
   H -0.358401532E+02  0.252664911E+01 -0.520449232E+00
   H  0.347907456E+02  0.145571815E+01  0.268381677E+01
     4
 # iter = 64500  time[fs]=64.50000
   C -0.723147140E+01 -0.445972643E+00  0.334887437E-01
   C  0.699855557E+01 -0.819201922E-01 -0.214656230E+00
   H -0.362480586E+02  0.255562348E+01 -0.526527317E+00
   H  0.351853010E+02  0.147204889E+01  0.271431554E+01
     4
 # iter = 65000  time[fs]=65.00000
   C -0.731941780E+01 -0.451290156E+00  0.340253596E-01
   C  0.708350618E+01 -0.828193215E-01 -0.217576431E+00
   H -0.366560953E+02  0.258460901E+01 -0.532607591E+00
   H  0.355800020E+02  0.148838680E+01  0.274482747E+01
     4
 # iter = 65500  time[fs]=65.50000
   C -0.740742623E+01 -0.456610174E+00  0.345630509E-01
   C  0.716851767E+01 -0.837174407E-01 -0.220498602E+00
   H -0.370642604E+02  0.261360545E+01 -0.538690006E+00
   H  0.359748454E+02  0.150473172E+01  0.277535229E+01
     4
 # iter = 66000  time[fs]=66.00000
   C -0.749549523E+01 -0.461932639E+00  0.351017942E-01
   C  0.725358858E+01 -0.846145748E-01 -0.223422702E+00
   H -0.374725513E+02  0.264261257E+01 -0.544774517E+00
   H  0.363698282E+02  0.152108351E+01  0.280588973E+01
     4
 # iter = 66500  time[fs]=66.50000
   C -0.758362337E+01 -0.467257495E+00  0.356415669E-01
   C  0.733871751E+01 -0.855107484E-01 -0.226348689E+00
   H -0.378809651E+02  0.267163014E+01 -0.550861081E+00
   H  0.367649473E+02  0.153744201E+01  0.283643951E+01
     4
 # iter = 67000  time[fs]=67.00000
   C -0.767180927E+01 -0.472584688E+00  0.361823472E-01
   C  0.742390312E+01 -0.864059847E-01 -0.229276524E+00
   H -0.382894993E+02  0.270065795E+01 -0.556949653E+00
   H  0.371601999E+02  0.155380709E+01  0.286700138E+01
     4
 # iter = 67500  time[fs]=67.50000
   C -0.776005161E+01 -0.477914168E+00  0.367241137E-01
   C  0.750914410E+01 -0.873003063E-01 -0.232206168E+00
   H -0.386981513E+02  0.272969577E+01 -0.563040193E+00
   H  0.375555831E+02  0.157017860E+01  0.289757509E+01
     4
 # iter = 68000  time[fs]=68.00000
   C -0.784834911E+01 -0.483245885E+00  0.372668459E-01
   C  0.759443918E+01 -0.881937351E-01 -0.235137583E+00
   H -0.391069186E+02  0.275874341E+01 -0.569132661E+00
   H  0.379510943E+02  0.158655642E+01  0.292816040E+01
     4
 # iter = 68500  time[fs]=68.50000
   C -0.793670051E+01 -0.488579789E+00  0.378105238E-01
   C  0.767978715E+01 -0.890862921E-01 -0.238070734E+00
   H -0.395157990E+02  0.278780067E+01 -0.575227018E+00
   H  0.383467308E+02  0.160294042E+01  0.295875708E+01
     4
 # iter = 69000  time[fs]=69.00000
   C -0.802510464E+01 -0.493915834E+00  0.383551281E-01
   C  0.776518682E+01 -0.899779978E-01 -0.241005585E+00
   H -0.399247900E+02  0.281686735E+01 -0.581323226E+00
   H  0.387424901E+02  0.161933046E+01  0.298936489E+01
     4
 # iter = 69500  time[fs]=69.50000
   C -0.811356031E+01 -0.499253974E+00  0.389006400E-01
   C  0.785063706E+01 -0.908688717E-01 -0.243942103E+00
   H -0.403338895E+02  0.284594327E+01 -0.587421247E+00
   H  0.391383697E+02  0.163572644E+01  0.301998362E+01
     4
 # iter = 70000  time[fs]=70.00000
   C -0.820206641E+01 -0.504594166E+00  0.394470413E-01
   C  0.793613675E+01 -0.917589328E-01 -0.246880253E+00
   H -0.407430952E+02  0.287502823E+01 -0.593521048E+00
   H  0.395343672E+02  0.165212823E+01  0.305061306E+01
     4
 # iter = 70500  time[fs]=70.50000
   C -0.829062185E+01 -0.509936366E+00  0.399943143E-01
   C  0.802168483E+01 -0.926481996E-01 -0.249820004E+00
   H -0.411524051E+02  0.290412208E+01 -0.599622592E+00
   H  0.399304803E+02  0.166853571E+01  0.308125298E+01
     4
 # iter = 71000  time[fs]=71.00000
   C -0.837922557E+01 -0.515280534E+00  0.405424418E-01
   C  0.810728026E+01 -0.935366899E-01 -0.252761325E+00
   H -0.415618171E+02  0.293322463E+01 -0.605725847E+00
   H  0.403267067E+02  0.168494878E+01  0.311190320E+01
     4
 # iter = 71500  time[fs]=71.50000
   C -0.846787656E+01 -0.520626630E+00  0.410914070E-01
   C  0.819292203E+01 -0.944244208E-01 -0.255704185E+00
   H -0.419713292E+02  0.296233571E+01 -0.611830780E+00
   H  0.407230442E+02  0.170136733E+01  0.314256352E+01
     4
 # iter = 72000  time[fs]=72.00000
   C -0.855657382E+01 -0.525974614E+00  0.416411939E-01
   C  0.827860918E+01 -0.953114089E-01 -0.258648555E+00
   H -0.423809395E+02  0.299145517E+01 -0.617937359E+00
   H  0.411194907E+02  0.171779126E+01  0.317323374E+01
     4
 # iter = 72500  time[fs]=72.50000
   C -0.864531639E+01 -0.531324448E+00  0.421917866E-01
   C  0.836434077E+01 -0.961976705E-01 -0.261594406E+00
   H -0.427906461E+02  0.302058285E+01 -0.624045553E+00
   H  0.415160441E+02  0.173422045E+01  0.320391368E+01
     4
 # iter = 73000  time[fs]=73.00000
   C -0.873410335E+01 -0.536676097E+00  0.427431699E-01
   C  0.845011586E+01 -0.970832212E-01 -0.264541710E+00
   H -0.432004473E+02  0.304971860E+01 -0.630155333E+00
   H  0.419127024E+02  0.175065482E+01  0.323460315E+01
     4
 # iter = 73500  time[fs]=73.50000
   C -0.882293379E+01 -0.542029525E+00  0.432953288E-01
   C  0.853593359E+01 -0.979680760E-01 -0.267490441E+00
   H -0.436103411E+02  0.307886226E+01 -0.636266669E+00
   H  0.423094636E+02  0.176709427E+01  0.326530200E+01
     4
 # iter = 74000  time[fs]=74.00000
   C -0.891180683E+01 -0.547384696E+00  0.438482488E-01
   C  0.862179308E+01 -0.988522497E-01 -0.270440572E+00
   H -0.440203260E+02  0.310801369E+01 -0.642379533E+00
   H  0.427063259E+02  0.178353870E+01  0.329601003E+01
     4
 # iter = 74500  time[fs]=74.50000
   C -0.900072162E+01 -0.552741578E+00  0.444019159E-01
   C  0.870769351E+01 -0.997357565E-01 -0.273392076E+00
   H -0.444304001E+02  0.313717275E+01 -0.648493898E+00
   H  0.431032874E+02  0.179998802E+01  0.332672709E+01
     4
 # iter = 75000  time[fs]=75.00000
   C -0.908967735E+01 -0.558100138E+00  0.449563164E-01
   C  0.879363406E+01 -0.100618610E+00 -0.276344931E+00
   H -0.448405620E+02  0.316633931E+01 -0.654609735E+00
   H  0.435003462E+02  0.181644215E+01  0.335745302E+01
     4
 # iter = 75500  time[fs]=75.50000
   C -0.917867320E+01 -0.563460344E+00  0.455114369E-01
   C  0.887961394E+01 -0.101500824E+00 -0.279299110E+00
   H -0.452508100E+02  0.319551322E+01 -0.660727021E+00
   H  0.438975007E+02  0.183290099E+01  0.338818765E+01
     4
 # iter = 76000  time[fs]=76.00000
   C -0.926770840E+01 -0.568822165E+00  0.460672645E-01
   C  0.896563239E+01 -0.102382411E+00 -0.282254591E+00
   H -0.456611425E+02  0.322469437E+01 -0.666845728E+00
   H  0.442947491E+02  0.184936447E+01  0.341893085E+01
     4
 # iter = 76500  time[fs]=76.50000
   C -0.935678219E+01 -0.574185572E+00  0.466237865E-01
   C  0.905168867E+01 -0.103263384E+00 -0.285211350E+00
   H -0.460715582E+02  0.325388262E+01 -0.672965833E+00
   H  0.446920897E+02  0.186583250E+01  0.344968244E+01
     4
 # iter = 77000  time[fs]=77.00000
   C -0.944589383E+01 -0.579550535E+00  0.471809905E-01
   C  0.913778205E+01 -0.104143755E+00 -0.288169365E+00
   H -0.464820554E+02  0.328307784E+01 -0.679087310E+00
   H  0.450895209E+02  0.188230500E+01  0.348044230E+01
     4
 # iter = 77500  time[fs]=77.50000
   C -0.953504262E+01 -0.584917026E+00  0.477388647E-01
   C  0.922391183E+01 -0.105023536E+00 -0.291128615E+00
   H -0.468926328E+02  0.331227993E+01 -0.685210137E+00
   H  0.454870413E+02  0.189878190E+01  0.351121027E+01
     4
 # iter = 78000  time[fs]=78.00000
   C -0.962422786E+01 -0.590285018E+00  0.482973973E-01
   C  0.931007734E+01 -0.105902738E+00 -0.294089077E+00
   H -0.473032889E+02  0.334148876E+01 -0.691334291E+00
   H  0.458846491E+02  0.191526312E+01  0.354198623E+01
     4
 # iter = 78500  time[fs]=78.50000
   C -0.971344886E+01 -0.595654482E+00  0.488565770E-01
   C  0.939627789E+01 -0.106781373E+00 -0.297050732E+00
   H -0.477140226E+02  0.337070422E+01 -0.697459749E+00
   H  0.462823430E+02  0.193174858E+01  0.357277003E+01
     4
 # iter = 79000  time[fs]=79.00000
   C -0.980270498E+01 -0.601025395E+00  0.494163926E-01
   C  0.948251286E+01 -0.107659452E+00 -0.300013558E+00
   H -0.481248323E+02  0.339992619E+01 -0.703586489E+00
   H  0.466801214E+02  0.194823822E+01  0.360356154E+01
     4
 # iter = 79500  time[fs]=79.50000
   C -0.989199557E+01 -0.606397729E+00  0.499768333E-01
   C  0.956878160E+01 -0.108536985E+00 -0.302977537E+00
   H -0.485357169E+02  0.342915457E+01 -0.709714491E+00
   H  0.470779830E+02  0.196473196E+01  0.363436065E+01
     4
 # iter = 80000  time[fs]=80.00000
   C -0.998132001E+01 -0.611771460E+00  0.505378887E-01
   C  0.965508352E+01 -0.109413982E+00 -0.305942649E+00
   H -0.489466750E+02  0.345838926E+01 -0.715843733E+00
   H  0.474759263E+02  0.198122974E+01  0.366516721E+01
