     4
 # iter = 25000  time[fs]=25.00000
   C -0.101002234E+01 -0.159451550E-01 -0.450674938E-01
   C  0.971846256E+00 -0.374012351E-01 -0.212832591E-01
   H -0.521895790E+01 -0.563332161E+00  0.584465884E+00
   H  0.527626384E+01  0.604875664E+00 -0.339903876E+00
     4
 # iter = 25500  time[fs]=25.50000
   C -0.105940920E+01 -0.154856475E-01 -0.497085697E-01
   C  0.101303913E+01 -0.409905683E-01 -0.217824513E-01
   H -0.555993895E+01 -0.605382066E+00  0.614361882E+00
   H  0.558145050E+01  0.637148385E+00 -0.370523996E+00
     4
 # iter = 26000  time[fs]=26.00000
   C -0.111284086E+01 -0.160591691E-01 -0.555316261E-01
   C  0.105636664E+01 -0.454994774E-01 -0.230868559E-01
   H -0.591203814E+01 -0.653511366E+00  0.639606791E+00
   H  0.588642662E+01  0.664681174E+00 -0.406897298E+00
     4
 # iter = 26500  time[fs]=26.50000
   C -0.116679646E+01 -0.143956514E-01 -0.592583396E-01
   C  0.110411461E+01 -0.483806048E-01 -0.226514076E-01
   H -0.625849872E+01 -0.691558632E+00  0.676190619E+00
   H  0.620675094E+01  0.703498951E+00 -0.432898995E+00
     4
 # iter = 27000  time[fs]=27.00000
   C -0.122088314E+01 -0.103358645E-01 -0.607219526E-01
   C  0.115617158E+01 -0.495058834E-01 -0.203514626E-01
   H -0.659797233E+01 -0.718662450E+00  0.724835656E+00
   H  0.654274325E+01  0.754337991E+00 -0.447702940E+00
     4
 # iter = 27500  time[fs]=27.50000
   C -0.127732313E+01 -0.631733942E-02 -0.623530488E-01
   C  0.121042850E+01 -0.507667386E-01 -0.180826649E-01
   H -0.694196881E+01 -0.746733720E+00  0.773517174E+00
   H  0.688200376E+01  0.805171584E+00 -0.463254761E+00
     4
 # iter = 28000  time[fs]=28.00000
   C -0.133764487E+01 -0.406558120E-02 -0.658703081E-01
   C  0.126534882E+01 -0.535006357E-01 -0.171870043E-01
   H -0.729856137E+01 -0.784191594E+00  0.813718264E+00
   H  0.721569319E+01  0.847482084E+00 -0.488001954E+00
     4
 # iter = 28500  time[fs]=28.50000
   C -0.140097552E+01 -0.288723611E-02 -0.705735163E-01
   C  0.132129385E+01 -0.571637061E-01 -0.171251733E-01
   H -0.766397876E+01 -0.827572709E+00  0.848815509E+00
   H  0.754692577E+01  0.884654830E+00 -0.518499991E+00
     4
 # iter = 29000  time[fs]=29.00000
   C -0.146544719E+01 -0.107728393E-02 -0.747509579E-01
   C  0.137942815E+01 -0.604252549E-01 -0.165710400E-01
   H -0.802951880E+01 -0.868446839E+00  0.887162642E+00
   H  0.788383470E+01  0.925055718E+00 -0.546332073E+00
     4
 # iter = 29500  time[fs]=29.50000
   C -0.153032554E+01  0.195135791E-02 -0.778092542E-01
   C  0.144006335E+01 -0.628240204E-01 -0.150679223E-01
   H -0.839201619E+01 -0.903883957E+00  0.931623659E+00
   H  0.822908397E+01  0.971555441E+00 -0.568582072E+00
     4
 # iter = 30000  time[fs]=30.00000
   C -0.159630725E+01  0.536912005E-02 -0.805721264E-01
   C  0.150242460E+01 -0.650005455E-01 -0.132609037E-01
   H -0.875530587E+01 -0.937921947E+00  0.978103853E+00
   H  0.857839296E+01  0.102005947E+01 -0.589303383E+00
     4
 # iter = 30500  time[fs]=30.50000
   C -0.166419733E+01  0.825107640E-02 -0.839590144E-01
   C  0.156567606E+01 -0.676697289E-01 -0.118692843E-01
   H -0.912372007E+01 -0.975071161E+00  0.102204305E+01
   H  0.892703479E+01  0.106600670E+01 -0.613020314E+00
     4
 # iter = 31000  time[fs]=31.00000
   C -0.173390273E+01  0.105820509E-01 -0.879798995E-01
   C  0.162970072E+01 -0.708392468E-01 -0.109049342E-01
   H -0.949714126E+01 -0.101537329E+01  0.106335505E+01
   H  0.927477921E+01  0.110931295E+01 -0.639784541E+00
     4
 # iter = 31500  time[fs]=31.50000
   C -0.180472619E+01  0.129615798E-01 -0.920303457E-01
   C  0.169486986E+01 -0.740389755E-01 -0.990170214E-02
   H -0.987244955E+01 -0.105585130E+01  0.110497692E+01
   H  0.962443818E+01  0.115291929E+01 -0.666626161E+00
     4
 # iter = 32000  time[fs]=32.00000
   C -0.187620847E+01  0.157606431E-01 -0.957347987E-01
   C  0.176138643E+01 -0.769767124E-01 -0.857114903E-02
   H -0.102476666E+02 -0.109465442E+01  0.114872380E+01
   H  0.997771397E+01  0.119864380E+01 -0.691701170E+00
     4
 # iter = 32500  time[fs]=32.50000
   C -0.194842977E+01  0.188192445E-01 -0.992490100E-01
   C  0.182904901E+01 -0.797733406E-01 -0.703771868E-02
   H -0.106234406E+02 -0.113254439E+01  0.119380216E+01
   H  0.103337091E+02  0.124569376E+01 -0.715778743E+00
     4
 # iter = 33000  time[fs]=33.00000
   C -0.202164561E+01  0.218096188E-01 -0.102896801E+00
   C  0.189753324E+01 -0.826804137E-01 -0.555631952E-02
   H -0.110012582E+02 -0.117110978E+01  0.123859496E+01
   H  0.106907115E+02  0.129245203E+01 -0.740454583E+00
     4
 # iter = 33500  time[fs]=33.50000
   C -0.209588760E+01  0.246346655E-01 -0.106771598E+00
   C  0.196670066E+01 -0.857703439E-01 -0.420250993E-02
   H -0.113814840E+02 -0.121080715E+01  0.128261988E+01
   H  0.110481538E+02  0.133843687E+01 -0.766191047E+00
     4
 # iter = 34000  time[fs]=34.00000
   C -0.217095872E+01  0.274319116E-01 -0.110732446E+00
   C  0.203660113E+01 -0.889333063E-01 -0.286940956E-02
   H -0.117633394E+02 -0.125094141E+01  0.132654865E+01
   H  0.114066314E+02  0.138432124E+01 -0.792297575E+00
     4
 # iter = 34500  time[fs]=34.50000
   C -0.224667036E+01  0.303358891E-01 -0.114641623E+00
   C  0.210728742E+01 -0.920619868E-01 -0.145246019E-02
   H -0.121460696E+02 -0.129083371E+01  0.137103885E+01
   H  0.117667325E+02  0.143076384E+01 -0.818099419E+00
     4
 # iter = 35000  time[fs]=35.00000
   C -0.232297682E+01  0.333430161E-01 -0.118499747E+00
   C  0.217870962E+01 -0.951566331E-01  0.455110220E-04
   H -0.125296072E+02 -0.133048558E+01  0.141606962E+01
   H  0.121283726E+02  0.147774438E+01 -0.843602164E+00
     4
 # iter = 35500  time[fs]=35.50000
   C -0.239991215E+01  0.363742766E-01 -0.122383073E+00
   C  0.225076337E+01 -0.982763109E-01  0.156302501E-02
   H -0.129142629E+02 -0.137027060E+01  0.146124973E+01
   H  0.124911016E+02  0.152487187E+01 -0.869183316E+00
     4
 # iter = 36000  time[fs]=36.00000
   C -0.247747874E+01  0.393861768E-01 -0.126332529E+00
   C  0.232337568E+01 -0.101452623E+00  0.306622248E-02
   H -0.133001795E+02 -0.141038889E+01  0.150636293E+01
   H  0.128546496E+02  0.157193031E+01 -0.895046450E+00
     4
 # iter = 36500  time[fs]=36.50000
   C -0.255562157E+01  0.423961104E-01 -0.130328326E+00
   C  0.239652425E+01 -0.104669974E+00  0.456858791E-02
   H -0.136872058E+02 -0.145074226E+01  0.155149258E+01
   H  0.132190507E+02  0.161900347E+01 -0.921096375E+00
     4
 # iter = 37000  time[fs]=37.00000
   C -0.263427465E+01  0.454355316E-01 -0.134336778E+00
   C  0.247020070E+01 -0.107901970E+00  0.609454082E-02
   H -0.140751271E+02 -0.149116434E+01  0.159679138E+01
   H  0.135844124E+02  0.166624448E+01 -0.947169419E+00
     4
 # iter = 37500  time[fs]=37.50000
   C -0.271339924E+01  0.485114807E-01 -0.138348760E+00
   C  0.254438042E+01 -0.111141326E+00  0.764952131E-02
   H -0.144638533E+02 -0.153160964E+01  0.164229227E+01
   H  0.139507259E+02  0.171368657E+01 -0.973222620E+00
     4
 # iter = 38000  time[fs]=38.00000
   C -0.279297929E+01  0.516108172E-01 -0.142375469E+00
   C  0.261902549E+01 -0.114396559E+00  0.922328045E-02
   H -0.148533975E+02 -0.157213263E+01  0.168792914E+01
   H  0.143178862E+02  0.176126381E+01 -0.999312850E+00
     4
 # iter = 38500  time[fs]=38.50000
   C -0.287299928E+01  0.547221667E-01 -0.146426462E+00
   C  0.269410159E+01 -0.117674924E+00  0.108069446E-01
   H -0.152437683E+02 -0.161277983E+01  0.173364474E+01
   H  0.146858004E+02  0.180891912E+01 -0.102548881E+01
     4
 # iter = 39000  time[fs]=39.00000
   C -0.295343476E+01  0.578451327E-01 -0.150500436E+00
   C  0.276958493E+01 -0.120975237E+00  0.124001768E-01
   H -0.156349235E+02 -0.165354440E+01  0.177943592E+01
   H  0.150544319E+02  0.185664951E+01 -0.105174569E+01
     4
 # iter = 39500  time[fs]=39.50000
   C -0.303425831E+01  0.609841846E-01 -0.154591328E+00
   C  0.284545726E+01 -0.124292625E+00  0.140064253E-01
   H -0.160268002E+02 -0.169439621E+01  0.182532356E+01
   H  0.154237708E+02  0.190447605E+01 -0.107805516E+01
     4
 # iter = 40000  time[fs]=40.00000
   C -0.311544687E+01  0.641411049E-01 -0.158695865E+00
   C  0.292169990E+01 -0.127624389E+00  0.156270512E-01
   H -0.164193517E+02 -0.173531885E+01  0.187131546E+01
   H  0.157937960E+02  0.195240664E+01 -0.110440254E+01
     4
 # iter = 40500  time[fs]=40.50000
   C -0.319698253E+01  0.673140889E-01 -0.162814453E+00
   C  0.299829283E+01 -0.130970699E+00  0.172606277E-01
   H -0.168125512E+02 -0.177631405E+01  0.191740184E+01
   H  0.161644709E+02  0.200043164E+01 -0.113079115E+01
     4
 # iter = 41000  time[fs]=41.00000
   C -0.327884929E+01  0.705008010E-01 -0.166948113E+00
   C  0.307521697E+01 -0.134332211E+00  0.189053172E-01
   H -0.172063771E+02 -0.181738660E+01  0.196357041E+01
   H  0.165357582E+02  0.204853885E+01 -0.115722726E+01
     4
 # iter = 41500  time[fs]=41.50000
   C -0.336103108E+01  0.737002867E-01 -0.171096566E+00
   C  0.315245554E+01 -0.137708574E+00  0.205603567E-01
   H -0.176008032E+02 -0.185853492E+01  0.200981575E+01
   H  0.169076291E+02  0.209672291E+01 -0.118371067E+01
     4
 # iter = 42000  time[fs]=42.00000
   C -0.344351203E+01  0.769125384E-01 -0.175258659E+00
   C  0.322999360E+01 -0.141098768E+00  0.222257210E-01
   H -0.179958006E+02 -0.189975317E+01  0.205613714E+01
   H  0.172800608E+02  0.214498319E+01 -0.121023683E+01
     4
 # iter = 42500  time[fs]=42.50000
   C -0.352627746E+01  0.801374471E-01 -0.179433407E+00
   C  0.330781715E+01 -0.144501906E+00  0.239013071E-01
   H -0.183913426E+02 -0.194103635E+01  0.210253342E+01
   H  0.176530316E+02  0.219331860E+01 -0.123680194E+01
     4
 # iter = 43000  time[fs]=43.00000
   C -0.360931406E+01  0.833744850E-01 -0.183620309E+00
   C  0.338591281E+01 -0.147917487E+00  0.255866873E-01
   H -0.187874064E+02 -0.198238185E+01  0.214900142E+01
   H  0.180265191E+02  0.224172602E+01 -0.126340452E+01
     4
 # iter = 43500  time[fs]=43.50000
   C -0.369260957E+01  0.866229933E-01 -0.187819053E+00
   C  0.346426792E+01 -0.151345158E+00  0.272813335E-01
   H -0.191839713E+02 -0.202378802E+01  0.219553737E+01
   H  0.184005013E+02  0.229020173E+01 -0.129004395E+01
     4
 # iter = 44000  time[fs]=44.00000
   C -0.377615243E+01  0.898824463E-01 -0.192029247E+00
   C  0.354287074E+01 -0.154784512E+00  0.289848218E-01
   H -0.195810173E+02 -0.206525281E+01  0.224213820E+01
   H  0.187749580E+02  0.233874269E+01 -0.131671921E+01
     4
 # iter = 44500  time[fs]=44.50000
   C -0.385993168E+01  0.931524563E-01 -0.196250414E+00
   C  0.362171033E+01 -0.158235080E+00  0.306968361E-01
   H -0.199785252E+02 -0.210677378E+01  0.228880155E+01
   H  0.191498707E+02  0.238734658E+01 -0.134342875E+01
     4
 # iter = 45000  time[fs]=45.00000
   C -0.394393703E+01  0.964326688E-01 -0.200482088E+00
   C  0.370077647E+01 -0.161696407E+00  0.324170877E-01
   H -0.203764766E+02 -0.214834855E+01  0.233552524E+01
   H  0.195252222E+02  0.243601126E+01 -0.137017109E+01
     4
 # iter = 45500  time[fs]=45.50000
   C -0.402815886E+01  0.997227127E-01 -0.204723866E+00
   C  0.378005950E+01 -0.165168090E+00  0.341452752E-01
   H -0.207748547E+02 -0.218997507E+01  0.238230707E+01
   H  0.199009958E+02  0.248473453E+01 -0.139694499E+01
     4
 # iter = 46000  time[fs]=46.00000
   C -0.411258814E+01  0.103022215E+00 -0.208975387E+00
   C  0.385955034E+01 -0.168649764E+00  0.358810969E-01
   H -0.211736433E+02 -0.223165147E+01  0.242914482E+01
   H  0.202771758E+02  0.253351423E+01 -0.142374935E+01
     4
 # iter = 46500  time[fs]=46.50000
   C -0.419721638E+01  0.106330827E+00 -0.213236305E+00
   C  0.393924046E+01 -0.172141079E+00  0.376242695E-01
   H -0.215728274E+02 -0.227337599E+01  0.247603644E+01
   H  0.206537474E+02  0.258234829E+01 -0.145058316E+01
     4
 # iter = 47000  time[fs]=47.00000
   C -0.428203557E+01  0.109648225E+00 -0.217506283E+00
   C  0.401912181E+01 -0.175641696E+00  0.393745314E-01
   H -0.219723925E+02 -0.231514690E+01  0.252298000E+01
   H  0.210306963E+02  0.263123482E+01 -0.147744539E+01
     4
 # iter = 47500  time[fs]=47.50000
   C -0.436703813E+01  0.112974106E+00 -0.221784997E+00
   C  0.409918682E+01 -0.179151289E+00  0.411316362E-01
   H -0.223723252E+02 -0.235696258E+01  0.256997371E+01
   H  0.214080094E+02  0.268017204E+01 -0.150433504E+01
     4
 # iter = 48000  time[fs]=48.00000
   C -0.445221693E+01  0.116308179E+00 -0.226072145E+00
   C  0.417942833E+01 -0.182669552E+00  0.428953484E-01
   H -0.227726123E+02 -0.239882146E+01  0.261701585E+01
   H  0.217856741E+02  0.272915824E+01 -0.153125118E+01
     4
 # iter = 48500  time[fs]=48.50000
   C -0.453756524E+01  0.119650165E+00 -0.230367437E+00
   C  0.425983958E+01 -0.186196195E+00  0.446654425E-01
   H -0.231732418E+02 -0.244072208E+01  0.266410479E+01
   H  0.221636782E+02  0.277819178E+01 -0.155819295E+01
     4
 # iter = 49000  time[fs]=49.00000
   C -0.462307667E+01  0.122999800E+00 -0.234670600E+00
   C  0.434041417E+01 -0.189730940E+00  0.464417039E-01
   H -0.235742020E+02 -0.248266306E+01  0.271123896E+01
   H  0.225420104E+02  0.282727112E+01 -0.158515950E+01
     4
 # iter = 49500  time[fs]=49.50000
   C -0.470874519E+01  0.126356832E+00 -0.238981374E+00
   C  0.442114605E+01 -0.193273524E+00  0.482239287E-01
   H -0.239754819E+02 -0.252464307E+01  0.275841689E+01
   H  0.229206598E+02  0.287639478E+01 -0.161215005E+01
     4
 # iter = 50000  time[fs]=50.00000
   C -0.479456509E+01  0.129721021E+00 -0.243299511E+00
   C  0.450202950E+01 -0.196823693E+00  0.500119228E-01
   H -0.243770709E+02 -0.256666085E+01  0.280563716E+01
   H  0.232996162E+02  0.292556135E+01 -0.163916383E+01
     4
 # iter = 50500  time[fs]=50.50000
   C -0.488053094E+01  0.133092139E+00 -0.247624772E+00
   C  0.458305907E+01 -0.200381209E+00  0.518055010E-01
   H -0.247789590E+02 -0.260871519E+01  0.285289843E+01
   H  0.236788696E+02  0.297476949E+01 -0.166620011E+01
     4
 # iter = 51000  time[fs]=51.00000
   C -0.496663761E+01  0.136469968E+00 -0.251956933E+00
   C  0.466422961E+01 -0.203945841E+00  0.536044866E-01
   H -0.251811367E+02 -0.265080495E+01  0.290019943E+01
   H  0.240584107E+02  0.302401793E+01 -0.169325822E+01
     4
 # iter = 51500  time[fs]=51.50000
   C -0.505288019E+01  0.139854298E+00 -0.256295777E+00
   C  0.474553622E+01 -0.207517370E+00  0.554087109E-01
   H -0.255835949E+02 -0.269292905E+01  0.294753892E+01
   H  0.244382305E+02  0.307330544E+01 -0.172033749E+01
     4
 # iter = 52000  time[fs]=52.00000
   C -0.513925405E+01  0.143244931E+00 -0.260641099E+00
   C  0.482697424E+01 -0.211095587E+00  0.572180125E-01
   H -0.259863250E+02 -0.273508642E+01  0.299491575E+01
   H  0.248183205E+02  0.312263086E+01 -0.174743729E+01
     4
 # iter = 52500  time[fs]=52.50000
   C -0.522575478E+01  0.146641676E+00 -0.264992702E+00
   C  0.490853925E+01 -0.214680291E+00  0.590322376E-01
   H -0.263893186E+02 -0.277727608E+01  0.304232880E+01
   H  0.251986726E+02  0.317199307E+01 -0.177455702E+01
     4
 # iter = 53000  time[fs]=53.00000
   C -0.531237817E+01  0.150044352E+00 -0.269350398E+00
   C  0.499022704E+01 -0.218271291E+00  0.608512387E-01
   H -0.267925678E+02 -0.281949708E+01  0.308977700E+01
   H  0.255792789E+02  0.322139099E+01 -0.180169609E+01
     4
 # iter = 53500  time[fs]=53.50000
   C -0.539912020E+01  0.153452783E+00 -0.273714006E+00
   C  0.507203359E+01 -0.221868404E+00  0.626748748E-01
   H -0.271960650E+02 -0.286174850E+01  0.313725933E+01
   H  0.259601319E+02  0.327082361E+01 -0.182885397E+01
     4
 # iter = 54000  time[fs]=54.00000
   C -0.548597708E+01  0.156866803E+00 -0.278083356E+00
   C  0.515395507E+01 -0.225471452E+00  0.645030108E-01
   H -0.275998031E+02 -0.290402947E+01  0.318477482E+01
   H  0.263412246E+02  0.332028995E+01 -0.185603011E+01
     4
 # iter = 54500  time[fs]=54.50000
   C -0.557294514E+01  0.160286253E+00 -0.282458280E+00
   C  0.523598783E+01 -0.229080268E+00  0.663355174E-01
   H -0.280037751E+02 -0.294633915E+01  0.323232252E+01
   H  0.267225501E+02  0.336978906E+01 -0.188322402E+01
     4
 # iter = 55000  time[fs]=55.00000
   C -0.566002093E+01  0.163710978E+00 -0.286838622E+00
   C  0.531812840E+01 -0.232694690E+00  0.681722706E-01
   H -0.284079744E+02 -0.298867674E+01  0.327990155E+01
   H  0.271041018E+02  0.341932005E+01 -0.191043519E+01
     4
 # iter = 55500  time[fs]=55.50000
   C -0.574720111E+01  0.167140831E+00 -0.291224230E+00
   C  0.540037345E+01 -0.236314563E+00  0.700131514E-01
   H -0.288123945E+02 -0.303104148E+01  0.332751105E+01
   H  0.274858735E+02  0.346888205E+01 -0.193766318E+01
     4
 # iter = 56000  time[fs]=56.00000
   C -0.583448252E+01  0.170575672E+00 -0.295614958E+00
   C  0.548271979E+01 -0.239939738E+00  0.718580456E-01
   H -0.292170294E+02 -0.307343262E+01  0.337515018E+01
   H  0.278678591E+02  0.351847423E+01 -0.196490752E+01
     4
 # iter = 56500  time[fs]=56.50000
   C -0.592186211E+01  0.174015364E+00 -0.300010665E+00
   C  0.556516439E+01 -0.243570071E+00  0.737068438E-01
   H -0.296218732E+02 -0.311584946E+01  0.342281815E+01
   H  0.282500528E+02  0.356809580E+01 -0.199216779E+01
     4
 # iter = 57000  time[fs]=57.00000
   C -0.600933700E+01  0.177459778E+00 -0.304411219E+00
   C  0.564770434E+01 -0.247205426E+00  0.755594406E-01
   H -0.300269203E+02 -0.315829131E+01  0.347051421E+01
   H  0.286324491E+02  0.361774598E+01 -0.201944358E+01
     4
 # iter = 57500  time[fs]=57.50000
   C -0.609690439E+01  0.180908788E+00 -0.308816491E+00
   C  0.573033685E+01 -0.250845671E+00  0.774157348E-01
   H -0.304321654E+02 -0.320075753E+01  0.351823762E+01
   H  0.290150426E+02  0.366742404E+01 -0.204673448E+01
     4
 # iter = 58000  time[fs]=58.00000
   C -0.618456163E+01  0.184362275E+00 -0.313226355E+00
   C  0.581305926E+01 -0.254490677E+00  0.792756294E-01
   H -0.308376031E+02 -0.324324748E+01  0.356598768E+01
   H  0.293978282E+02  0.371712927E+01 -0.207404011E+01
     4
 # iter = 58500  time[fs]=58.50000
   C -0.627230616E+01  0.187820121E+00 -0.317640694E+00
   C  0.589586900E+01 -0.258140324E+00  0.811390306E-01
   H -0.312432286E+02 -0.328576057E+01  0.361376370E+01
   H  0.297808010E+02  0.376686098E+01 -0.210136010E+01
     4
 # iter = 59000  time[fs]=59.00000
   C -0.636013553E+01  0.191282216E+00 -0.322059392E+00
   C  0.597876364E+01 -0.261794492E+00  0.830058484E-01
   H -0.316490370E+02 -0.332829620E+01  0.366156505E+01
   H  0.301639562E+02  0.381661853E+01 -0.212869410E+01
     4
 # iter = 59500  time[fs]=59.50000
   C -0.644804740E+01  0.194748452E+00 -0.326482338E+00
   C  0.606174081E+01 -0.265453069E+00  0.848759962E-01
   H -0.320550237E+02 -0.337085382E+01  0.370939108E+01
   H  0.305472892E+02  0.386640127E+01 -0.215604176E+01
     4
 # iter = 60000  time[fs]=60.00000
   C -0.653603952E+01  0.198218727E+00 -0.330909428E+00
   C  0.614479825E+01 -0.269115945E+00  0.867493905E-01
   H -0.324611843E+02 -0.341343289E+01  0.375724120E+01
   H  0.309307957E+02  0.391620860E+01 -0.218340275E+01
     4
 # iter = 60500  time[fs]=60.50000
   C -0.662410970E+01  0.201692939E+00 -0.335340557E+00
   C  0.622793381E+01 -0.272783016E+00  0.886259509E-01
   H -0.328675144E+02 -0.345603288E+01  0.380511482E+01
   H  0.313144713E+02  0.396603992E+01 -0.221077676E+01
     4
 # iter = 61000  time[fs]=61.00000
   C -0.671225588E+01  0.205170994E+00 -0.339775627E+00
   C  0.631114538E+01 -0.276454179E+00  0.905055997E-01
   H -0.332740099E+02 -0.349865330E+01  0.385301138E+01
   H  0.316983120E+02  0.401589466E+01 -0.223816348E+01
     4
 # iter = 61500  time[fs]=61.50000
   C -0.680047605E+01  0.208652799E+00 -0.344214543E+00
   C  0.639443098E+01 -0.280129336E+00  0.923882622E-01
   H -0.336806669E+02 -0.354129366E+01  0.390093034E+01
   H  0.320823138E+02  0.406577229E+01 -0.226556261E+01
     4
 # iter = 62000  time[fs]=62.00000
   C -0.688876829E+01  0.212138263E+00 -0.348657214E+00
   C  0.647778867E+01 -0.283808393E+00  0.942738662E-01
   H -0.340874816E+02 -0.358395350E+01  0.394887118E+01
   H  0.324664729E+02  0.411567226E+01 -0.229297386E+01
     4
 # iter = 62500  time[fs]=62.50000
   C -0.697713074E+01  0.215627302E+00 -0.353103549E+00
   C  0.656121659E+01 -0.287491258E+00  0.961623422E-01
   H -0.344944501E+02 -0.362663236E+01  0.399683338E+01
   H  0.328507857E+02  0.416559407E+01 -0.232039696E+01
     4
 # iter = 63000  time[fs]=63.00000
   C -0.706556163E+01  0.219119831E+00 -0.357553465E+00
   C  0.664471296E+01 -0.291177843E+00  0.980536227E-01
   H -0.349015689E+02 -0.366932981E+01  0.404481646E+01
   H  0.332352485E+02  0.421553723E+01 -0.234783164E+01
     4
 # iter = 63500  time[fs]=63.50000
   C -0.715405923E+01  0.222615770E+00 -0.362006877E+00
   C  0.672827607E+01 -0.294868064E+00  0.999476429E-01
   H -0.353088346E+02 -0.371204542E+01  0.409281995E+01
   H  0.336198581E+02  0.426550125E+01 -0.237527764E+01
     4
 # iter = 64000  time[fs]=64.00000
   C -0.724262189E+01  0.226115042E+00 -0.366463706E+00
   C  0.681190425E+01 -0.298561837E+00  0.101844340E+00
   H -0.357162438E+02 -0.375477879E+01  0.414084339E+01
   H  0.340046109E+02  0.431548567E+01 -0.240273471E+01
     4
 # iter = 64500  time[fs]=64.50000
   C -0.733124801E+01  0.229617570E+00 -0.370923874E+00
   C  0.689559591E+01 -0.302259082E+00  0.103743653E+00
   H -0.361237933E+02 -0.379752953E+01  0.418888634E+01
   H  0.343895039E+02  0.436549005E+01 -0.243020261E+01
     4
 # iter = 65000  time[fs]=65.00000
   C -0.741993605E+01  0.233123283E+00 -0.375387308E+00
   C  0.697934950E+01 -0.305959724E+00  0.105645524E+00
   H -0.365314800E+02 -0.384029725E+01  0.423694837E+01
   H  0.347745339E+02  0.441551395E+01 -0.245768110E+01
     4
 # iter = 65500  time[fs]=65.50000
   C -0.750868454E+01  0.236632110E+00 -0.379853935E+00
   C  0.706316354E+01 -0.309663687E+00  0.107549896E+00
   H -0.369393008E+02 -0.388308159E+01  0.428502908E+01
   H  0.351596980E+02  0.446555696E+01 -0.248516996E+01
     4
 # iter = 66000  time[fs]=66.00000
   C -0.759749203E+01  0.240143982E+00 -0.384323684E+00
   C  0.714703659E+01 -0.313370899E+00  0.109456714E+00
   H -0.373472528E+02 -0.392588219E+01  0.433312805E+01
   H  0.355449932E+02  0.451561866E+01 -0.251266898E+01
     4
 # iter = 66500  time[fs]=66.50000
   C -0.768635714E+01  0.243658835E+00 -0.388796488E+00
   C  0.723096727E+01 -0.317081290E+00  0.111365924E+00
   H -0.377553333E+02 -0.396869871E+01  0.438124491E+01
   H  0.359304167E+02  0.456569867E+01 -0.254017792E+01
     4
 # iter = 67000  time[fs]=67.00000
   C -0.777527854E+01  0.247176603E+00 -0.393272282E+00
   C  0.731495425E+01 -0.320794792E+00  0.113277476E+00
   H -0.381635394E+02 -0.401153081E+01  0.442937928E+01
   H  0.363159658E+02  0.461579661E+01 -0.256769660E+01
     4
 # iter = 67500  time[fs]=67.50000
   C -0.786425493E+01  0.250697226E+00 -0.397751002E+00
   C  0.739899622E+01 -0.324511340E+00  0.115191320E+00
   H -0.385718685E+02 -0.405437816E+01  0.447753079E+01
   H  0.367016378E+02  0.466591211E+01 -0.259522481E+01
     4
 # iter = 68000  time[fs]=68.00000
   C -0.795328507E+01  0.254220643E+00 -0.402232586E+00
   C  0.748309194E+01 -0.328230871E+00  0.117107406E+00
   H -0.389803180E+02 -0.409724046E+01  0.452569910E+01
   H  0.370874303E+02  0.471604480E+01 -0.262276236E+01
     4
 # iter = 68500  time[fs]=68.50000
   C -0.804236775E+01  0.257746797E+00 -0.406716976E+00
   C  0.756724021E+01 -0.331953323E+00  0.119025689E+00
   H -0.393888855E+02 -0.414011740E+01  0.457388386E+01
   H  0.374733407E+02  0.476619434E+01 -0.265030905E+01
     4
 # iter = 69000  time[fs]=69.00000
   C -0.813150180E+01  0.261275630E+00 -0.411204112E+00
   C  0.765143984E+01 -0.335678635E+00  0.120946123E+00
   H -0.397975685E+02 -0.418300868E+01  0.462208474E+01
   H  0.378593666E+02  0.481636040E+01 -0.267786471E+01
     4
 # iter = 69500  time[fs]=69.50000
   C -0.822068609E+01  0.264807089E+00 -0.415693940E+00
   C  0.773568971E+01 -0.339406750E+00  0.122868664E+00
   H -0.402063647E+02 -0.422591401E+01  0.467030141E+01
   H  0.382455057E+02  0.486654265E+01 -0.270542916E+01
     4
 # iter = 70000  time[fs]=70.00000
   C -0.830991953E+01  0.268341120E+00 -0.420186404E+00
   C  0.781998874E+01 -0.343137612E+00  0.124793269E+00
   H -0.406152719E+02 -0.426883312E+01  0.471853358E+01
   H  0.386317557E+02  0.491674077E+01 -0.273300223E+01
     4
 # iter = 70500  time[fs]=70.50000
   C -0.839920105E+01  0.271877672E+00 -0.424681452E+00
   C  0.790433584E+01 -0.346871167E+00  0.126719897E+00
   H -0.410242877E+02 -0.431176574E+01  0.476678092E+01
   H  0.390181145E+02  0.496695445E+01 -0.276058374E+01
     4
 # iter = 71000  time[fs]=71.00000
   C -0.848852964E+01  0.275416695E+00 -0.429179033E+00
   C  0.798873001E+01 -0.350607360E+00  0.128648507E+00
   H -0.414334101E+02 -0.435471161E+01  0.481504316E+01
   H  0.394045798E+02  0.501718339E+01 -0.278817355E+01
     4
 # iter = 71500  time[fs]=71.50000
   C -0.857790430E+01  0.278958140E+00 -0.433679097E+00
   C  0.807317024E+01 -0.354346141E+00  0.130579062E+00
   H -0.418426370E+02 -0.439767047E+01  0.486332000E+01
   H  0.397911497E+02  0.506742731E+01 -0.281577149E+01
     4
 # iter = 72000  time[fs]=72.00000
   C -0.866732406E+01  0.282501961E+00 -0.438181596E+00
   C  0.815765557E+01 -0.358087460E+00  0.132511522E+00
   H -0.422519664E+02 -0.444064207E+01  0.491161116E+01
   H  0.401778222E+02  0.511768592E+01 -0.284337740E+01
     4
 # iter = 72500  time[fs]=72.50000
   C -0.875678800E+01  0.286048112E+00 -0.442686482E+00
   C  0.824218507E+01 -0.361831268E+00  0.134445850E+00
   H -0.426613962E+02 -0.448362618E+01  0.495991638E+01
   H  0.405645952E+02  0.516795894E+01 -0.287099114E+01
     4
 # iter = 73000  time[fs]=73.00000
   C -0.884629520E+01  0.289596548E+00 -0.447193711E+00
   C  0.832675783E+01 -0.365577518E+00  0.136382012E+00
   H -0.430709247E+02 -0.452662255E+01  0.500823540E+01
   H  0.409514669E+02  0.521824612E+01 -0.289861257E+01
     4
 # iter = 73500  time[fs]=73.50000
   C -0.893584479E+01  0.293147226E+00 -0.451703238E+00
   C  0.841137297E+01 -0.369326164E+00  0.138319973E+00
   H -0.434805500E+02 -0.456963097E+01  0.505656795E+01
   H  0.413384354E+02  0.526854718E+01 -0.292624154E+01
     4
 # iter = 74000  time[fs]=74.00000
   C -0.902543591E+01  0.296700105E+00 -0.456215019E+00
   C  0.849602964E+01 -0.373077161E+00  0.140259698E+00
   H -0.438902701E+02 -0.461265121E+01  0.510491379E+01
   H  0.417254989E+02  0.531886187E+01 -0.295387792E+01
     4
 # iter = 74500  time[fs]=74.50000
   C -0.911506774E+01  0.300255142E+00 -0.460729013E+00
   C  0.858072701E+01 -0.376830466E+00  0.142201154E+00
   H -0.443000835E+02 -0.465568306E+01  0.515327269E+01
   H  0.421126558E+02  0.536918996E+01 -0.298152157E+01
     4
 # iter = 75000  time[fs]=75.00000
   C -0.920473948E+01  0.303812299E+00 -0.465245180E+00
   C  0.866546427E+01 -0.380586036E+00  0.144144310E+00
   H -0.447099884E+02 -0.469872630E+01  0.520164439E+01
   H  0.424999042E+02  0.541953120E+01 -0.300917237E+01
     4
 # iter = 75500  time[fs]=75.50000
   C -0.929445033E+01  0.307371538E+00 -0.469763479E+00
   C  0.875024065E+01 -0.384343832E+00  0.146089135E+00
   H -0.451199831E+02 -0.474178074E+01  0.525002869E+01
   H  0.428872426E+02  0.546988536E+01 -0.303683018E+01
     4
 # iter = 76000  time[fs]=76.00000
   C -0.938419956E+01  0.310932819E+00 -0.474283872E+00
   C  0.883505539E+01 -0.388103812E+00  0.148035598E+00
   H -0.455300661E+02 -0.478484617E+01  0.529842534E+01
   H  0.432746693E+02  0.552025220E+01 -0.306449489E+01
     4
 # iter = 76500  time[fs]=76.50000
   C -0.947398641E+01  0.314496107E+00 -0.478806322E+00
   C  0.891990774E+01 -0.391865937E+00  0.149983669E+00
   H -0.459402357E+02 -0.482792240E+01  0.534683414E+01
   H  0.436621828E+02  0.557063152E+01 -0.309216637E+01
     4
 # iter = 77000  time[fs]=77.00000
   C -0.956381018E+01  0.318061366E+00 -0.483330792E+00
   C  0.900479700E+01 -0.395630170E+00  0.151933321E+00
   H -0.463504904E+02 -0.487100925E+01  0.539525488E+01
   H  0.440497815E+02  0.562102309E+01 -0.311984450E+01
     4
 # iter = 77500  time[fs]=77.50000
   C -0.965367016E+01  0.321628561E+00 -0.487857245E+00
   C  0.908972247E+01 -0.399396474E+00  0.153884525E+00
   H -0.467608288E+02 -0.491410653E+01  0.544368735E+01
   H  0.444374640E+02  0.567142670E+01 -0.314752919E+01
     4
 # iter = 78000  time[fs]=78.00000
   C -0.974356569E+01  0.325197659E+00 -0.492385649E+00
   C  0.917468347E+01 -0.403164813E+00  0.155837254E+00
   H -0.471712493E+02 -0.495721406E+01  0.549213134E+01
   H  0.448252287E+02  0.572184216E+01 -0.317522030E+01
     4
 # iter = 78500  time[fs]=78.50000
   C -0.983349609E+01  0.328768626E+00 -0.496915968E+00
   C  0.925967934E+01 -0.406935152E+00  0.157791482E+00
   H -0.475817506E+02 -0.500033167E+01  0.554058667E+01
   H  0.452130744E+02  0.577226925E+01 -0.320291774E+01
     4
 # iter = 79000  time[fs]=79.00000
   C -0.992346075E+01  0.332341431E+00 -0.501448170E+00
   C  0.934470944E+01 -0.410707456E+00  0.159747182E+00
   H -0.479923314E+02 -0.504345918E+01  0.558905314E+01
   H  0.456009996E+02  0.582270780E+01 -0.323062140E+01
     4
 # iter = 79500  time[fs]=79.50000
   C -0.100134590E+02  0.335916042E+00 -0.505982223E+00
   C  0.942977315E+01 -0.414481692E+00  0.161704329E+00
   H -0.484029901E+02 -0.508659644E+01  0.563753057E+01
   H  0.459890030E+02  0.587315759E+01 -0.325833118E+01
     4
 # iter = 80000  time[fs]=80.00000
   C -0.101034903E+02  0.339492428E+00 -0.510518096E+00
   C  0.951486986E+01 -0.418257828E+00  0.163662900E+00
   H -0.488137256E+02 -0.512974329E+01  0.568601877E+01
   H  0.463770832E+02  0.592361846E+01 -0.328604697E+01
