     4
 # iter = 25000  time[fs]=25.00000
   C -0.100136973E+01  0.286368467E-01 -0.332296256E-01
   C  0.957416210E+00 -0.499129118E-01 -0.203486225E-01
   H -0.529892063E+01  0.182959460E+00 -0.425881023E+00
   H  0.528474052E+01  0.301710511E+00  0.265594768E+00
     4
 # iter = 25500  time[fs]=25.50000
   C -0.104918845E+01  0.275906229E-01 -0.337872300E-01
   C  0.996598379E+00 -0.535635191E-01 -0.222517167E-01
   H -0.564046529E+01  0.185171255E+00 -0.459572618E+00
   H  0.559025545E+01  0.313815460E+00  0.275976120E+00
     4
 # iter = 26000  time[fs]=26.00000
   C -0.110098488E+01  0.257195156E-01 -0.352789574E-01
   C  0.103781079E+01 -0.583714194E-01 -0.251482960E-01
   H -0.599280272E+01  0.182155905E+00 -0.499112437E+00
   H  0.589587496E+01  0.320875853E+00  0.281279174E+00
     4
 # iter = 26500  time[fs]=26.50000
   C -0.115372131E+01  0.258010081E-01 -0.349155944E-01
   C  0.108378125E+01 -0.613384977E-01 -0.260583182E-01
   H -0.633922384E+01  0.189972346E+00 -0.528368496E+00
   H  0.621712528E+01  0.338946988E+00  0.297562292E+00
     4
 # iter = 27000  time[fs]=27.00000
   C -0.120702385E+01  0.279635350E-01 -0.325579401E-01
   C  0.113442070E+01 -0.623036147E-01 -0.248365931E-01
   H -0.667841931E+01  0.209398980E+00 -0.546503005E+00
   H  0.655429576E+01  0.368792436E+00  0.325591851E+00
     4
 # iter = 27500  time[fs]=27.50000
   C -0.126274658E+01  0.301244532E-01 -0.302788851E-01
   C  0.118729256E+01 -0.634739042E-01 -0.237042749E-01
   H -0.702193102E+01  0.228457328E+00 -0.565445812E+00
   H  0.689495819E+01  0.398410003E+00  0.353368241E+00
     4
 # iter = 28000  time[fs]=28.00000
   C -0.132215565E+01  0.308085006E-01 -0.295450741E-01
   C  0.124062741E+01 -0.664088187E-01 -0.242331144E-01
   H -0.737785888E+01  0.238670119E+00 -0.593632224E+00
   H  0.723024919E+01  0.419303283E+00  0.372397263E+00
     4
 # iter = 28500  time[fs]=28.50000
   C -0.138447596E+01  0.306015506E-01 -0.297631326E-01
   C  0.129487762E+01 -0.704643551E-01 -0.257898857E-01
   H -0.774245417E+01  0.243448673E+00 -0.627613401E+00
   H  0.756326391E+01  0.434875701E+00  0.386084135E+00
     4
 # iter = 29000  time[fs]=29.00000
   C -0.144808821E+01  0.309519068E-01 -0.294782107E-01
   C  0.135143422E+01 -0.740755253E-01 -0.268190434E-01
   H -0.810703376E+01  0.251177107E+00 -0.658971979E+00
   H  0.790211982E+01  0.453508789E+00  0.402811899E+00
     4
 # iter = 29500  time[fs]=29.50000
   C -0.151234066E+01  0.323563385E-01 -0.281877717E-01
   C  0.141068537E+01 -0.766972294E-01 -0.267837648E-01
   H -0.846844831E+01  0.264745846E+00 -0.684788783E+00
   H  0.824946674E+01  0.478087090E+00  0.425466466E+00
     4
 # iter = 30000  time[fs]=30.00000
   C -0.157780227E+01  0.341055613E-01 -0.265960052E-01
   C  0.147174279E+01 -0.790764258E-01 -0.264382727E-01
   H -0.883054619E+01  0.280083242E+00 -0.709110703E+00
   H  0.860101092E+01  0.504528468E+00  0.449966977E+00
     4
 # iter = 30500  time[fs]=30.50000
   C -0.164513642E+01  0.354094891E-01 -0.254885186E-01
   C  0.153364443E+01 -0.820478277E-01 -0.266236671E-01
   H -0.919767111E+01  0.292649382E+00 -0.736455912E+00
   H  0.895201374E+01  0.528282876E+00  0.471764539E+00
     4
 # iter = 31000  time[fs]=31.00000
   C -0.171424401E+01  0.362531990E-01 -0.248763164E-01
   C  0.159626910E+01 -0.856177789E-01 -0.273519186E-01
   H -0.956971558E+01  0.302375960E+00 -0.766873231E+00
   H  0.930223494E+01  0.549275973E+00  0.490785833E+00
     4
 # iter = 31500  time[fs]=31.50000
   C -0.178451342E+01  0.371456124E-01 -0.242470446E-01
   C  0.166006636E+01 -0.892330650E-01 -0.280747822E-01
   H -0.994356853E+01  0.312215952E+00 -0.797392151E+00
   H  0.965447780E+01  0.570457624E+00  0.509981628E+00
     4
 # iter = 32000  time[fs]=32.00000
   C -0.185553743E+01  0.384012786E-01 -0.232831297E-01
   C  0.172528701E+01 -0.925493774E-01 -0.284523481E-01
   H -0.103172592E+02  0.323998737E+00 -0.826167618E+00
   H  0.100104369E+02  0.593653774E+00  0.531178691E+00
     4
 # iter = 32500  time[fs]=32.50000
   C -0.192736964E+01  0.398827725E-01 -0.221193212E-01
   C  0.179170649E+01 -0.957068720E-01 -0.286286760E-01
   H -0.106914424E+02  0.336943626E+00 -0.853966348E+00
   H  0.103692076E+02  0.618078765E+00  0.553592126E+00
     4
 # iter = 33000  time[fs]=33.00000
   C -0.200021432E+01  0.413099710E-01 -0.210333717E-01
   C  0.185895495E+01 -0.989991038E-01 -0.289007944E-01
   H -0.110676104E+02  0.349445120E+00 -0.882381301E+00
   H  0.107290714E+02  0.642121887E+00  0.575611924E+00
     4
 # iter = 33500  time[fs]=33.50000
   C -0.207408632E+01  0.425993389E-01 -0.201067165E-01
   C  0.192687949E+01 -0.102509862E+00 -0.293555912E-01
   H -0.114461330E+02  0.361031301E+00 -0.911873048E+00
   H  0.110894552E+02  0.665307203E+00  0.596762792E+00
     4
 # iter = 34000  time[fs]=34.00000
   C -0.214880694E+01  0.438672833E-01 -0.192210849E-01
   C  0.199554705E+01 -0.106109508E+00 -0.298662019E-01
   H -0.118262360E+02  0.372383270E+00 -0.941750168E+00
   H  0.114509492E+02  0.688312971E+00  0.617723574E+00
     4
 # iter = 34500  time[fs]=34.50000
   C -0.222420565E+01  0.452277740E-01 -0.182608478E-01
   C  0.206502722E+01 -0.109671497E+00 -0.303085670E-01
   H -0.122071688E+02  0.384167127E+00 -0.971337172E+00
   H  0.118141370E+02  0.711802720E+00  0.639158339E+00
     4
 # iter = 35000  time[fs]=35.00000
   C -0.230023450E+01  0.466772578E-01 -0.172280759E-01
   C  0.213526853E+01 -0.113195478E+00 -0.306845720E-01
   H -0.125888676E+02  0.396369812E+00 -0.100063857E+01
   H  0.121789297E+02  0.735760561E+00  0.661051701E+00
     4
 # iter = 35500  time[fs]=35.50000
   C -0.237691425E+01  0.481480198E-01 -0.161891568E-01
   C  0.220615506E+01 -0.116750141E+00 -0.310649237E-01
   H -0.129716461E+02  0.408607228E+00 -0.103003066E+01
   H  0.125448733E+02  0.759799510E+00  0.683017142E+00
     4
 # iter = 36000  time[fs]=36.00000
   C -0.245423941E+01  0.496026602E-01 -0.151802995E-01
   C  0.227760709E+01 -0.120372071E+00 -0.314880296E-01
   H -0.133556500E+02  0.420669644E+00 -0.105971603E+01
   H  0.129116944E+02  0.783707278E+00  0.704842804E+00
     4
 # iter = 36500  time[fs]=36.50000
   C -0.253215626E+01  0.510556865E-01 -0.141859260E-01
   C  0.234960385E+01 -0.124042604E+00 -0.319368767E-01
   H -0.137407309E+02  0.432646393E+00 -0.108959878E+01
   H  0.132794238E+02  0.807571037E+00  0.726616263E+00
     4
 # iter = 37000  time[fs]=37.00000
   C -0.261060233E+01  0.525336277E-01 -0.131785427E-01
   C  0.242214043E+01 -0.127730480E+00 -0.323817044E-01
   H -0.141266762E+02  0.444695691E+00 -0.111951464E+01
   H  0.136481659E+02  0.831547060E+00  0.748494166E+00
     4
 # iter = 37500  time[fs]=37.50000
   C -0.268953886E+01  0.540422637E-01 -0.121514984E-01
   C  0.249519249E+01 -0.131426884E+00 -0.328150634E-01
   H -0.145133980E+02  0.456855535E+00 -0.114942004E+01
   H  0.140179092E+02  0.855671456E+00  0.770512971E+00
     4
 # iter = 38000  time[fs]=38.00000
   C -0.276894688E+01  0.555702227E-01 -0.111153760E-01
   C  0.256871977E+01 -0.135141573E+00 -0.332479554E-01
   H -0.149009113E+02  0.469064520E+00 -0.117937124E+01
   H  0.143885462E+02  0.879880996E+00  0.792609776E+00
     4
 # iter = 38500  time[fs]=38.50000
   C -0.284880830E+01  0.571076668E-01 -0.100792977E-01
   C  0.264268586E+01 -0.138882856E+00 -0.336898281E-01
   H -0.152892264E+02  0.481269739E+00 -0.120941638E+01
   H  0.147599814E+02  0.904121072E+00  0.814730281E+00
     4
 # iter = 39000  time[fs]=39.00000
   C -0.292909783E+01  0.586541311E-01 -0.904307813E-02
   C  0.271706642E+01 -0.142649185E+00 -0.341401774E-01
   H -0.156783027E+02  0.493472068E+00 -0.123955016E+01
   H  0.151321762E+02  0.928391012E+00  0.836874099E+00
     4
 # iter = 39500  time[fs]=39.50000
   C -0.300978796E+01  0.602133159E-01 -0.800242421E-02
   C  0.279184335E+01 -0.146434715E+00 -0.345941139E-01
   H -0.160680789E+02  0.505696136E+00 -0.126974383E+01
   H  0.155051185E+02  0.952714016E+00  0.859064701E+00
     4
 # iter = 40000  time[fs]=40.00000
   C -0.309085522E+01  0.617866519E-01 -0.695536456E-02
   C  0.286699779E+01 -0.150236169E+00 -0.350492430E-01
   H -0.164585093E+02  0.517953211E+00 -0.129998231E+01
   H  0.158787854E+02  0.977100004E+00  0.881312260E+00
     4
 # iter = 40500  time[fs]=40.50000
   C -0.317228083E+01  0.633725307E-01 -0.590301320E-02
   C  0.294250910E+01 -0.154053653E+00 -0.355064826E-01
   H -0.168495686E+02  0.530236780E+00 -0.133026853E+01
   H  0.162531386E+02  0.100154119E+01  0.903609228E+00
     4
 # iter = 41000  time[fs]=41.00000
   C -0.325404788E+01  0.649689052E-01 -0.484696425E-02
   C  0.301835756E+01 -0.157887862E+00 -0.359672747E-01
   H -0.172412363E+02  0.542537588E+00 -0.136060843E+01
   H  0.166281391E+02  0.102602712E+01  0.925945374E+00
     4
 # iter = 41500  time[fs]=41.50000
   C -0.333613963E+01  0.665749159E-01 -0.378766152E-02
   C  0.309452593E+01 -0.161738322E+00 -0.364318406E-01
   H -0.176334871E+02  0.554853040E+00 -0.139100148E+01
   H  0.170037564E+02  0.105055407E+01  0.948317194E+00
     4
 # iter = 42000  time[fs]=42.00000
   C -0.341853974E+01  0.681905195E-01 -0.272476625E-02
   C  0.317099900E+01 -0.165603787E+00 -0.368995744E-01
   H -0.180262931E+02  0.567185079E+00 -0.142144283E+01
   H  0.173799664E+02  0.107512294E+01  0.970725778E+00
     4
 # iter = 42500  time[fs]=42.50000
   C -0.350123305E+01  0.698155949E-01 -0.165804782E-02
   C  0.324776247E+01 -0.169483180E+00 -0.373699956E-01
   H -0.184196285E+02  0.579535037E+00 -0.145192840E+01
   H  0.177567460E+02  0.109973406E+01  0.993171658E+00
     4
 # iter = 43000  time[fs]=43.00000
   C -0.358420580E+01  0.714496713E-01 -0.587652353E-03
   C  0.332480267E+01 -0.173375881E+00 -0.378430365E-01
   H -0.188134713E+02  0.591902086E+00 -0.148245647E+01
   H  0.181340715E+02  0.112438567E+01  0.101565325E+01
     4
 # iter = 43500  time[fs]=43.50000
   C -0.366744523E+01  0.730921731E-01  0.486144084E-03
   C  0.340210662E+01 -0.177281455E+00 -0.383187779E-01
   H -0.192078015E+02  0.604284657E+00 -0.151302618E+01
   H  0.185119198E+02  0.114907532E+01  0.103816826E+01
     4
 # iter = 44000  time[fs]=44.00000
   C -0.375093937E+01  0.747426430E-01  0.156316161E-02
   C  0.347966232E+01 -0.181199408E+00 -0.387972063E-01
   H -0.196025999E+02  0.616681747E+00 -0.154363627E+01
   H  0.188902695E+02  0.117380117E+01  0.106071502E+01
     4
 # iter = 44500  time[fs]=44.50000
   C -0.383467686E+01  0.764007457E-01  0.264332172E-02
   C  0.355745858E+01 -0.185129180E+00 -0.392782085E-01
   H -0.199978479E+02  0.629092944E+00 -0.157428502E+01
   H  0.192691011E+02  0.119856202E+01  0.108329247E+01
     4
 # iter = 45000  time[fs]=45.00000
   C -0.391864708E+01  0.780661785E-01  0.372655999E-02
   C  0.363548496E+01 -0.189070233E+00 -0.397616643E-01
   H -0.203935277E+02  0.641517923E+00 -0.160497072E+01
   H  0.196483963E+02  0.122335678E+01  0.110589970E+01
     4
 # iter = 45500  time[fs]=45.50000
   C -0.400284008E+01  0.797386275E-01  0.481278403E-02
   C  0.371373161E+01 -0.193022090E+00 -0.402474914E-01
   H -0.207896230E+02  0.653956202E+00 -0.163569195E+01
   H  0.200281375E+02  0.124818428E+01  0.112853564E+01
     4
 # iter = 46000  time[fs]=46.00000
   C -0.408724650E+01  0.814177804E-01  0.590188758E-02
   C  0.379218924E+01 -0.196984327E+00 -0.407356298E-01
   H -0.211861183E+02  0.666407224E+00 -0.166644747E+01
   H  0.204083082E+02  0.127304328E+01  0.115119920E+01
     4
 # iter = 46500  time[fs]=46.50000
   C -0.417185757E+01  0.831033470E-01  0.699377215E-02
   C  0.387084915E+01 -0.200956536E+00 -0.412260184E-01
   H -0.215829989E+02  0.678870480E+00 -0.169723608E+01
   H  0.207888926E+02  0.129793262E+01  0.117388935E+01
     4
 # iter = 47000  time[fs]=47.00000
   C -0.425666499E+01  0.847950618E-01  0.808835137E-02
   C  0.394970311E+01 -0.204938329E+00 -0.417185901E-01
   H -0.219802509E+02  0.691345530E+00 -0.172805661E+01
   H  0.211698758E+02  0.132285128E+01  0.119660517E+01
     4
 # iter = 47500  time[fs]=47.50000
   C -0.434166095E+01  0.864926775E-01  0.918554490E-02
   C  0.402874340E+01 -0.208929332E+00 -0.422132778E-01
   H -0.223778612E+02  0.703831975E+00 -0.175890793E+01
   H  0.215512438E+02  0.134779826E+01  0.121934579E+01
     4
 # iter = 48000  time[fs]=48.00000
   C -0.442683807E+01  0.881959591E-01  0.102852741E-01
   C  0.410796272E+01 -0.212929198E+00 -0.427100188E-01
   H -0.227758172E+02  0.716329423E+00 -0.178978897E+01
   H  0.219329832E+02  0.137277263E+01  0.124211038E+01
     4
 # iter = 48500  time[fs]=48.50000
   C -0.451218939E+01  0.899046837E-01  0.113874622E-01
   C  0.418735417E+01 -0.216937598E+00 -0.432087547E-01
   H -0.231741072E+02  0.728837496E+00 -0.182069873E+01
   H  0.223150813E+02  0.139777348E+01  0.126489814E+01
     4
 # iter = 49000  time[fs]=49.00000
   C -0.459770833E+01  0.916186405E-01  0.124920353E-01
   C  0.426691123E+01 -0.220954221E+00 -0.437094291E-01
   H -0.235727197E+02  0.741355832E+00 -0.185163627E+01
   H  0.226975261E+02  0.142279996E+01  0.128770831E+01
     4
 # iter = 49500  time[fs]=49.50000
   C -0.468338865E+01  0.933376307E-01  0.135989233E-01
   C  0.434662773E+01 -0.224978773E+00 -0.442119875E-01
   H -0.239716441E+02  0.753884092E+00 -0.188260067E+01
   H  0.230803061E+02  0.144785125E+01  0.131054017E+01
     4
 # iter = 50000  time[fs]=50.00000
   C -0.476922445E+01  0.950614666E-01  0.147080591E-01
   C  0.442649783E+01 -0.229010972E+00 -0.447163771E-01
   H -0.243708703E+02  0.766421952E+00 -0.191359107E+01
   H  0.234634104E+02  0.147292657E+01  0.133339304E+01
     4
 # iter = 50500  time[fs]=50.50000
   C -0.485521014E+01  0.967899702E-01  0.158193782E-01
   C  0.450651599E+01 -0.233050555E+00 -0.452225474E-01
   H -0.247703885E+02  0.778969104E+00 -0.194460665E+01
   H  0.238468286E+02  0.149802517E+01  0.135626624E+01
     4
 # iter = 51000  time[fs]=51.00000
   C -0.494134040E+01  0.985229730E-01  0.169328186E-01
   C  0.458667696E+01 -0.237097268E+00 -0.457304496E-01
   H -0.251701894E+02  0.791525256E+00 -0.197564662E+01
   H  0.242305508E+02  0.152314636E+01  0.137915917E+01
     4
 # iter = 51500  time[fs]=51.50000
   C -0.502761020E+01  0.100260315E+00  0.180483209E-01
   C  0.466697575E+01 -0.241150871E+00 -0.462400370E-01
   H -0.255702643E+02  0.804090125E+00 -0.200671023E+01
   H  0.246145675E+02  0.154828944E+01  0.140207122E+01
     4
 # iter = 52000  time[fs]=52.00000
   C -0.511401474E+01  0.102001844E+00  0.191658279E-01
   C  0.474740762E+01 -0.245211138E+00 -0.467512645E-01
   H -0.259706047E+02  0.816663445E+00 -0.203779677E+01
   H  0.249988696E+02  0.157345378E+01  0.142500182E+01
     4
 # iter = 52500  time[fs]=52.50000
   C -0.520054947E+01  0.103747416E+00  0.202852847E-01
   C  0.482796806E+01 -0.249277850E+00 -0.472640886E-01
   H -0.263712025E+02  0.829244961E+00 -0.206890555E+01
   H  0.253834487E+02  0.159863876E+01  0.144795043E+01
     4
 # iter = 53000  time[fs]=53.00000
   C -0.528721005E+01  0.105496894E+00  0.214066385E-01
   C  0.490865278E+01 -0.253350800E+00 -0.477784675E-01
   H -0.267720502E+02  0.841834427E+00 -0.210003592E+01
   H  0.257682964E+02  0.162384377E+01  0.147091651E+01
     4
 # iter = 53500  time[fs]=53.50000
   C -0.537399236E+01  0.107250147E+00  0.225298386E-01
   C  0.498945771E+01 -0.257429792E+00 -0.482943610E-01
   H -0.271731402E+02  0.854431611E+00 -0.213118726E+01
   H  0.261534048E+02  0.164906826E+01  0.149389958E+01
     4
 # iter = 54000  time[fs]=54.00000
   C -0.546089246E+01  0.109007052E+00  0.236548363E-01
   C  0.507037893E+01 -0.261514637E+00 -0.488117301E-01
   H -0.275744657E+02  0.867036289E+00 -0.216235896E+01
   H  0.265387665E+02  0.167431168E+01  0.151689915E+01
     4
 # iter = 54500  time[fs]=54.50000
   C -0.554790660E+01  0.110767489E+00  0.247815844E-01
   C  0.515141276E+01 -0.265605154E+00 -0.493305374E-01
   H -0.279760197E+02  0.879648247E+00 -0.219355044E+01
   H  0.269243741E+02  0.169957350E+01  0.153991477E+01
     4
 # iter = 55000  time[fs]=55.00000
   C -0.563503120E+01  0.112531346E+00  0.259100378E-01
   C  0.523255563E+01 -0.269701174E+00 -0.498507469E-01
   H -0.283777960E+02  0.892267280E+00 -0.222476117E+01
   H  0.273102207E+02  0.172485323E+01  0.156294598E+01
     4
 # iter = 55500  time[fs]=55.50000
   C -0.572226283E+01  0.114298515E+00  0.270401528E-01
   C  0.531380418E+01 -0.273802530E+00 -0.503723236E-01
   H -0.287797883E+02  0.904893190E+00 -0.225599061E+01
   H  0.276962998E+02  0.175015039E+01  0.158599237E+01
     4
 # iter = 56000  time[fs]=56.00000
   C -0.580959823E+01  0.116068893E+00  0.281718876E-01
   C  0.539515516E+01 -0.277909067E+00 -0.508952339E-01
   H -0.291819907E+02  0.917525791E+00 -0.228723825E+01
   H  0.280826048E+02  0.177546451E+01  0.160905354E+01
     4
 # iter = 56500  time[fs]=56.50000
   C -0.589703427E+01  0.117842381E+00  0.293052016E-01
   C  0.547660550E+01 -0.282020633E+00 -0.514194454E-01
   H -0.295843974E+02  0.930164899E+00 -0.231850362E+01
   H  0.284691298E+02  0.180079514E+01  0.163212909E+01
     4
 # iter = 57000  time[fs]=57.00000
   C -0.598456798E+01  0.119618887E+00  0.304400559E-01
   C  0.555815222E+01 -0.286137086E+00 -0.519449268E-01
   H -0.299870030E+02  0.942810342E+00 -0.234978623E+01
   H  0.288558689E+02  0.182614187E+01  0.165521864E+01
     4
 # iter = 57500  time[fs]=57.50000
   C -0.607219647E+01  0.121398320E+00  0.315764127E-01
   C  0.563979251E+01 -0.290258286E+00 -0.524716477E-01
   H -0.303898023E+02  0.955461953E+00 -0.238108564E+01
   H  0.292428163E+02  0.185150427E+01  0.167832184E+01
     4
 # iter = 58000  time[fs]=58.00000
   C -0.615991702E+01  0.123180594E+00  0.327142358E-01
   C  0.572152366E+01 -0.294384101E+00 -0.529995790E-01
   H -0.307927902E+02  0.968119570E+00 -0.241240143E+01
   H  0.296299667E+02  0.187688197E+01  0.170143834E+01
     4
 # iter = 58500  time[fs]=58.50000
   C -0.624772699E+01  0.124965627E+00  0.338534902E-01
   C  0.580334306E+01 -0.298514405E+00 -0.535286923E-01
   H -0.311959618E+02  0.980783040E+00 -0.244373317E+01
   H  0.300173149E+02  0.190227456E+01  0.172456780E+01
     4
 # iter = 59000  time[fs]=59.00000
   C -0.633562387E+01  0.126753340E+00  0.349941419E-01
   C  0.588524824E+01 -0.302649076E+00 -0.540589604E-01
   H -0.315993125E+02  0.993452213E+00 -0.247508047E+01
   H  0.304048558E+02  0.192768170E+01  0.174770991E+01
     4
 # iter = 59500  time[fs]=59.50000
   C -0.642360524E+01  0.128543657E+00  0.361361583E-01
   C  0.596723679E+01 -0.306787996E+00 -0.545903568E-01
   H -0.320028377E+02  0.100612695E+01 -0.250644293E+01
   H  0.307925846E+02  0.195310302E+01  0.177086435E+01
     4
 # iter = 60000  time[fs]=60.00000
   C -0.651166879E+01  0.130336505E+00  0.372795078E-01
   C  0.604930643E+01 -0.310931053E+00 -0.551228559E-01
   H -0.324065331E+02  0.101880710E+01 -0.253782019E+01
   H  0.311804966E+02  0.197853818E+01  0.179403082E+01
     4
 # iter = 60500  time[fs]=60.50000
   C -0.659981228E+01  0.132131816E+00  0.384241598E-01
   C  0.613145495E+01 -0.315078140E+00 -0.556564330E-01
   H -0.328103946E+02  0.103149255E+01 -0.256921189E+01
   H  0.315685874E+02  0.200398686E+01  0.181720904E+01
     4
 # iter = 61000  time[fs]=61.00000
   C -0.668803357E+01  0.133929521E+00  0.395700848E-01
   C  0.621368025E+01 -0.319229151E+00 -0.561910643E-01
   H -0.332144181E+02  0.104418316E+01 -0.260061769E+01
   H  0.319568526E+02  0.202944873E+01  0.184039872E+01
     4
 # iter = 61500  time[fs]=61.50000
   C -0.677633061E+01  0.135729557E+00  0.407172544E-01
   C  0.629598028E+01 -0.323383987E+00 -0.567267264E-01
   H -0.336185998E+02  0.105687881E+01 -0.263203724E+01
   H  0.323452881E+02  0.205492349E+01  0.186359961E+01
     4
 # iter = 62000  time[fs]=62.00000
   C -0.686470142E+01  0.137531862E+00  0.418656407E-01
   C  0.637835310E+01 -0.327542552E+00 -0.572633970E-01
   H -0.340229358E+02  0.106957937E+01 -0.266347024E+01
   H  0.327338897E+02  0.208041085E+01  0.188681143E+01
     4
 # iter = 62500  time[fs]=62.50000
   C -0.695314410E+01  0.139336377E+00  0.430152171E-01
   C  0.646079682E+01 -0.331704752E+00 -0.578010543E-01
   H -0.344274226E+02  0.108228474E+01 -0.269491637E+01
   H  0.331226537E+02  0.210591052E+01  0.191003394E+01
     4
 # iter = 63000  time[fs]=63.00000
   C -0.704165680E+01  0.141143044E+00  0.441659577E-01
   C  0.654330962E+01 -0.335870498E+00 -0.583396773E-01
   H -0.348320567E+02  0.109499481E+01 -0.272637532E+01
   H  0.335115763E+02  0.213142222E+01  0.193326690E+01
     4
 # iter = 63500  time[fs]=63.50000
   C -0.713023777E+01  0.142951809E+00  0.453178374E-01
   C  0.662588978E+01 -0.340039705E+00 -0.588792455E-01
   H -0.352368347E+02  0.110770946E+01 -0.275784682E+01
   H  0.339006539E+02  0.215694569E+01  0.195651008E+01
     4
 # iter = 64000  time[fs]=64.00000
   C -0.721888531E+01  0.144762618E+00  0.464708319E-01
   C  0.670853560E+01 -0.344212288E+00 -0.594197391E-01
   H -0.356417533E+02  0.112042859E+01 -0.278933058E+01
   H  0.342898829E+02  0.218248067E+01  0.197976324E+01
     4
 # iter = 64500  time[fs]=64.50000
   C -0.730759778E+01  0.146575420E+00  0.476249177E-01
   C  0.679124547E+01 -0.348388168E+00 -0.599611389E-01
   H -0.360468095E+02  0.113315210E+01 -0.282082632E+01
   H  0.346792599E+02  0.220802690E+01  0.200302617E+01
     4
 # iter = 65000  time[fs]=65.00000
   C -0.739637359E+01  0.148390167E+00  0.487800719E-01
   C  0.687401782E+01 -0.352567268E+00 -0.605034263E-01
   H -0.364520001E+02  0.114587990E+01 -0.285233380E+01
   H  0.350687818E+02  0.223358415E+01  0.202629865E+01
     4
 # iter = 65500  time[fs]=65.50000
   C -0.748521122E+01  0.150206810E+00  0.499362725E-01
   C  0.695685115E+01 -0.356749512E+00 -0.610465833E-01
   H -0.368573222E+02  0.115861189E+01 -0.288385274E+01
   H  0.354584452E+02  0.225915217E+01  0.204958049E+01
     4
 # iter = 66000  time[fs]=66.00000
   C -0.757410921E+01  0.152025305E+00  0.510934979E-01
   C  0.703974400E+01 -0.360934828E+00 -0.615905922E-01
   H -0.372627729E+02  0.117134798E+01 -0.291538292E+01
   H  0.358482473E+02  0.228473075E+01  0.207287148E+01
     4
 # iter = 66500  time[fs]=66.50000
   C -0.766306612E+01  0.153845606E+00  0.522517274E-01
   C  0.712269498E+01 -0.365123146E+00 -0.621354361E-01
   H -0.376683496E+02  0.118408809E+01 -0.294692408E+01
   H  0.362381849E+02  0.231031967E+01  0.209617143E+01
     4
 # iter = 67000  time[fs]=67.00000
   C -0.775208059E+01  0.155667671E+00  0.534109407E-01
   C  0.720570273E+01 -0.369314399E+00 -0.626810983E-01
   H -0.380740495E+02  0.119683212E+01 -0.297847600E+01
   H  0.366282551E+02  0.233591870E+01  0.211948016E+01
     4
 # iter = 67500  time[fs]=67.50000
   C -0.784115129E+01  0.157491460E+00  0.545711182E-01
   C  0.728876593E+01 -0.373508523E+00 -0.632275630E-01
   H -0.384798700E+02  0.120958000E+01 -0.301003847E+01
   H  0.370184554E+02  0.236152765E+01  0.214279748E+01
     4
 # iter = 68000  time[fs]=68.00000
   C -0.793027694E+01  0.159316932E+00  0.557322409E-01
   C  0.737188332E+01 -0.377705452E+00 -0.637748143E-01
   H -0.388858086E+02  0.122233164E+01 -0.304161125E+01
   H  0.374087828E+02  0.238714631E+01  0.216612322E+01
     4
 # iter = 68500  time[fs]=68.50000
   C -0.801945630E+01  0.161144049E+00  0.568942903E-01
   C  0.745505368E+01 -0.381905127E+00 -0.643228373E-01
   H -0.392918629E+02  0.123508697E+01 -0.307319414E+01
   H  0.377992348E+02  0.241277449E+01  0.218945721E+01
     4
 # iter = 69000  time[fs]=69.00000
   C -0.810868817E+01  0.162972774E+00  0.580572485E-01
   C  0.753827583E+01 -0.386107489E+00 -0.648716171E-01
   H -0.396980305E+02  0.124784591E+01 -0.310478694E+01
   H  0.381898089E+02  0.243841200E+01  0.221279929E+01
     4
 # iter = 69500  time[fs]=69.50000
   C -0.819797140E+01  0.164803071E+00  0.592210978E-01
   C  0.762154862E+01 -0.390312479E+00 -0.654211394E-01
   H -0.401043092E+02  0.126060839E+01 -0.313638945E+01
   H  0.385805026E+02  0.246405866E+01  0.223614929E+01
     4
 # iter = 70000  time[fs]=70.00000
   C -0.828730486E+01  0.166634904E+00  0.603858215E-01
   C  0.770487094E+01 -0.394520044E+00 -0.659713903E-01
   H -0.405106967E+02  0.127337435E+01 -0.316800147E+01
   H  0.389713134E+02  0.248971429E+01  0.225950705E+01
     4
 # iter = 70500  time[fs]=70.50000
   C -0.837668746E+01  0.168468242E+00  0.615514030E-01
   C  0.778824172E+01 -0.398730128E+00 -0.665223562E-01
   H -0.409171908E+02  0.128614370E+01 -0.319962283E+01
   H  0.393622392E+02  0.251537871E+01  0.228287244E+01
     4
 # iter = 71000  time[fs]=71.00000
   C -0.846611816E+01  0.170303050E+00  0.627178263E-01
   C  0.787165992E+01 -0.402942679E+00 -0.670740239E-01
   H -0.413237895E+02  0.129891639E+01 -0.323125334E+01
   H  0.397532776E+02  0.254105176E+01  0.230624530E+01
     4
 # iter = 71500  time[fs]=71.50000
   C -0.855559593E+01  0.172139297E+00  0.638850757E-01
   C  0.795512453E+01 -0.407157648E+00 -0.676263806E-01
   H -0.417304908E+02  0.131169234E+01 -0.326289283E+01
   H  0.401444265E+02  0.256673327E+01  0.232962549E+01
     4
 # iter = 72000  time[fs]=72.00000
   C -0.864511979E+01  0.173976953E+00  0.650531361E-01
   C  0.803863459E+01 -0.411374985E+00 -0.681794137E-01
   H -0.421372926E+02  0.132447151E+01 -0.329454112E+01
   H  0.405356837E+02  0.259242309E+01  0.235301287E+01
     4
 # iter = 72500  time[fs]=72.50000
   C -0.873468877E+01  0.175815989E+00  0.662219927E-01
   C  0.812218913E+01 -0.415594643E+00 -0.687331113E-01
   H -0.425441931E+02  0.133725382E+01 -0.332619805E+01
   H  0.409270471E+02  0.261812106E+01  0.237640730E+01
     4
 # iter = 73000  time[fs]=73.00000
   C -0.882430196E+01  0.177656374E+00  0.673916312E-01
   C  0.820578726E+01 -0.419816575E+00 -0.692874613E-01
   H -0.429511904E+02  0.135003921E+01 -0.335786346E+01
   H  0.413185148E+02  0.264382704E+01  0.239980866E+01
     4
 # iter = 73500  time[fs]=73.50000
   C -0.891395844E+01  0.179498083E+00  0.685620374E-01
   C  0.828942807E+01 -0.424040737E+00 -0.698424522E-01
   H -0.433582826E+02  0.136282764E+01 -0.338953719E+01
   H  0.417100848E+02  0.266954087E+01  0.242321682E+01
     4
 # iter = 74000  time[fs]=74.00000
   C -0.900365735E+01  0.181341087E+00  0.697331979E-01
   C  0.837311071E+01 -0.428267085E+00 -0.703980729E-01
   H -0.437654680E+02  0.137561903E+01 -0.342121908E+01
   H  0.421017553E+02  0.269526241E+01  0.244663166E+01
     4
 # iter = 74500  time[fs]=74.50000
   C -0.909339783E+01  0.183185361E+00  0.709050993E-01
   C  0.845683434E+01 -0.432495577E+00 -0.709543123E-01
   H -0.441727450E+02  0.138841335E+01 -0.345290900E+01
   H  0.424935242E+02  0.272099153E+01  0.247005305E+01
     4
 # iter = 75000  time[fs]=75.00000
   C -0.918317907E+01  0.185030878E+00  0.720777287E-01
   C  0.854059814E+01 -0.436726172E+00 -0.715111598E-01
   H -0.445801118E+02  0.140121053E+01 -0.348460680E+01
   H  0.428853900E+02  0.274672809E+01  0.249348088E+01
     4
 # iter = 75500  time[fs]=75.50000
   C -0.927300027E+01  0.186877615E+00  0.732510735E-01
   C  0.862440132E+01 -0.440958830E+00 -0.720686049E-01
   H -0.449875668E+02  0.141401052E+01 -0.351631233E+01
   H  0.432773508E+02  0.277247196E+01  0.251691503E+01
     4
 # iter = 76000  time[fs]=76.00000
   C -0.936286064E+01  0.188725548E+00  0.744251214E-01
   C  0.870824313E+01 -0.445193513E+00 -0.726266376E-01
   H -0.453951084E+02  0.142681328E+01 -0.354802546E+01
   H  0.436694049E+02  0.279822302E+01  0.254035540E+01
     4
 # iter = 76500  time[fs]=76.50000
   C -0.945275943E+01  0.190574652E+00  0.755998605E-01
   C  0.879212281E+01 -0.449430181E+00 -0.731852480E-01
   H -0.458027351E+02  0.143961875E+01 -0.357974606E+01
   H  0.440615507E+02  0.282398113E+01  0.256380187E+01
     4
 # iter = 77000  time[fs]=77.00000
   C -0.954269591E+01  0.192424906E+00  0.767752790E-01
   C  0.887603964E+01 -0.453668800E+00 -0.737444264E-01
   H -0.462104455E+02  0.145242688E+01 -0.361147400E+01
   H  0.444537865E+02  0.284974618E+01  0.258725433E+01
     4
 # iter = 77500  time[fs]=77.50000
   C -0.963266937E+01  0.194276288E+00  0.779513655E-01
   C  0.895999292E+01 -0.457909333E+00 -0.743041633E-01
   H -0.466182379E+02  0.146523764E+01 -0.364320914E+01
   H  0.448461109E+02  0.287551805E+01  0.261071270E+01
     4
 # iter = 78000  time[fs]=78.00000
   C -0.972267911E+01  0.196128776E+00  0.791281091E-01
   C  0.904398197E+01 -0.462151745E+00 -0.748644496E-01
   H -0.470261111E+02  0.147805097E+01 -0.367495137E+01
   H  0.452385222E+02  0.290129663E+01  0.263417686E+01
     4
 # iter = 78500  time[fs]=78.50000
   C -0.981272446E+01  0.197982349E+00  0.803054988E-01
   C  0.912800611E+01 -0.466396003E+00 -0.754252764E-01
   H -0.474340637E+02  0.149086683E+01 -0.370670057E+01
   H  0.456310189E+02  0.292708179E+01  0.265764672E+01
     4
 # iter = 79000  time[fs]=79.00000
   C -0.990280476E+01  0.199836988E+00  0.814835241E-01
   C  0.921206470E+01 -0.470642074E+00 -0.759866348E-01
   H -0.478420942E+02  0.150368518E+01 -0.373845662E+01
   H  0.460235997E+02  0.295287344E+01  0.268112218E+01
     4
 # iter = 79500  time[fs]=79.50000
   C -0.999291938E+01  0.201692672E+00  0.826621746E-01
   C  0.929615711E+01 -0.474889926E+00 -0.765485164E-01
   H -0.482502014E+02  0.151650598E+01 -0.377021940E+01
   H  0.464162631E+02  0.297867147E+01  0.270460315E+01
     4
 # iter = 80000  time[fs]=80.00000
   C -0.100830677E+02  0.203549383E+00  0.838414403E-01
   C  0.938028273E+01 -0.479139527E+00 -0.771109128E-01
   H -0.486583840E+02  0.152932918E+01 -0.380198881E+01
   H  0.468090077E+02  0.300447576E+01  0.272808954E+01
