     4
 # iter = 25000  time[fs]=25.00000
   C -0.928318355E+00 -0.303078998E-01  0.489106210E-01
   C  0.104195841E+01 -0.228773585E-01  0.600183424E-02
   H -0.518925744E+01  0.307160888E+00 -0.195690706E+00
   H  0.536495491E+01  0.414194210E+00 -0.415397018E+00
     4
 # iter = 25500  time[fs]=25.50000
   C -0.971137535E+00 -0.340912694E-01  0.503264833E-01
   C  0.108585300E+01 -0.265826442E-01  0.582227817E-02
   H -0.552922296E+01  0.317114780E+00 -0.217610557E+00
   H  0.567683680E+01  0.431131786E+00 -0.449745058E+00
     4
 # iter = 26000  time[fs]=26.00000
   C -0.101775268E+01 -0.387179643E-01  0.510280784E-01
   C  0.113154491E+01 -0.314701078E-01  0.446388572E-02
   H -0.587982864E+01  0.321998048E+00 -0.245165785E+00
   H  0.598906759E+01  0.443171013E+00 -0.490015491E+00
     4
 # iter = 26500  time[fs]=26.50000
   C -0.106552246E+01 -0.417854676E-01  0.534047954E-01
   C  0.118221705E+01 -0.341090312E-01  0.535606191E-02
   H -0.622438774E+01  0.337842650E+00 -0.262256808E+00
   H  0.631713777E+01  0.466349310E+00 -0.520065227E+00
     4
 # iter = 27000  time[fs]=27.00000
   C -0.111409749E+01 -0.431718234E-01  0.575670320E-01
   C  0.123781075E+01 -0.343265990E-01  0.867078073E-02
   H -0.656160215E+01  0.365411243E+00 -0.268066221E+00
   H  0.666130973E+01  0.501415618E+00 -0.539051283E+00
     4
 # iter = 27500  time[fs]=27.50000
   C -0.116504586E+01 -0.446586591E-01  0.617229735E-01
   C  0.129556517E+01 -0.346695139E-01  0.118608023E-01
   H -0.690301593E+01  0.392718756E+00 -0.274534402E+00
   H  0.700913517E+01  0.536355762E+00 -0.558903830E+00
     4
 # iter = 28000  time[fs]=28.00000
   C -0.121943229E+01 -0.475061219E-01  0.646034675E-01
   C  0.135348279E+01 -0.369393174E-01  0.131243682E-01
   H -0.725673230E+01  0.411281420E+00 -0.290106698E+00
   H  0.735173361E+01  0.562663043E+00 -0.588057325E+00
     4
 # iter = 28500  time[fs]=28.50000
   C -0.127656862E+01 -0.512020561E-01  0.667126963E-01
   C  0.141211652E+01 -0.404051282E-01  0.131924190E-01
   H -0.761901215E+01  0.424499432E+00 -0.311348688E+00
   H  0.769218411E+01  0.583731661E+00 -0.623056820E+00
     4
 # iter = 29000  time[fs]=29.00000
   C -0.133504284E+01 -0.544931888E-01  0.692968715E-01
   C  0.147309503E+01 -0.432770862E-01  0.138550187E-01
   H -0.798118426E+01  0.440744491E+00 -0.329858443E+00
   H  0.803858959E+01  0.607934984E+00 -0.655476891E+00
     4
 # iter = 29500  time[fs]=29.50000
   C -0.139427675E+01 -0.569455952E-01  0.727836641E-01
   C  0.153689139E+01 -0.449362460E-01  0.157313403E-01
   H -0.834010741E+01  0.462898506E+00 -0.342727956E+00
   H  0.839358787E+01  0.638150618E+00 -0.682393715E+00
     4
 # iter = 30000  time[fs]=30.00000
   C -0.145474341E+01 -0.591635808E-01  0.765632225E-01
   C  0.160250892E+01 -0.462473429E-01  0.179568566E-01
   H -0.869963351E+01  0.486885794E+00 -0.354010467E+00
   H  0.875287558E+01  0.670290600E+00 -0.707853642E+00
     4
 # iter = 30500  time[fs]=30.50000
   C -0.151699859E+01 -0.618215994E-01  0.799561618E-01
   C  0.166886365E+01 -0.481752376E-01  0.195669081E-01
   H -0.906410901E+01  0.508163394E+00 -0.368229254E+00
   H  0.911170594E+01  0.699799801E+00 -0.736374725E+00
     4
 # iter = 31000  time[fs]=31.00000
   C -0.158094368E+01 -0.649278391E-01  0.829498990E-01
   C  0.173583570E+01 -0.507324418E-01  0.205491886E-01
   H -0.943343114E+01  0.526658288E+00 -0.385439721E+00
   H  0.946983120E+01  0.726599254E+00 -0.768003270E+00
     4
 # iter = 31500  time[fs]=31.50000
   C -0.164604060E+01 -0.680403416E-01  0.859824662E-01
   C  0.180395915E+01 -0.532880397E-01  0.215348135E-01
   H -0.980449482E+01  0.545317722E+00 -0.402678795E+00
   H  0.983004781E+01  0.753634621E+00 -0.799764725E+00
     4
 # iter = 32000  time[fs]=32.00000
   C -0.171192816E+01 -0.708847674E-01  0.893246889E-01
   C  0.187353790E+01 -0.554506682E-01  0.229153223E-01
   H -0.101753344E+02  0.565966381E+00 -0.418107656E+00
   H  0.101940443E+02  0.782728133E+00 -0.829810943E+00
     4
 # iter = 32500  time[fs]=32.50000
   C -0.177864250E+01 -0.735759433E-01  0.928585892E-01
   C  0.194432801E+01 -0.573851682E-01  0.245260194E-01
   H -0.105466078E+02  0.587820610E+00 -0.432497367E+00
   H  0.105609110E+02  0.813090908E+00 -0.858907329E+00
     4
 # iter = 33000  time[fs]=33.00000
   C -0.184635021E+01 -0.763517841E-01  0.963434192E-01
   C  0.201591718E+01 -0.594322490E-01  0.260263142E-01
   H -0.109198100E+02  0.609272709E+00 -0.447444332E+00
   H  0.109289250E+02  0.843109378E+00 -0.888646174E+00
     4
 # iter = 33500  time[fs]=33.50000
   C -0.191505577E+01 -0.792814026E-01  0.997075125E-01
   C  0.208814113E+01 -0.616912687E-01  0.273169482E-01
   H -0.112953135E+02  0.629848280E+00 -0.463412739E+00
   H  0.112975089E+02  0.872304999E+00 -0.919486780E+00
     4
 # iter = 34000  time[fs]=34.00000
   C -0.198459795E+01 -0.822621870E-01  0.103051174E+00
   C  0.216108715E+01 -0.640160701E-01  0.285441602E-01
   H -0.116723475E+02  0.650225614E+00 -0.479715014E+00
   H  0.116672495E+02  0.901353639E+00 -0.950735860E+00
     4
 # iter = 34500  time[fs]=34.50000
   C -0.205482317E+01 -0.851938521E-01  0.106472598E+00
   C  0.223484455E+01 -0.662637866E-01  0.298508819E-01
   H -0.120501643E+02  0.671068235E+00 -0.495679192E+00
   H  0.120387269E+02  0.930916661E+00 -0.981716199E+00
     4
 # iter = 35000  time[fs]=35.00000
   C -0.212568390E+01 -0.880774085E-01  0.109968880E+00
   C  0.230936269E+01 -0.684363147E-01  0.312352645E-01
   H -0.124287026E+02  0.692361056E+00 -0.511312678E+00
   H  0.124118493E+02  0.960976235E+00 -0.101243113E+01
     4
 # iter = 35500  time[fs]=35.50000
   C -0.219719220E+01 -0.909692415E-01  0.113481910E+00
   C  0.238451607E+01 -0.706146701E-01  0.326163254E-01
   H -0.128082782E+02  0.713718317E+00 -0.526994226E+00
   H  0.127861601E+02  0.991143622E+00 -0.104325610E+01
     4
 # iter = 36000  time[fs]=36.00000
   C -0.226933805E+01 -0.938998256E-01  0.116979640E+00
   C  0.246022010E+01 -0.728427926E-01  0.339501454E-01
   H -0.131890389E+02  0.734928698E+00 -0.542928739E+00
   H  0.131613834E+02  0.102120493E+01 -0.107439280E+01
     4
 # iter = 36500  time[fs]=36.50000
   C -0.234207036E+01 -0.968551334E-01  0.120474662E+00
   C  0.253645731E+01 -0.751009756E-01  0.352564415E-01
   H -0.135708380E+02  0.756079926E+00 -0.559022594E+00
   H  0.135375478E+02  0.105124585E+01 -0.110574433E+01
     4
 # iter = 37000  time[fs]=37.00000
   C -0.241533092E+01 -0.998109283E-01  0.123989899E+00
   C  0.261322791E+01 -0.773548916E-01  0.365695427E-01
   H -0.139534652E+02  0.777328705E+00 -0.575113661E+00
   H  0.139147558E+02  0.108142129E+01 -0.113714544E+01
     4
 # iter = 37500  time[fs]=37.50000
   C -0.248908225E+01 -0.102760939E+00  0.127530416E+00
   C  0.269050927E+01 -0.795958706E-01  0.378981128E-01
   H -0.143368341E+02  0.798711691E+00 -0.591160282E+00
   H  0.142929939E+02  0.111176613E+01 -0.116855173E+01
     4
 # iter = 38000  time[fs]=38.00000
   C -0.256330422E+01 -0.105713751E+00  0.131086518E+00
   C  0.276826002E+01 -0.818364605E-01  0.392295905E-01
   H -0.147209613E+02  0.820166293E+00 -0.607220428E+00
   H  0.146721531E+02  0.114221600E+01 -0.120001872E+01
     4
 # iter = 38500  time[fs]=38.50000
   C -0.263797773E+01 -0.108676728E+00  0.134649822E+00
   C  0.284644285E+01 -0.840874386E-01  0.405531798E-01
   H -0.151058587E+02  0.841638500E+00 -0.623343833E+00
   H  0.150521362E+02  0.117271522E+01 -0.123159389E+01
     4
 # iter = 39000  time[fs]=39.00000
   C -0.271307775E+01 -0.111649258E+00  0.138219999E+00
   C  0.292503391E+01 -0.863481606E-01  0.418695016E-01
   H -0.154914869E+02  0.863128142E+00 -0.639526699E+00
   H  0.154329033E+02  0.120326216E+01 -0.126327128E+01
     4
 # iter = 39500  time[fs]=39.50000
   C -0.278857759E+01 -0.114627220E+00  0.141800300E+00
   C  0.300401623E+01 -0.886129542E-01  0.431842010E-01
   H -0.158777860E+02  0.884658865E+00 -0.655741696E+00
   H  0.158144409E+02  0.123387910E+01 -0.129502152E+01
     4
 # iter = 40000  time[fs]=40.00000
   C -0.286445426E+01 -0.117608520E+00  0.145392015E+00
   C  0.308337165E+01 -0.908790223E-01  0.445000444E-01
   H -0.162647116E+02  0.906241026E+00 -0.671975034E+00
   H  0.161967250E+02  0.126457514E+01 -0.132682892E+01
     4
 # iter = 40500  time[fs]=40.50000
   C -0.294068898E+01 -0.120593738E+00  0.148993817E+00
   C  0.316307973E+01 -0.931473820E-01  0.458159819E-01
   H -0.166522395E+02  0.927867274E+00 -0.688230869E+00
   H  0.165797161E+02  0.129534170E+01 -0.135869589E+01
     4
 # iter = 41000  time[fs]=41.00000
   C -0.301726476E+01 -0.123583891E+00  0.152603994E+00
   C  0.324312080E+01 -0.954196589E-01  0.471303526E-01
   H -0.170403503E+02  0.949527570E+00 -0.704516254E+00
   H  0.169633741E+02  0.132616760E+01 -0.139062787E+01
     4
 # iter = 41500  time[fs]=41.50000
   C -0.309416493E+01 -0.126579028E+00  0.156221856E+00
   C  0.332347786E+01 -0.976960816E-01  0.484428911E-01
   H -0.174290198E+02  0.971218588E+00 -0.720831725E+00
   H  0.173476676E+02  0.135704846E+01 -0.142262386E+01
     4
 # iter = 42000  time[fs]=42.00000
   C -0.317137331E+01 -0.129578541E+00  0.159847408E+00
   C  0.340413602E+01 -0.999759327E-01  0.497542769E-01
   H -0.178182208E+02  0.992941579E+00 -0.737173416E+00
   H  0.177325717E+02  0.138798452E+01 -0.145467856E+01
     4
 # iter = 42500  time[fs]=42.50000
   C -0.324887489E+01 -0.132581935E+00  0.163480585E+00
   C  0.348508129E+01 -0.102258643E+00  0.510650402E-01
   H -0.182079288E+02  0.101469723E+01 -0.753538190E+00
   H  0.181180625E+02  0.141897555E+01 -0.148678746E+01
     4
 # iter = 43000  time[fs]=43.00000
   C -0.332665597E+01 -0.135589055E+00  0.167121020E+00
   C  0.356630018E+01 -0.104544121E+00  0.523752329E-01
   H -0.185981223E+02  0.103648411E+01 -0.769925181E+00
   H  0.185041153E+02  0.145001923E+01 -0.151894845E+01
     4
 # iter = 43500  time[fs]=43.50000
   C -0.340470384E+01 -0.138599874E+00  0.170768250E+00
   C  0.364777991E+01 -0.106832449E+00  0.536847332E-01
   H -0.189887823E+02  0.105830007E+01 -0.786334363E+00
   H  0.188907063E+02  0.148111257E+01 -0.155116030E+01
     4
 # iter = 44000  time[fs]=44.00000
   C -0.348300656E+01 -0.141614295E+00  0.174421914E+00
   C  0.372950860E+01 -0.109123602E+00  0.549935250E-01
   H -0.193798903E+02  0.108014359E+01 -0.802765243E+00
   H  0.192778136E+02  0.151225326E+01 -0.158342139E+01
     4
 # iter = 44500  time[fs]=44.50000
   C -0.356155285E+01 -0.144632149E+00  0.178081752E+00
   C  0.381147528E+01 -0.111417444E+00  0.563017047E-01
   H -0.197714285E+02  0.110201374E+01 -0.819216817E+00
   H  0.196654170E+02  0.154343964E+01 -0.161572967E+01
     4
 # iter = 45000  time[fs]=45.00000
   C -0.364033212E+01 -0.147653265E+00  0.181747530E+00
   C  0.389366963E+01 -0.113713833E+00  0.576093748E-01
   H -0.201633799E+02  0.112390972E+01 -0.835688080E+00
   H  0.200534976E+02  0.157467021E+01 -0.164808312E+01
     4
 # iter = 45500  time[fs]=45.50000
   C -0.371933446E+01 -0.150677509E+00  0.185419003E+00
   C  0.397608195E+01 -0.116012670E+00  0.589165935E-01
   H -0.205557286E+02  0.114583061E+01 -0.852178253E+00
   H  0.204420372E+02  0.160594336E+01 -0.168048002E+01
     4
 # iter = 46000  time[fs]=46.00000
   C -0.379855055E+01 -0.153704771E+00  0.189095926E+00
   C  0.405870309E+01 -0.118313886E+00  0.602233920E-01
   H -0.209484598E+02  0.116777541E+01 -0.868686706E+00
   H  0.208310187E+02  0.163725749E+01 -0.171291884E+01
     4
 # iter = 46500  time[fs]=46.50000
   C -0.387797164E+01 -0.156734944E+00  0.192778069E+00
   C  0.414152444E+01 -0.120617408E+00  0.615298025E-01
   H -0.213415594E+02  0.118974322E+01 -0.885212823E+00
   H  0.212204259E+02  0.166861108E+01 -0.174539812E+01
     4
 # iter = 47000  time[fs]=47.00000
   C -0.395758945E+01 -0.159767918E+00  0.196465225E+00
   C  0.422453791E+01 -0.122923160E+00  0.628358636E-01
   H -0.217350142E+02  0.121173322E+01 -0.901755976E+00
   H  0.216102435E+02  0.170000276E+01 -0.177791643E+01
     4
 # iter = 47500  time[fs]=47.50000
   C -0.403739619E+01 -0.162803589E+00  0.200157197E+00
   C  0.430773587E+01 -0.125231066E+00  0.641416136E-01
   H -0.221288115E+02  0.123374464E+01 -0.918315555E+00
   H  0.220004569E+02  0.173143121E+01 -0.181047239E+01
     4
 # iter = 48000  time[fs]=48.00000
   C -0.411738452E+01 -0.165841859E+00  0.203853803E+00
   C  0.439111110E+01 -0.127541055E+00  0.654470858E-01
   H -0.225229393E+02  0.125577675E+01 -0.934890992E+00
   H  0.223910524E+02  0.176289520E+01 -0.184306471E+01
     4
 # iter = 48500  time[fs]=48.50000
   C -0.419754746E+01 -0.168882638E+00  0.207554864E+00
   C  0.447465681E+01 -0.129853062E+00  0.667523087E-01
   H -0.229173862E+02  0.127782885E+01 -0.951481755E+00
   H  0.227820168E+02  0.179439353E+01 -0.187569218E+01
     4
 # iter = 49000  time[fs]=49.00000
   C -0.427787847E+01 -0.171925838E+00  0.211260216E+00
   C  0.455836655E+01 -0.132167025E+00  0.680573087E-01
   H -0.233121414E+02  0.129990027E+01 -0.968087341E+00
   H  0.231733378E+02  0.182592506E+01 -0.190835364E+01
     4
 # iter = 49500  time[fs]=49.50000
   C -0.435837130E+01 -0.174971376E+00  0.214969700E+00
   C  0.464223423E+01 -0.134482884E+00  0.693621103E-01
   H -0.237071946E+02  0.132199037E+01 -0.984707266E+00
   H  0.235650036E+02  0.185748873E+01 -0.194104797E+01
     4
 # iter = 50000  time[fs]=50.00000
   C -0.443902008E+01 -0.178019175E+00  0.218683168E+00
   C  0.472625409E+01 -0.136800582E+00  0.706667365E-01
   H -0.241025362E+02  0.134409855E+01 -0.100134107E+01
   H  0.239570028E+02  0.188908350E+01 -0.197377413E+01
     4
 # iter = 50500  time[fs]=50.50000
   C -0.451981920E+01 -0.181069159E+00  0.222400479E+00
   C  0.481042065E+01 -0.139120063E+00  0.719712082E-01
   H -0.244981567E+02  0.136622423E+01 -0.101798831E+01
   H  0.243493248E+02  0.192070840E+01 -0.200653110E+01
     4
 # iter = 51000  time[fs]=51.00000
   C -0.460076337E+01 -0.184121257E+00  0.226121498E+00
   C  0.489472871E+01 -0.141441277E+00  0.732755447E-01
   H -0.248940473E+02  0.138836687E+01 -0.103464857E+01
   H  0.247419593E+02  0.195236250E+01 -0.203931794E+01
     4
 # iter = 51500  time[fs]=51.50000
   C -0.468184755E+01 -0.187175401E+00  0.229846099E+00
   C  0.497917336E+01 -0.143764172E+00  0.745797638E-01
   H -0.252901996E+02  0.141052593E+01 -0.105132146E+01
   H  0.251348967E+02  0.198404490E+01 -0.207213372E+01
     4
 # iter = 52000  time[fs]=52.00000
   C -0.476306695E+01 -0.190231527E+00  0.233574161E+00
   C  0.506374990E+01 -0.146088701E+00  0.758838817E-01
   H -0.256866054E+02  0.143270093E+01 -0.106800658E+01
   H  0.255281275E+02  0.201575475E+01 -0.210497757E+01
     4
 # iter = 52500  time[fs]=52.50000
   C -0.484441702E+01 -0.193289572E+00  0.237305568E+00
   C  0.514845388E+01 -0.148414818E+00  0.771879135E-01
   H -0.260832572E+02  0.145489138E+01 -0.108470359E+01
   H  0.259216430E+02  0.204749124E+01 -0.213784866E+01
     4
 # iter = 53000  time[fs]=53.00000
   C -0.492589342E+01 -0.196349478E+00  0.241040211E+00
   C  0.523328105E+01 -0.150742480E+00  0.784918732E-01
   H -0.264801475E+02  0.147709683E+01 -0.110141212E+01
   H  0.263154346E+02  0.207925359E+01 -0.217074620E+01
     4
 # iter = 53500  time[fs]=53.50000
   C -0.500749202E+01 -0.199411188E+00  0.244777986E+00
   C  0.531822739E+01 -0.153071643E+00  0.797957736E-01
   H -0.268772692E+02  0.149931684E+01 -0.111813184E+01
   H  0.267094943E+02  0.211104106E+01 -0.220366940E+01
     4
 # iter = 54000  time[fs]=54.00000
   C -0.508920889E+01 -0.202474649E+00  0.248518794E+00
   C  0.540328904E+01 -0.155402267E+00  0.810996264E-01
   H -0.272746157E+02  0.152155099E+01 -0.113486244E+01
   H  0.271038141E+02  0.214285293E+01 -0.223661755E+01
     4
 # iter = 54500  time[fs]=54.50000
   C -0.517104028E+01 -0.205539810E+00  0.252262539E+00
   C  0.548846233E+01 -0.157734314E+00  0.824034426E-01
   H -0.276721805E+02  0.154379889E+01 -0.115160361E+01
   H  0.274983868E+02  0.217468852E+01 -0.226958994E+01
     4
 # iter = 55000  time[fs]=55.00000
   C -0.525298260E+01 -0.208606620E+00  0.256009130E+00
   C  0.557374375E+01 -0.160067747E+00  0.837072324E-01
   H -0.280699575E+02  0.156606014E+01 -0.116835505E+01
   H  0.278932051E+02  0.220654717E+01 -0.230258590E+01
     4
 # iter = 55500  time[fs]=55.50000
   C -0.533503243E+01 -0.211675032E+00  0.259758483E+00
   C  0.565912997E+01 -0.162402528E+00  0.850110048E-01
   H -0.284679406E+02  0.158833438E+01 -0.118511649E+01
   H  0.282882622E+02  0.223842825E+01 -0.233560479E+01
     4
 # iter = 56000  time[fs]=56.00000
   C -0.541718649E+01 -0.214745003E+00  0.263510512E+00
   C  0.574461778E+01 -0.164738625E+00  0.863147687E-01
   H -0.288661242E+02  0.161062126E+01 -0.120188766E+01
   H  0.286835516E+02  0.227033117E+01 -0.236864598E+01
     4
 # iter = 56500  time[fs]=56.50000
   C -0.549944167E+01 -0.217816487E+00  0.267265141E+00
   C  0.583020412E+01 -0.167076003E+00  0.876185318E-01
   H -0.292645029E+02  0.163292043E+01 -0.121866829E+01
   H  0.290790670E+02  0.230225533E+01 -0.240170887E+01
     4
 # iter = 57000  time[fs]=57.00000
   C -0.558179497E+01 -0.220889444E+00  0.271022293E+00
   C  0.591588607E+01 -0.169414630E+00  0.889223016E-01
   H -0.296630714E+02  0.165523158E+01 -0.123545813E+01
   H  0.294748023E+02  0.233420019E+01 -0.243479291E+01
     4
 # iter = 57500  time[fs]=57.50000
   C -0.566424352E+01 -0.223963833E+00  0.274781894E+00
   C  0.600166084E+01 -0.171754477E+00  0.902260847E-01
   H -0.300618247E+02  0.167755439E+01 -0.125225695E+01
   H  0.298707517E+02  0.236616521E+01 -0.246789753E+01
     4
 # iter = 58000  time[fs]=58.00000
   C -0.574678457E+01 -0.227039616E+00  0.278543877E+00
   C  0.608752573E+01 -0.174095512E+00  0.915298874E-01
   H -0.304607580E+02  0.169988855E+01 -0.126906452E+01
   H  0.302669096E+02  0.239814986E+01 -0.250102222E+01
     4
 # iter = 58500  time[fs]=58.50000
   C -0.582941551E+01 -0.230116756E+00  0.282308175E+00
   C  0.617347818E+01 -0.176437708E+00  0.928337155E-01
   H -0.308598666E+02  0.172223379E+01 -0.128588062E+01
   H  0.306632707E+02  0.243015366E+01 -0.253416646E+01
     4
 # iter = 59000  time[fs]=59.00000
   C -0.591213380E+01 -0.233195219E+00  0.286074722E+00
   C  0.625951573E+01 -0.178781037E+00  0.941375742E-01
   H -0.312591461E+02  0.174458981E+01 -0.130270502E+01
   H  0.310598297E+02  0.246217612E+01 -0.256732975E+01
     4
 # iter = 59500  time[fs]=59.50000
   C -0.599493702E+01 -0.236274969E+00  0.289843459E+00
   C  0.634563600E+01 -0.181125472E+00  0.954414685E-01
   H -0.316585921E+02  0.176695635E+01 -0.131953754E+01
   H  0.314565818E+02  0.249421679E+01 -0.260051164E+01
     4
 # iter = 60000  time[fs]=60.00000
   C -0.607782285E+01 -0.239355974E+00  0.293614326E+00
   C  0.643183673E+01 -0.183470987E+00  0.967454029E-01
   H -0.320582005E+02  0.178933316E+01 -0.133637796E+01
   H  0.318535221E+02  0.252627523E+01 -0.263371167E+01
     4
 # iter = 60500  time[fs]=60.50000
   C -0.616078906E+01 -0.242438202E+00  0.297387267E+00
   C  0.651811574E+01 -0.185817559E+00  0.980493815E-01
   H -0.324579673E+02  0.181171998E+01 -0.135322609E+01
   H  0.322506459E+02  0.255835099E+01 -0.266692939E+01
     4
 # iter = 61000  time[fs]=61.00000
   C -0.624383350E+01 -0.245521623E+00  0.301162228E+00
   C  0.660447093E+01 -0.188165162E+00  0.993534082E-01
   H -0.328578887E+02  0.183411657E+01 -0.137008176E+01
   H  0.326479489E+02  0.259044368E+01 -0.270016439E+01
     4
 # iter = 61500  time[fs]=61.50000
   C -0.632695411E+01 -0.248606208E+00  0.304939155E+00
   C  0.669090029E+01 -0.190513773E+00  0.100657487E+00
   H -0.332579609E+02  0.185652271E+01 -0.138694479E+01
   H  0.330454268E+02  0.262255290E+01 -0.273341626E+01
     4
 # iter = 62000  time[fs]=62.00000
   C -0.641014891E+01 -0.251691928E+00  0.308717999E+00
   C  0.677740189E+01 -0.192863371E+00  0.101961620E+00
   H -0.336581804E+02  0.187893816E+01 -0.140381500E+01
   H  0.334430754E+02  0.265467825E+01 -0.276668460E+01
     4
 # iter = 62500  time[fs]=62.50000
   C -0.649341598E+01 -0.254778756E+00  0.312498711E+00
   C  0.686397385E+01 -0.195213933E+00  0.103265811E+00
   H -0.340585436E+02  0.190136271E+01 -0.142069223E+01
   H  0.338408907E+02  0.268681937E+01 -0.279996903E+01
     4
 # iter = 63000  time[fs]=63.00000
   C -0.657675349E+01 -0.257866666E+00  0.316281244E+00
   C  0.695061439E+01 -0.197565438E+00  0.104570062E+00
   H -0.344590474E+02  0.192379616E+01 -0.143757631E+01
   H  0.342388688E+02  0.271897591E+01 -0.283326920E+01
     4
 # iter = 63500  time[fs]=63.50000
   C -0.666015968E+01 -0.260955632E+00  0.320065555E+00
   C  0.703732178E+01 -0.199917867E+00  0.105874377E+00
   H -0.348596884E+02  0.194623830E+01 -0.145446711E+01
   H  0.346370061E+02  0.275114750E+01 -0.286658473E+01
     4
 # iter = 64000  time[fs]=64.00000
   C -0.674363283E+01 -0.264045630E+00  0.323851598E+00
   C  0.712409434E+01 -0.202271199E+00  0.107178757E+00
   H -0.352604636E+02  0.196868894E+01 -0.147136445E+01
   H  0.350352988E+02  0.278333382E+01 -0.289991529E+01
     4
 # iter = 64500  time[fs]=64.50000
   C -0.682717129E+01 -0.267136637E+00  0.327639333E+00
   C  0.721093049E+01 -0.204625415E+00  0.108483204E+00
   H -0.356613698E+02  0.199114788E+01 -0.148826821E+01
   H  0.354337436E+02  0.281553455E+01 -0.293326055E+01
     4
 # iter = 65000  time[fs]=65.00000
   C -0.691077350E+01 -0.270228629E+00  0.331428720E+00
   C  0.729782867E+01 -0.206980498E+00  0.109787721E+00
   H -0.360624043E+02  0.201361495E+01 -0.150517823E+01
   H  0.358323371E+02  0.284774936E+01 -0.296662019E+01
     4
 # iter = 65500  time[fs]=65.50000
   C -0.699443790E+01 -0.273321584E+00  0.335219718E+00
   C  0.738478738E+01 -0.209336429E+00  0.111092308E+00
   H -0.364635642E+02  0.203608997E+01 -0.152209439E+01
   H  0.362310760E+02  0.287997797E+01 -0.299999389E+01
     4
 # iter = 66000  time[fs]=66.00000
   C -0.707816304E+01 -0.276415481E+00  0.339012291E+00
   C  0.747180519E+01 -0.211693190E+00  0.112396969E+00
   H -0.368648468E+02  0.205857277E+01 -0.153901656E+01
   H  0.366299571E+02  0.291222006E+01 -0.303338136E+01
     4
 # iter = 66500  time[fs]=66.50000
   C -0.716194747E+01 -0.279510299E+00  0.342806403E+00
   C  0.755888071E+01 -0.214050766E+00  0.113701704E+00
   H -0.372662494E+02  0.208106319E+01 -0.155594460E+01
   H  0.370289774E+02  0.294447536E+01 -0.306678230E+01
     4
 # iter = 67000  time[fs]=67.00000
   C -0.724578983E+01 -0.282606018E+00  0.346602018E+00
   C  0.764601259E+01 -0.216409139E+00  0.115006514E+00
   H -0.376677694E+02  0.210356106E+01 -0.157287839E+01
   H  0.374281339E+02  0.297674360E+01 -0.310019643E+01
     4
 # iter = 67500  time[fs]=67.50000
   C -0.732968879E+01 -0.285702619E+00  0.350399102E+00
   C  0.773319953E+01 -0.218768294E+00  0.116311401E+00
   H -0.380694045E+02  0.212606622E+01 -0.158981782E+01
   H  0.378274238E+02  0.300902450E+01 -0.313362348E+01
     4
 # iter = 68000  time[fs]=68.00000
   C -0.741364305E+01 -0.288800083E+00  0.354197623E+00
   C  0.782044028E+01 -0.221128215E+00  0.117616365E+00
   H -0.384711522E+02  0.214857854E+01 -0.160676277E+01
   H  0.382268443E+02  0.304131780E+01 -0.316706318E+01
     4
 # iter = 68500  time[fs]=68.50000
   C -0.749765138E+01 -0.291898392E+00  0.357997549E+00
   C  0.790773363E+01 -0.223488888E+00  0.118921408E+00
   H -0.388730102E+02  0.217109786E+01 -0.162371313E+01
   H  0.386263927E+02  0.307362326E+01 -0.320051528E+01
     4
 # iter = 69000  time[fs]=69.00000
   C -0.758171257E+01 -0.294997528E+00  0.361798850E+00
   C  0.799507841E+01 -0.225850299E+00  0.120226530E+00
   H -0.392749762E+02  0.219362404E+01 -0.164066879E+01
   H  0.390260664E+02  0.310594063E+01 -0.323397953E+01
     4
 # iter = 69500  time[fs]=69.50000
   C -0.766582546E+01 -0.298097474E+00  0.365601495E+00
   C  0.808247347E+01 -0.228212432E+00  0.121531733E+00
   H -0.396770481E+02  0.221615694E+01 -0.165762964E+01
   H  0.394258628E+02  0.313826967E+01 -0.326745568E+01
     4
 # iter = 70000  time[fs]=70.00000
   C -0.774998892E+01 -0.301198214E+00  0.369405455E+00
   C  0.816991772E+01 -0.230575274E+00  0.122837017E+00
   H -0.400792237E+02  0.223869644E+01 -0.167459558E+01
   H  0.398257796E+02  0.317061015E+01 -0.330094349E+01
     4
 # iter = 70500  time[fs]=70.50000
   C -0.783420186E+01 -0.304299731E+00  0.373210704E+00
   C  0.825741010E+01 -0.232938813E+00  0.124142382E+00
   H -0.404815010E+02  0.226124239E+01 -0.169156651E+01
   H  0.402258142E+02  0.320296186E+01 -0.333444275E+01
     4
 # iter = 71000  time[fs]=71.00000
   C -0.791846322E+01 -0.307402010E+00  0.377017214E+00
   C  0.834494958E+01 -0.235303035E+00  0.125447828E+00
   H -0.408838780E+02  0.228379469E+01 -0.170854234E+01
   H  0.406259645E+02  0.323532457E+01 -0.336795323E+01
     4
 # iter = 71500  time[fs]=71.50000
   C -0.800277198E+01 -0.310505035E+00  0.380824959E+00
   C  0.843253515E+01 -0.237667927E+00  0.126753358E+00
   H -0.412863527E+02  0.230635319E+01 -0.172552297E+01
   H  0.410262281E+02  0.326769807E+01 -0.340147471E+01
     4
 # iter = 72000  time[fs]=72.00000
   C -0.808712715E+01 -0.313608793E+00  0.384633913E+00
   C  0.852016586E+01 -0.240033477E+00  0.128058969E+00
   H -0.416889232E+02  0.232891780E+01 -0.174250831E+01
   H  0.414266030E+02  0.330008216E+01 -0.343500699E+01
     4
 # iter = 72500  time[fs]=72.50000
   C -0.817152777E+01 -0.316713269E+00  0.388444052E+00
   C  0.860784075E+01 -0.242399674E+00  0.129364664E+00
   H -0.420915878E+02  0.235148838E+01 -0.175949828E+01
   H  0.418270868E+02  0.333247664E+01 -0.346854986E+01
     4
 # iter = 73000  time[fs]=73.00000
   C -0.825597290E+01 -0.319818448E+00  0.392255352E+00
   C  0.869555893E+01 -0.244766506E+00  0.130670442E+00
   H -0.424943446E+02  0.237406484E+01 -0.177649278E+01
   H  0.422276777E+02  0.336488132E+01 -0.350210313E+01
     4
 # iter = 73500  time[fs]=73.50000
   C -0.834046164E+01 -0.322924318E+00  0.396067790E+00
   C  0.878331952E+01 -0.247133962E+00  0.131976304E+00
   H -0.428971919E+02  0.239664705E+01 -0.179349173E+01
   H  0.426283735E+02  0.339729601E+01 -0.353566660E+01
     4
 # iter = 74000  time[fs]=74.00000
   C -0.842499310E+01 -0.326030866E+00  0.399881344E+00
   C  0.887112165E+01 -0.249502030E+00  0.133282248E+00
   H -0.433001281E+02  0.241923492E+01 -0.181049505E+01
   H  0.430291724E+02  0.342972052E+01 -0.356924008E+01
     4
 # iter = 74500  time[fs]=74.50000
   C -0.850956645E+01 -0.329138078E+00  0.403695991E+00
   C  0.895896449E+01 -0.251870700E+00  0.134588277E+00
   H -0.437031515E+02  0.244182834E+01 -0.182750267E+01
   H  0.434300725E+02  0.346215468E+01 -0.360282340E+01
     4
 # iter = 75000  time[fs]=75.00000
   C -0.859418085E+01 -0.332245943E+00  0.407511711E+00
   C  0.904684725E+01 -0.254239961E+00  0.135894389E+00
   H -0.441062604E+02  0.246442721E+01 -0.184451450E+01
   H  0.438310718E+02  0.349459831E+01 -0.363641637E+01
     4
 # iter = 75500  time[fs]=75.50000
   C -0.867883549E+01 -0.335354448E+00  0.411328482E+00
   C  0.913476913E+01 -0.256609804E+00  0.137200584E+00
   H -0.445094535E+02  0.248703144E+01 -0.186153046E+01
   H  0.442321687E+02  0.352705126E+01 -0.367001883E+01
     4
 # iter = 76000  time[fs]=76.00000
   C -0.876352960E+01 -0.338463581E+00  0.415146285E+00
   C  0.922272937E+01 -0.258980218E+00  0.138506863E+00
   H -0.449127291E+02  0.250964092E+01 -0.187855050E+01
   H  0.446333613E+02  0.355951334E+01 -0.370363061E+01
     4
 # iter = 76500  time[fs]=76.50000
   C -0.884826242E+01 -0.341573332E+00  0.418965101E+00
   C  0.931072725E+01 -0.261351194E+00  0.139813226E+00
   H -0.453160857E+02  0.253225558E+01 -0.189557453E+01
   H  0.450346480E+02  0.359198440E+01 -0.373725154E+01
     4
 # iter = 77000  time[fs]=77.00000
   C -0.893303320E+01 -0.344683689E+00  0.422784909E+00
   C  0.939876203E+01 -0.263722723E+00  0.141119672E+00
   H -0.457195221E+02  0.255487530E+01 -0.191260249E+01
   H  0.454360270E+02  0.362446430E+01 -0.377088147E+01
     4
 # iter = 77500  time[fs]=77.50000
   C -0.901784125E+01 -0.347794642E+00  0.426605693E+00
   C  0.948683302E+01 -0.266094795E+00  0.142426200E+00
   H -0.461230367E+02  0.257750002E+01 -0.192963431E+01
   H  0.458374969E+02  0.365695286E+01 -0.380452023E+01
     4
 # iter = 78000  time[fs]=78.00000
   C -0.910268585E+01 -0.350906179E+00  0.430427435E+00
   C  0.957493955E+01 -0.268467401E+00  0.143732812E+00
   H -0.465266282E+02  0.260012964E+01 -0.194666992E+01
   H  0.462390560E+02  0.368944996E+01 -0.383816768E+01
     4
 # iter = 78500  time[fs]=78.50000
   C -0.918756632E+01 -0.354018291E+00  0.434250115E+00
   C  0.966308094E+01 -0.270840532E+00  0.145039507E+00
   H -0.469302954E+02  0.262276408E+01 -0.196370926E+01
   H  0.466407028E+02  0.372195543E+01 -0.387182368E+01
     4
 # iter = 79000  time[fs]=79.00000
   C -0.927248202E+01 -0.357130968E+00  0.438073719E+00
   C  0.975125657E+01 -0.273214181E+00  0.146346284E+00
   H -0.473340368E+02  0.264540326E+01 -0.198075226E+01
   H  0.470424358E+02  0.375446915E+01 -0.390548807E+01
     4
 # iter = 79500  time[fs]=79.50000
   C -0.935743230E+01 -0.360244199E+00  0.441898229E+00
   C  0.983946580E+01 -0.275588339E+00  0.147653144E+00
   H -0.477378513E+02  0.266804710E+01 -0.199779887E+01
   H  0.474442535E+02  0.378699098E+01 -0.393916072E+01
     4
 # iter = 80000  time[fs]=80.00000
   C -0.944241653E+01 -0.363357976E+00  0.445723629E+00
   C  0.992770802E+01 -0.277962997E+00  0.148960086E+00
   H -0.481417376E+02  0.269069553E+01 -0.201484903E+01
   H  0.478461546E+02  0.381952077E+01 -0.397284150E+01
