     4
 # iter = 25000  time[fs]=25.00000
   C -0.102844428E+01 -0.858734470E-02  0.189386280E-01
   C  0.957441407E+00  0.320584936E-01 -0.604604887E-01
   H -0.525055183E+01 -0.419503814E+00 -0.563499529E+00
   H  0.530192710E+01  0.264776985E+00  0.559089293E+00
     4
 # iter = 25500  time[fs]=25.50000
   C -0.107886381E+01 -0.938413675E-02  0.199534809E-01
   C  0.997976461E+00  0.307193017E-01 -0.649229141E-01
   H -0.559230309E+01 -0.454998444E+00 -0.609257916E+00
   H  0.560504392E+01  0.272794870E+00  0.588114736E+00
     4
 # iter = 26000  time[fs]=26.00000
   C -0.113311113E+01 -0.112456019E-01  0.200798071E-01
   C  0.104039059E+01  0.284991635E-01 -0.704508309E-01
   H -0.594214748E+01 -0.496132544E+00 -0.660740579E+00
   H  0.590537839E+01  0.275539739E+00  0.612052752E+00
     4
 # iter = 26500  time[fs]=26.50000
   C -0.118790933E+01 -0.111285828E-01  0.223446457E-01
   C  0.108722287E+01  0.281739253E-01 -0.742515480E-01
   H -0.628368492E+01 -0.526793611E+00 -0.701825597E+00
   H  0.621876209E+01  0.289094298E+00  0.646967911E+00
     4
 # iter = 27000  time[fs]=27.00000
   C -0.124288609E+01 -0.887727864E-02  0.268892330E-01
   C  0.113838726E+01  0.298747877E-01 -0.761785793E-01
   H -0.661586467E+01 -0.546163585E+00 -0.731687312E+00
   H  0.654575545E+01  0.314243101E+00  0.693628521E+00
     4
 # iter = 27500  time[fs]=27.50000
   C -0.130009712E+01 -0.674618138E-02  0.314459772E-01
   C  0.119160955E+01  0.315253856E-01 -0.782944847E-01
   H -0.695044635E+01 -0.566191831E+00 -0.762268914E+00
   H  0.687417141E+01  0.339000028E+00  0.740033817E+00
     4
 # iter = 28000  time[fs]=28.00000
   C -0.136095580E+01 -0.632976501E-02  0.344086045E-01
   C  0.124523948E+01  0.316557821E-01 -0.820567968E-01
   H -0.729571824E+01 -0.595330206E+00 -0.802016908E+00
   H  0.719535472E+01  0.354882794E+00  0.777688912E+00
     4
 # iter = 28500  time[fs]=28.50000
   C -0.142464858E+01 -0.697865207E-02  0.364158568E-01
   C  0.129970077E+01  0.308539504E-01 -0.868664316E-01
   H -0.764809772E+01 -0.630142507E+00 -0.847490258E+00
   H  0.751257702E+01  0.365308270E+00  0.810000139E+00
     4
 # iter = 29000  time[fs]=29.00000
   C -0.148943949E+01 -0.710529192E-02  0.390457276E-01
   C  0.135629349E+01  0.305688519E-01 -0.912644799E-01
   H -0.799904767E+01 -0.662221536E+00 -0.890277442E+00
   H  0.783410775E+01  0.378670322E+00  0.845352353E+00
     4
 # iter = 29500  time[fs]=29.50000
   C -0.155464472E+01 -0.615995963E-02  0.428393852E-01
   C  0.141538212E+01  0.312991717E-01 -0.947433419E-01
   H -0.834554597E+01 -0.688657491E+00 -0.927464904E+00
   H  0.816273128E+01  0.397864087E+00  0.886632642E+00
     4
 # iter = 30000  time[fs]=30.00000
   C -0.162090854E+01 -0.490788795E-02  0.470239423E-01
   C  0.147614024E+01  0.323391666E-01 -0.980007662E-01
   H -0.869155181E+01 -0.713506258E+00 -0.963105288E+00
   H  0.849427424E+01  0.418816382E+00  0.929760496E+00
     4
 # iter = 30500  time[fs]=30.50000
   C -0.168897598E+01 -0.420321674E-02  0.507383977E-01
   C  0.153767252E+01  0.329022497E-01 -0.101816170E+00
   H -0.904150653E+01 -0.741294103E+00 -0.100172200E+01
   H  0.882410493E+01  0.436985000E+00  0.970187148E+00
     4
 # iter = 31000  time[fs]=31.00000
   C -0.175875902E+01 -0.405633113E-02  0.539662001E-01
   C  0.159986808E+01  0.329756934E-01 -0.106195848E+00
   H -0.939538947E+01 -0.772076680E+00 -0.104336809E+01
   H  0.915207723E+01  0.452302740E+00  0.100783960E+01
     4
 # iter = 31500  time[fs]=31.50000
   C -0.182960925E+01 -0.390757933E-02  0.572614536E-01
   C  0.166314841E+01  0.330696818E-01 -0.110623835E+00
   H -0.975016716E+01 -0.802889272E+00 -0.108507651E+01
   H  0.948107764E+01  0.467725991E+00  0.104566911E+01
     4
 # iter = 32000  time[fs]=32.00000
   C -0.190109919E+01 -0.340968470E-02  0.609664409E-01
   C  0.172774935E+01  0.335001520E-01 -0.114778993E+00
   H -0.101039382E+02 -0.831892032E+00 -0.112500527E+01
   H  0.981287513E+01  0.485086562E+00  0.108550284E+01
     4
 # iter = 32500  time[fs]=32.50000
   C -0.197330198E+01 -0.270832332E-02  0.649309864E-01
   C  0.179346302E+01  0.341315792E-01 -0.118792153E+00
   H -0.104574191E+02 -0.859856514E+00 -0.116392404E+01
   H  0.101466322E+02  0.503604038E+00  0.112655617E+01
     4
 # iter = 33000  time[fs]=33.00000
   C -0.204645349E+01 -0.210508850E-02  0.688494340E-01
   C  0.185994578E+01  0.346858162E-01 -0.122937220E+00
   H -0.108121580E+02 -0.888380107E+00 -0.120342848E+01
   H  0.104806910E+02  0.521672413E+00  0.116721923E+01
     4
 # iter = 33500  time[fs]=33.50000
   C -0.212058193E+01 -0.168777217E-02  0.726303150E-01
   C  0.192705625E+01  0.350808964E-01 -0.127292324E+00
   H -0.111685746E+02 -0.917927325E+00 -0.124398154E+01
   H  0.108145327E+02  0.538820023E+00  0.120701685E+01
     4
 # iter = 34000  time[fs]=34.00000
   C -0.219550345E+01 -0.132666416E-02  0.764000052E-01
   C  0.199485801E+01  0.354343920E-01 -0.131736412E+00
   H -0.115259402E+02 -0.947810243E+00 -0.128489386E+01
   H  0.111487971E+02  0.555729027E+00  0.124662801E+01
     4
 # iter = 34500  time[fs]=34.50000
   C -0.227104203E+01 -0.895012435E-03  0.802822277E-01
   C  0.206341699E+01  0.358613360E-01 -0.136151289E+00
   H -0.118835453E+02 -0.977356533E+00 -0.132549179E+01
   H  0.114841122E+02  0.573066519E+00  0.128671689E+01
     4
 # iter = 35000  time[fs]=35.00000
   C -0.234715433E+01 -0.394377134E-03  0.842726663E-01
   C  0.213268599E+01  0.363593110E-01 -0.140536495E+00
   H -0.122413635E+02 -0.100657361E+01 -0.136578154E+01
   H  0.118204298E+02  0.590819872E+00  0.132726819E+01
     4
 # iter = 35500  time[fs]=35.50000
   C -0.242387104E+01  0.103543162E-03  0.882971098E-01
   C  0.220255760E+01  0.368617432E-01 -0.144955978E+00
   H -0.125997427E+02 -0.103584045E+01 -0.140614099E+01
   H  0.121573332E+02  0.608605088E+00  0.136789544E+01
     4
 # iter = 36000  time[fs]=36.00000
   C -0.250119353E+01  0.559877390E-03  0.923143917E-01
   C  0.227295806E+01  0.373322507E-01 -0.149443718E+00
   H -0.129588596E+02 -0.106536208E+01 -0.144677412E+01
   H  0.124945828E+02  0.626212617E+00  0.140838682E+01
     4
 # iter = 36500  time[fs]=36.50000
   C -0.257906992E+01  0.992131030E-03  0.963399166E-01
   C  0.234386852E+01  0.377862115E-01 -0.153982142E+00
   H -0.133185944E+02 -0.109504481E+01 -0.148758631E+01
   H  0.128322404E+02  0.643732154E+00  0.144882991E+01
     4
 # iter = 37000  time[fs]=37.00000
   C -0.265743823E+01  0.143074825E-02  0.100402202E+00
   C  0.241528488E+01  0.382509411E-01 -0.158541918E+00
   H -0.136787606E+02 -0.112472643E+01 -0.152841447E+01
   H  0.131704392E+02  0.661322301E+00  0.148938139E+01
     4
 # iter = 37500  time[fs]=37.50000
   C -0.273626177E+01  0.188342375E-02  0.104507174E+00
   C  0.248718478E+01  0.387329743E-01 -0.163114659E+00
   H -0.140392945E+02 -0.115436523E+01 -0.156921608E+01
   H  0.135091937E+02  0.679021320E+00  0.153007769E+01
     4
 # iter = 38000  time[fs]=38.00000
   C -0.281552495E+01  0.233903912E-02  0.108642084E+00
   C  0.255953101E+01  0.392216640E-01 -0.167709306E+00
   H -0.144002332E+02 -0.118401921E+01 -0.161004838E+01
   H  0.138484207E+02  0.696767976E+00  0.157085591E+01
     4
 # iter = 38500  time[fs]=38.50000
   C -0.289521271E+01  0.278803519E-02  0.112795874E+00
   C  0.263228986E+01  0.397078436E-01 -0.172333455E+00
   H -0.147616076E+02 -0.121373811E+01 -0.165096040E+01
   H  0.141880471E+02  0.714509512E+00  0.161166172E+01
     4
 # iter = 39000  time[fs]=39.00000
   C -0.297530175E+01  0.323096557E-02  0.116967711E+00
   C  0.270543884E+01  0.401916598E-01 -0.176985506E+00
   H -0.151233960E+02 -0.124351811E+01 -0.169194768E+01
   H  0.145280549E+02  0.732246974E+00  0.165249472E+01
     4
 # iter = 39500  time[fs]=39.50000
   C -0.305576600E+01  0.367283298E-02  0.121161316E+00
   C  0.277896125E+01  0.406773761E-01 -0.181659850E+00
   H -0.154855545E+02 -0.127333186E+01 -0.173298223E+01
   H  0.148684512E+02  0.750005164E+00  0.169337833E+01
     4
 # iter = 40000  time[fs]=40.00000
   C -0.313658350E+01  0.411608685E-02  0.125377951E+00
   C  0.285283965E+01  0.411669510E-01 -0.186353285E+00
   H -0.158480540E+02 -0.130316552E+01 -0.177404966E+01
   H  0.152092310E+02  0.767795492E+00  0.173432270E+01
     4
 # iter = 40500  time[fs]=40.50000
   C -0.321773710E+01  0.455979310E-02  0.129615582E+00
   C  0.292705489E+01  0.416592722E-01 -0.191065767E+00
   H -0.162108841E+02 -0.133302325E+01 -0.181515357E+01
   H  0.155503724E+02  0.785611565E+00  0.177532024E+01
     4
 # iter = 41000  time[fs]=41.00000
   C -0.329921144E+01  0.500247493E-02  0.133871707E+00
   C  0.300158867E+01  0.421527569E-01 -0.195797803E+00
   H -0.165740386E+02 -0.136291207E+01 -0.185630048E+01
   H  0.158918518E+02  0.803444231E+00  0.181636066E+01
     4
 # iter = 41500  time[fs]=41.50000
   C -0.338099110E+01  0.544389098E-02  0.138145135E+00
   C  0.307642497E+01  0.426469779E-01 -0.200548822E+00
   H -0.169375053E+02 -0.139283249E+01 -0.189749044E+01
   H  0.162336532E+02  0.821290993E+00  0.185744043E+01
     4
 # iter = 42000  time[fs]=42.00000
   C -0.346306089E+01  0.588463620E-02  0.142435573E+00
   C  0.315154963E+01  0.431422955E-01 -0.205317529E+00
   H -0.173012687E+02 -0.142278062E+01 -0.193871910E+01
   H  0.165757660E+02  0.839153885E+00  0.189856058E+01
     4
 # iter = 42500  time[fs]=42.50000
   C -0.354540675E+01  0.632517273E-02  0.146742654E+00
   C  0.322694938E+01  0.436389669E-01 -0.210102798E+00
   H -0.176653143E+02 -0.145275331E+01 -0.197998288E+01
   H  0.169181795E+02  0.857034322E+00  0.193972158E+01
     4
 # iter = 43000  time[fs]=43.00000
   C -0.362801590E+01  0.676553849E-02  0.151065646E+00
   C  0.330261144E+01  0.441368766E-01 -0.214903930E+00
   H -0.180296310E+02 -0.148274965E+01 -0.202128050E+01
   H  0.172608818E+02  0.874931547E+00  0.198092181E+01
     4
 # iter = 43500  time[fs]=43.50000
   C -0.371087656E+01  0.720561724E-02  0.155403707E+00
   C  0.337852373E+01  0.446357827E-01 -0.219720407E+00
   H -0.183942089E+02 -0.151276961E+01 -0.206261151E+01
   H  0.176038609E+02  0.892844057E+00  0.202215893E+01
     4
 # iter = 44000  time[fs]=44.00000
   C -0.379397761E+01  0.764538597E-02  0.159756137E+00
   C  0.345467504E+01  0.451355416E-01 -0.224551658E+00
   H -0.187590383E+02 -0.154281265E+01 -0.210397506E+01
   H  0.179471057E+02  0.910770907E+00  0.206343120E+01
     4
 # iter = 44500  time[fs]=44.50000
   C -0.387730852E+01  0.808492147E-02  0.164122378E+00
   C  0.353105492E+01  0.456361127E-01 -0.229397055E+00
   H -0.191241094E+02 -0.157287776E+01 -0.214536978E+01
   H  0.182906064E+02  0.928711739E+00  0.210473753E+01
     4
 # iter = 45000  time[fs]=45.00000
   C -0.396085939E+01  0.852430606E-02  0.168501917E+00
   C  0.360765359E+01  0.461374710E-01 -0.234255995E+00
   H -0.194894130E+02 -0.160296391E+01 -0.218679432E+01
   H  0.186343540E+02  0.946666277E+00  0.214607692E+01
     4
 # iter = 45500  time[fs]=45.50000
   C -0.404462095E+01  0.896358253E-02  0.172894235E+00
   C  0.368446184E+01  0.466395645E-01 -0.239127938E+00
   H -0.198549405E+02 -0.163307028E+01 -0.222824757E+01
   H  0.189783395E+02  0.964634083E+00  0.218744828E+01
     4
 # iter = 46000  time[fs]=46.00000
   C -0.412858451E+01  0.940277016E-02  0.177298824E+00
   C  0.376147098E+01  0.471423279E-01 -0.244012393E+00
   H -0.202206839E+02 -0.166319623E+01 -0.226972859E+01
   H  0.193225544E+02  0.982614638E+00  0.222885045E+01
     4
 # iter = 46500  time[fs]=46.50000
   C -0.421274188E+01  0.984188899E-02  0.181715209E+00
   C  0.383867282E+01  0.476457043E-01 -0.248908893E+00
   H -0.205866357E+02 -0.169334112E+01 -0.231123648E+01
   H  0.196669907E+02  0.100060747E+01  0.227028236E+01
     4
 # iter = 47000  time[fs]=47.00000
   C -0.429708532E+01  0.102809650E-01  0.186142946E+00
   C  0.391605967E+01  0.481496489E-01 -0.253816989E+00
   H -0.209527885E+02 -0.172350429E+01 -0.235277032E+01
   H  0.200116407E+02  0.101861217E+01  0.231174302E+01
     4
 # iter = 47500  time[fs]=47.50000
   C -0.438160754E+01  0.107200242E-01  0.190581619E+00
   C  0.399362426E+01  0.486541228E-01 -0.258736253E+00
   H -0.213191355E+02 -0.175368511E+01 -0.239432923E+01
   H  0.203564974E+02  0.103662837E+01  0.235323151E+01
     4
 # iter = 48000  time[fs]=48.00000
   C -0.446630164E+01  0.111590882E-01  0.195030833E+00
   C  0.407135973E+01  0.491590889E-01 -0.263666279E+00
   H -0.216856701E+02 -0.178388300E+01 -0.243591238E+01
   H  0.207015537E+02  0.105465570E+01  0.239474697E+01
     4
 # iter = 48500  time[fs]=48.50000
   C -0.455116112E+01  0.115981747E-01  0.199490211E+00
   C  0.414925959E+01  0.496645112E-01 -0.268606688E+00
   H -0.220523861E+02 -0.181409740E+01 -0.247751901E+01
   H  0.210468033E+02  0.107269382E+01  0.243628852E+01
     4
 # iter = 49000  time[fs]=49.00000
   C -0.463617981E+01  0.120372996E-01  0.203959395E+00
   C  0.422731771E+01  0.501703568E-01 -0.273557116E+00
   H -0.224192776E+02 -0.184432778E+01 -0.251914837E+01
   H  0.213922399E+02  0.109074237E+01  0.247785537E+01
     4
 # iter = 49500  time[fs]=49.50000
   C -0.472135188E+01  0.124764775E-01  0.208438045E+00
   C  0.430552827E+01  0.506765954E-01 -0.278517220E+00
   H -0.227863390E+02 -0.187457363E+01 -0.256079975E+01
   H  0.217378575E+02  0.110880104E+01  0.251944674E+01
     4
 # iter = 50000  time[fs]=50.00000
   C -0.480667179E+01  0.129157217E-01  0.212925839E+00
   C  0.438388577E+01  0.511831994E-01 -0.283486671E+00
   H -0.231535650E+02 -0.190483449E+01 -0.260247248E+01
   H  0.220836506E+02  0.112686952E+01  0.256106190E+01
     4
 # iter = 50500  time[fs]=50.50000
   C -0.489213431E+01  0.133550442E-01  0.217422471E+00
   C  0.446238498E+01  0.516901432E-01 -0.288465158E+00
   H -0.235209503E+02 -0.193510988E+01 -0.264416590E+01
   H  0.224296137E+02  0.114494753E+01  0.260270014E+01
     4
 # iter = 51000  time[fs]=51.00000
   C -0.497773444E+01  0.137944555E-01  0.221927649E+00
   C  0.454102095E+01  0.521974031E-01 -0.293452384E+00
   H -0.238884901E+02 -0.196539937E+01 -0.268587941E+01
   H  0.227757417E+02  0.116303478E+01  0.264436078E+01
     4
 # iter = 51500  time[fs]=51.50000
   C -0.506346746E+01  0.142339650E-01  0.226441094E+00
   C  0.461978896E+01  0.527049569E-01 -0.298448067E+00
   H -0.242561799E+02 -0.199570253E+01 -0.272761242E+01
   H  0.231220297E+02  0.118113100E+01  0.268604320E+01
     4
 # iter = 52000  time[fs]=52.00000
   C -0.514932886E+01  0.146735811E-01  0.230962542E+00
   C  0.469868452E+01  0.532127842E-01 -0.303451938E+00
   H -0.246240150E+02 -0.202601898E+01 -0.276936435E+01
   H  0.234684730E+02  0.119923594E+01  0.272774675E+01
     4
 # iter = 52500  time[fs]=52.50000
   C -0.523531436E+01  0.151133112E-01  0.235491740E+00
   C  0.477770339E+01  0.537208660E-01 -0.308463739E+00
   H -0.249919913E+02 -0.205634833E+01 -0.281113468E+01
   H  0.238150671E+02  0.121734935E+01  0.276947087E+01
     4
 # iter = 53000  time[fs]=53.00000
   C -0.532141989E+01  0.155531622E-01  0.240028446E+00
   C  0.485684149E+01  0.542291848E-01 -0.313483225E+00
   H -0.253601046E+02 -0.208669020E+01 -0.285292288E+01
   H  0.241618078E+02  0.123547100E+01  0.281121498E+01
     4
 # iter = 53500  time[fs]=53.50000
   C -0.540764156E+01  0.159931397E-01  0.244572430E+00
   C  0.493609497E+01  0.547377241E-01 -0.318510161E+00
   H -0.257283511E+02 -0.211704425E+01 -0.289472847E+01
   H  0.245086907E+02  0.125360067E+01  0.285297853E+01
     4
 # iter = 54000  time[fs]=54.00000
   C -0.549397566E+01  0.164332491E-01  0.249123472E+00
   C  0.501546013E+01  0.552464686E-01 -0.323544323E+00
   H -0.260967271E+02 -0.214741014E+01 -0.293655095E+01
   H  0.248557121E+02  0.127173812E+01  0.289476101E+01
     4
 # iter = 54500  time[fs]=54.50000
   C -0.558041866E+01  0.168734950E-01  0.253681362E+00
   C  0.509493345E+01  0.557554042E-01 -0.328585497E+00
   H -0.264652289E+02 -0.217778755E+01 -0.297838989E+01
   H  0.252028681E+02  0.128988317E+01  0.293656192E+01
     4
 # iter = 55000  time[fs]=55.00000
   C -0.566696717E+01  0.173138814E-01  0.258245897E+00
   C  0.517451158E+01  0.562645176E-01 -0.333633479E+00
   H -0.268338530E+02 -0.220817617E+01 -0.302024483E+01
   H  0.255501551E+02  0.130803560E+01  0.297838076E+01
     4
 # iter = 55500  time[fs]=55.50000
   C -0.575361798E+01  0.177544117E-01  0.262816885E+00
   C  0.525419130E+01  0.567737965E-01 -0.338688070E+00
   H -0.272025964E+02 -0.223857570E+01 -0.306211537E+01
   H  0.258975696E+02  0.132619523E+01  0.302021709E+01
     4
 # iter = 56000  time[fs]=56.00000
   C -0.584036800E+01  0.181950892E-01  0.267394141E+00
   C  0.533396955E+01  0.572832294E-01 -0.343749084E+00
   H -0.275714556E+02 -0.226898585E+01 -0.310400110E+01
   H  0.262451083E+02  0.134436188E+01  0.306207045E+01
     4
 # iter = 56500  time[fs]=56.50000
   C -0.592721428E+01  0.186359163E-01  0.271977488E+00
   C  0.541384339E+01  0.577928054E-01 -0.348816339E+00
   H -0.279404277E+02 -0.229940635E+01 -0.314590162E+01
   H  0.265927678E+02  0.136253535E+01  0.310394042E+01
     4
 # iter = 57000  time[fs]=57.00000
   C -0.601415399E+01  0.190768953E-01  0.276566756E+00
   C  0.549381002E+01  0.583025146E-01 -0.353889663E+00
   H -0.283095098E+02 -0.232983694E+01 -0.318781656E+01
   H  0.269405452E+02  0.138071549E+01  0.314582659E+01
     4
 # iter = 57500  time[fs]=57.50000
   C -0.610118444E+01  0.195180283E-01  0.281161782E+00
   C  0.557386673E+01  0.588123476E-01 -0.358968889E+00
   H -0.286786990E+02 -0.236027736E+01 -0.322974557E+01
   H  0.272884373E+02  0.139890213E+01  0.318772855E+01
     4
 # iter = 58000  time[fs]=58.00000
   C -0.618830302E+01  0.199593167E-01  0.285762410E+00
   C  0.565401095E+01  0.593222954E-01 -0.364053858E+00
   H -0.290479927E+02 -0.239072736E+01 -0.327168830E+01
   H  0.276364415E+02  0.141709511E+01  0.322964593E+01
     4
 # iter = 58500  time[fs]=58.50000
   C -0.627550725E+01  0.204007618E-01  0.290368488E+00
   C  0.573424022E+01  0.598323500E-01 -0.369144416E+00
   H -0.294173882E+02 -0.242118671E+01 -0.331364441E+01
   H  0.279845547E+02  0.143529428E+01  0.327157835E+01
     4
 # iter = 59000  time[fs]=59.00000
   C -0.636279475E+01  0.208423648E-01  0.294979874E+00
   C  0.581455215E+01  0.603425036E-01 -0.374240417E+00
   H -0.297868831E+02 -0.245165519E+01 -0.335561358E+01
   H  0.283327745E+02  0.145349949E+01  0.331352546E+01
     4
 # iter = 59500  time[fs]=59.50000
   C -0.645016323E+01  0.212841263E-01  0.299596426E+00
   C  0.589494448E+01  0.608527490E-01 -0.379341719E+00
   H -0.301564748E+02 -0.248213256E+01 -0.339759551E+01
   H  0.286810983E+02  0.147171059E+01  0.335548692E+01
     4
 # iter = 60000  time[fs]=60.00000
   C -0.653761050E+01  0.217260471E-01  0.304218013E+00
   C  0.597541502E+01  0.613630793E-01 -0.384448185E+00
   H -0.305261611E+02 -0.251261863E+01 -0.343958988E+01
   H  0.290295235E+02  0.148992746E+01  0.339746239E+01
     4
 # iter = 60500  time[fs]=60.50000
   C -0.662513444E+01  0.221681275E-01  0.308844506E+00
   C  0.605596166E+01  0.618734884E-01 -0.389559684E+00
   H -0.308959397E+02 -0.254311319E+01 -0.348159642E+01
   H  0.293780477E+02  0.150814996E+01  0.343945156E+01
     4
 # iter = 61000  time[fs]=61.00000
   C -0.671273302E+01  0.226103677E-01  0.313475780E+00
   C  0.613658240E+01  0.623839701E-01 -0.394676090E+00
   H -0.312658084E+02 -0.257361603E+01 -0.352361484E+01
   H  0.297266687E+02  0.152637795E+01  0.348145411E+01
     4
 # iter = 61500  time[fs]=61.50000
   C -0.680040429E+01  0.230527678E-01  0.318111717E+00
   C  0.621727529E+01  0.628945189E-01 -0.399797280E+00
   H -0.316357652E+02 -0.260412698E+01 -0.356564488E+01
   H  0.300753843E+02  0.154461133E+01  0.352346975E+01
     4
 # iter = 62000  time[fs]=62.00000
   C -0.688814637E+01  0.234953277E-01  0.322752201E+00
   C  0.629803846E+01  0.634051296E-01 -0.404923139E+00
   H -0.320058080E+02 -0.263464585E+01 -0.360768627E+01
   H  0.304241922E+02  0.156284996E+01  0.356549818E+01
     4
 # iter = 62500  time[fs]=62.50000
   C -0.697595746E+01  0.239380472E-01  0.327397122E+00
   C  0.637887012E+01  0.639157971E-01 -0.410053552E+00
   H -0.323759349E+02 -0.266517245E+01 -0.364973876E+01
   H  0.307730904E+02  0.158109373E+01  0.360753913E+01
     4
 # iter = 63000  time[fs]=63.00000
   C -0.706383581E+01  0.243809260E-01  0.332046372E+00
   C  0.645976853E+01  0.644265170E-01 -0.415188411E+00
   H -0.327461439E+02 -0.269570662E+01 -0.369180211E+01
   H  0.311220769E+02  0.159934253E+01  0.364959233E+01
     4
 # iter = 63500  time[fs]=63.50000
   C -0.715177975E+01  0.248239635E-01  0.336699850E+00
   C  0.654073203E+01  0.649372847E-01 -0.420327611E+00
   H -0.331164333E+02 -0.272624820E+01 -0.373387608E+01
   H  0.314711497E+02  0.161759625E+01  0.369165751E+01
     4
 # iter = 64000  time[fs]=64.00000
   C -0.723978766E+01  0.252671594E-01  0.341357454E+00
   C  0.662175901E+01  0.654480962E-01 -0.425471048E+00
   H -0.334868013E+02 -0.275679701E+01 -0.377596044E+01
   H  0.318203070E+02  0.163585479E+01  0.373373442E+01
     4
 # iter = 64500  time[fs]=64.50000
   C -0.732785798E+01  0.257105129E-01  0.346019090E+00
   C  0.670284793E+01  0.659589477E-01 -0.430618626E+00
   H -0.338572461E+02 -0.278735291E+01 -0.381805498E+01
   H  0.321695468E+02  0.165411805E+01  0.377582282E+01
     4
 # iter = 65000  time[fs]=65.00000
   C -0.741598921E+01  0.261540234E-01  0.350684664E+00
   C  0.678399728E+01  0.664698354E-01 -0.435770250E+00
   H -0.342277662E+02 -0.281791575E+01 -0.386015947E+01
   H  0.325188676E+02  0.167238592E+01  0.381792246E+01
     4
 # iter = 65500  time[fs]=65.50000
   C -0.750417990E+01  0.265976900E-01  0.355354087E+00
   C  0.686520563E+01  0.669807560E-01 -0.440925828E+00
   H -0.345983599E+02 -0.284848538E+01 -0.390227372E+01
   H  0.328682675E+02  0.169065831E+01  0.386003312E+01
     4
 # iter = 66000  time[fs]=66.00000
   C -0.759242865E+01  0.270415119E-01  0.360027271E+00
   C  0.694647159E+01  0.674917063E-01 -0.446085271E+00
   H -0.349690256E+02 -0.287906165E+01 -0.394439752E+01
   H  0.332177449E+02  0.170893513E+01  0.390215458E+01
     4
 # iter = 66500  time[fs]=66.50000
   C -0.768073410E+01  0.274854883E-01  0.364704134E+00
   C  0.702779380E+01  0.680026832E-01 -0.451248494E+00
   H -0.353397619E+02 -0.290964444E+01 -0.398653068E+01
   H  0.335672982E+02  0.172721629E+01  0.394428660E+01
     4
 # iter = 67000  time[fs]=67.00000
   C -0.776909494E+01  0.279296181E-01  0.369384593E+00
   C  0.710917097E+01  0.685136839E-01 -0.456415413E+00
   H -0.357105673E+02 -0.294023361E+01 -0.402867300E+01
   H  0.339169258E+02  0.174550171E+01  0.398642900E+01
     4
 # iter = 67500  time[fs]=67.50000
   C -0.785750993E+01  0.283739005E-01  0.374068571E+00
   C  0.719060185E+01  0.690247056E-01 -0.461585948E+00
   H -0.360814404E+02 -0.297082902E+01 -0.407082431E+01
   H  0.342666263E+02  0.176379129E+01  0.402858155E+01
     4
 # iter = 68000  time[fs]=68.00000
   C -0.794597782E+01  0.288183342E-01  0.378755991E+00
   C  0.727208523E+01  0.695357458E-01 -0.466760022E+00
   H -0.364523798E+02 -0.300143057E+01 -0.411298443E+01
   H  0.346163981E+02  0.178208496E+01  0.407074407E+01
     4
 # iter = 68500  time[fs]=68.50000
   C -0.803449744E+01  0.292629183E-01  0.383446780E+00
   C  0.735361992E+01  0.700468021E-01 -0.471937560E+00
   H -0.368233842E+02 -0.303203811E+01 -0.415515318E+01
   H  0.349662399E+02  0.180038263E+01  0.411291635E+01
     4
 # iter = 69000  time[fs]=69.00000
   C -0.812306766E+01  0.297076516E-01  0.388140866E+00
   C  0.743520479E+01  0.705578723E-01 -0.477118488E+00
   H -0.371944523E+02 -0.306265155E+01 -0.419733040E+01
   H  0.353161503E+02  0.181868424E+01  0.415509822E+01
     4
 # iter = 69500  time[fs]=69.50000
   C -0.821168735E+01  0.301525331E-01  0.392838180E+00
   C  0.751683874E+01  0.710689543E-01 -0.482302735E+00
   H -0.375655829E+02 -0.309327076E+01 -0.423951592E+01
   H  0.356661279E+02  0.183698970E+01  0.419728949E+01
     4
 # iter = 70000  time[fs]=70.00000
   C -0.830035546E+01  0.305975616E-01  0.397538656E+00
   C  0.759852072E+01  0.715800459E-01 -0.487490234E+00
   H -0.379367747E+02 -0.312389563E+01 -0.428170959E+01
   H  0.360161714E+02  0.185529894E+01  0.423948998E+01
     4
 # iter = 70500  time[fs]=70.50000
   C -0.838907095E+01  0.310427358E-01  0.402242229E+00
   C  0.768024969E+01  0.720911454E-01 -0.492680918E+00
   H -0.383080265E+02 -0.315452605E+01 -0.432391125E+01
   H  0.363662796E+02  0.187361189E+01  0.428169953E+01
     4
 # iter = 71000  time[fs]=71.00000
   C -0.847783280E+01  0.314880546E-01  0.406948835E+00
   C  0.776202465E+01  0.726022510E-01 -0.497874722E+00
   H -0.386793373E+02 -0.318516192E+01 -0.436612075E+01
   H  0.367164513E+02  0.189192849E+01  0.432391796E+01
     4
 # iter = 71500  time[fs]=71.50000
   C -0.856664005E+01  0.319335168E-01  0.411658413E+00
   C  0.784384463E+01  0.731133609E-01 -0.503071583E+00
   H -0.390507058E+02 -0.321580315E+01 -0.440833795E+01
   H  0.370666852E+02  0.191024866E+01  0.436614511E+01
     4
 # iter = 72000  time[fs]=72.00000
   C -0.865549175E+01  0.323791211E-01  0.416370904E+00
   C  0.792570870E+01  0.736244735E-01 -0.508271442E+00
   H -0.394221311E+02 -0.324644962E+01 -0.445056271E+01
   H  0.374169802E+02  0.192857234E+01  0.440838083E+01
     4
 # iter = 72500  time[fs]=72.50000
   C -0.874438699E+01  0.328248664E-01  0.421086251E+00
   C  0.800761595E+01  0.741355874E-01 -0.513474239E+00
   H -0.397936120E+02 -0.327710124E+01 -0.449279489E+01
   H  0.377673352E+02  0.194689946E+01  0.445062496E+01
     4
 # iter = 73000  time[fs]=73.00000
   C -0.883332488E+01  0.332707513E-01  0.425804397E+00
   C  0.808956549E+01  0.746467011E-01 -0.518679917E+00
   H -0.401651476E+02 -0.330775792E+01 -0.453503436E+01
   H  0.381177490E+02  0.196522997E+01  0.449287736E+01
     4
 # iter = 73500  time[fs]=73.50000
   C -0.892230456E+01  0.337167747E-01  0.430525289E+00
   C  0.817155648E+01  0.751578134E-01 -0.523888420E+00
   H -0.405367367E+02 -0.333841958E+01 -0.457728098E+01
   H  0.384682207E+02  0.198356381E+01  0.453513787E+01
     4
 # iter = 74000  time[fs]=74.00000
   C -0.901132520E+01  0.341629352E-01  0.435248874E+00
   C  0.825358808E+01  0.756689229E-01 -0.529099695E+00
   H -0.409083786E+02 -0.336908611E+01 -0.461953464E+01
   H  0.388187492E+02  0.200190091E+01  0.457740635E+01
     4
 # iter = 74500  time[fs]=74.50000
   C -0.910038597E+01  0.346092317E-01  0.439975099E+00
   C  0.833565948E+01  0.761800284E-01 -0.534313688E+00
   H -0.412800722E+02 -0.339975743E+01 -0.466179519E+01
   H  0.391693334E+02  0.202024123E+01  0.461968267E+01
     4
 # iter = 75000  time[fs]=75.00000
   C -0.918948610E+01  0.350556628E-01  0.444703917E+00
   C  0.841776991E+01  0.766911288E-01 -0.539530349E+00
   H -0.416518166E+02 -0.343043347E+01 -0.470406254E+01
   H  0.395199724E+02  0.203858470E+01  0.466196669E+01
     4
 # iter = 75500  time[fs]=75.50000
   C -0.927862481E+01  0.355022274E-01  0.449435277E+00
   C  0.849991859E+01  0.772022232E-01 -0.544749628E+00
   H -0.420236109E+02 -0.346111413E+01 -0.474633656E+01
   H  0.398706652E+02  0.205693126E+01  0.470425828E+01
     4
 # iter = 76000  time[fs]=76.00000
   C -0.936780137E+01  0.359489241E-01  0.454169134E+00
   C  0.858210481E+01  0.777133103E-01 -0.549971478E+00
   H -0.423954543E+02 -0.349179934E+01 -0.478861713E+01
   H  0.402214109E+02  0.207528088E+01  0.474655732E+01
     4
 # iter = 76500  time[fs]=76.50000
   C -0.945701506E+01  0.363957517E-01  0.458905441E+00
   C  0.866432783E+01  0.782243894E-01 -0.555195850E+00
   H -0.427673458E+02 -0.352248901E+01 -0.483090414E+01
   H  0.405722086E+02  0.209363349E+01  0.478886367E+01
     4
 # iter = 77000  time[fs]=77.00000
   C -0.954626516E+01  0.368427089E-01  0.463644153E+00
   C  0.874658695E+01  0.787354596E-01 -0.560422699E+00
   H -0.431392848E+02 -0.355318309E+01 -0.487319749E+01
   H  0.409230573E+02  0.211198905E+01  0.483117722E+01
     4
 # iter = 77500  time[fs]=77.50000
   C -0.963555100E+01  0.372897946E-01  0.468385227E+00
   C  0.882888151E+01  0.792465199E-01 -0.565651982E+00
   H -0.435112703E+02 -0.358388148E+01 -0.491549708E+01
   H  0.412739563E+02  0.213034750E+01  0.487349784E+01
     4
 # iter = 78000  time[fs]=78.00000
   C -0.972487191E+01  0.377370074E-01  0.473128622E+00
   C  0.891121085E+01  0.797575696E-01 -0.570883653E+00
   H -0.438833015E+02 -0.361458413E+01 -0.495780279E+01
   H  0.416249047E+02  0.214870881E+01  0.491582543E+01
     4
 # iter = 78500  time[fs]=78.50000
   C -0.981422725E+01  0.381843462E-01  0.477874295E+00
   C  0.899357431E+01  0.802686080E-01 -0.576117672E+00
   H -0.442553778E+02 -0.364529095E+01 -0.500011453E+01
   H  0.419759017E+02  0.216707292E+01  0.495815987E+01
     4
 # iter = 79000  time[fs]=79.00000
   C -0.990361638E+01  0.386318097E-01  0.482622207E+00
   C  0.907597127E+01  0.807796344E-01 -0.581353998E+00
   H -0.446274984E+02 -0.367600188E+01 -0.504243219E+01
   H  0.423269464E+02  0.218543978E+01  0.500050104E+01
     4
 # iter = 79500  time[fs]=79.50000
   C -0.999303870E+01  0.390793966E-01  0.487372319E+00
   C  0.915840114E+01  0.812906480E-01 -0.586592589E+00
   H -0.449996625E+02 -0.370671685E+01 -0.508475570E+01
   H  0.426780382E+02  0.220380936E+01  0.504284885E+01
     4
 # iter = 80000  time[fs]=80.00000
   C -0.100824936E+02  0.395271059E-01  0.492124593E+00
   C  0.924086331E+01  0.818016484E-01 -0.591833408E+00
   H -0.453718694E+02 -0.373743580E+01 -0.512708494E+01
   H  0.430291761E+02  0.222218161E+01  0.508520319E+01
