     4
 # iter = 25000  time[fs]=25.00000
   C -0.994998277E+00  0.104532082E-01  0.124891237E-01
   C  0.976290294E+00 -0.145419446E-01 -0.171958962E-01
   H -0.537803356E+01 -0.422762840E+00 -0.540413565E+00
   H  0.526408862E+01 -0.214280678E+00  0.230041791E+00
     4
 # iter = 25500  time[fs]=25.50000
   C -0.104135503E+01  0.114160236E-01  0.137489294E-01
   C  0.101433601E+01 -0.154518982E-01 -0.193007055E-01
   H -0.571399543E+01 -0.455131378E+00 -0.581259832E+00
   H  0.557211563E+01 -0.234110304E+00  0.238520832E+00
     4
 # iter = 26000  time[fs]=26.00000
   C -0.109131687E+01  0.116564050E-01  0.142929939E-01
   C  0.105402126E+01 -0.174752721E-01 -0.225602852E-01
   H -0.606015509E+01 -0.493296834E+00 -0.628024511E+00
   H  0.588045295E+01 -0.259587011E+00  0.241890172E+00
     4
 # iter = 26500  time[fs]=26.50000
   C -0.114231427E+01  0.135142957E-01  0.164622322E-01
   C  0.109840711E+01 -0.173321486E-01 -0.236921488E-01
   H -0.639988506E+01 -0.521129384E+00 -0.664564645E+00
   H  0.620458944E+01 -0.274595359E+00  0.256209636E+00
     4
 # iter = 27000  time[fs]=27.00000
   C -0.119401834E+01  0.171006208E-01  0.203682947E-01
   C  0.114745046E+01 -0.148601332E-01 -0.225314026E-01
   H -0.673194563E+01 -0.537796577E+00 -0.690036983E+00
   H  0.654478676E+01 -0.278316736E+00  0.282248337E+00
     4
 # iter = 27500  time[fs]=27.50000
   C -0.124797426E+01  0.206657286E-01  0.242620420E-01
   C  0.119852031E+01 -0.124992120E-01 -0.215156044E-01
   H -0.706793922E+01 -0.555236073E+00 -0.716370255E+00
   H  0.688859659E+01 -0.282702882E+00  0.308010321E+00
     4
 # iter = 28000  time[fs]=28.00000
   C -0.130523370E+01  0.229707171E-01  0.269048691E-01
   C  0.124971451E+01 -0.119755452E-01 -0.223686957E-01
   H -0.741601582E+01 -0.581889358E+00 -0.751998138E+00
   H  0.722713903E+01 -0.296206995E+00  0.325004394E+00
     4
 # iter = 28500  time[fs]=28.50000
   C -0.136513265E+01  0.245105446E-01  0.287918403E-01
   C  0.130157028E+01 -0.125908740E-01 -0.243904552E-01
   H -0.777246614E+01 -0.614310219E+00 -0.793467328E+00
   H  0.756349408E+01 -0.315390277E+00  0.336637438E+00
     4
 # iter = 29000  time[fs]=29.00000
   C -0.142629803E+01  0.265055381E-01  0.311432521E-01
   C  0.135565308E+01 -0.126329848E-01 -0.258668922E-01
   H -0.812863899E+01 -0.644082212E+00 -0.832355018E+00
   H  0.790576583E+01 -0.331841365E+00  0.351293494E+00
     4
 # iter = 29500  time[fs]=29.50000
   C -0.148817108E+01  0.293752936E-01  0.343785836E-01
   C  0.141242118E+01 -0.115101872E-01 -0.262046406E-01
   H -0.848141311E+01 -0.668287954E+00 -0.865738275E+00
   H  0.825659346E+01 -0.342648854E+00  0.371859711E+00
     4
 # iter = 30000  time[fs]=30.00000
   C -0.155122024E+01  0.325245583E-01  0.379024060E-01
   C  0.147092517E+01 -0.100507438E-01 -0.262303685E-01
   H -0.883466236E+01 -0.690977413E+00 -0.897662254E+00
   H  0.861167511E+01 -0.351870153E+00  0.394256848E+00
     4
 # iter = 30500  time[fs]=30.50000
   C -0.161599395E+01  0.352899093E-01  0.410510724E-01
   C  0.153013127E+01 -0.917862313E-02 -0.268665548E-01
   H -0.919275265E+01 -0.716671683E+00 -0.932643791E+00
   H  0.896626553E+01 -0.364033186E+00  0.413937534E+00
     4
 # iter = 31000  time[fs]=31.00000
   C -0.168239993E+01  0.376598836E-01  0.438128574E-01
   C  0.158992774E+01 -0.890614505E-02 -0.281241506E-01
   H -0.955559482E+01 -0.745421270E+00 -0.970729544E+00
   H  0.932011846E+01 -0.379193083E+00  0.430829514E+00
     4
 # iter = 31500  time[fs]=31.50000
   C -0.174991549E+01  0.400635778E-01  0.466165699E-01
   C  0.165082813E+01 -0.862969001E-02 -0.293982782E-01
   H -0.992009300E+01 -0.774256468E+00 -0.100894632E+01
   H  0.967603173E+01 -0.394383204E+00  0.447884292E+00
     4
 # iter = 32000  time[fs]=32.00000
   C -0.181819037E+01  0.427664583E-01  0.497273767E-01
   C  0.171312522E+01 -0.797486769E-02 -0.303133778E-01
   H -0.102842899E+02 -0.801333101E+00 -0.104544679E+01
   H  0.100356953E+02 -0.407762496E+00  0.466929343E+00
     4
 # iter = 32500  time[fs]=32.50000
   C -0.188726244E+01  0.456536637E-01  0.530301132E-01
   C  0.177658704E+01 -0.709961654E-02 -0.310262947E-01
   H -0.106488526E+02 -0.827419186E+00 -0.108099617E+01
   H  0.103982007E+02 -0.420102748E+00  0.487180581E+00
     4
 # iter = 33000  time[fs]=33.00000
   C -0.195729675E+01  0.484901934E-01  0.562894761E-01
   C  0.184082011E+01 -0.633017634E-02 -0.318622490E-01
   H -0.110152845E+02 -0.854109046E+00 -0.111718624E+01
   H  0.107618265E+02 -0.433002031E+00  0.507028796E+00
     4
 # iter = 33500  time[fs]=33.50000
   C -0.202829948E+01  0.512063414E-01  0.594354604E-01
   C  0.190566815E+01 -0.576175338E-02 -0.329155010E-01
   H -0.113839649E+02 -0.881864266E+00 -0.115447627E+01
   H  0.111259966E+02 -0.446924908E+00  0.525999348E+00
     4
 # iter = 34000  time[fs]=34.00000
   C -0.210011447E+01  0.539005314E-01  0.625661968E-01
   C  0.197121535E+01 -0.525454074E-02 -0.340453669E-01
   H -0.117541280E+02 -0.909994093E+00 -0.119217341E+01
   H  0.114912988E+02 -0.461182896E+00  0.544771604E+00
     4
 # iter = 34500  time[fs]=34.50000
   C -0.217259282E+01  0.566690789E-01  0.657777162E-01
   C  0.203754772E+01 -0.467186592E-02 -0.351143591E-01
   H -0.121250305E+02 -0.937823632E+00 -0.122960081E+01
   H  0.118583145E+02 -0.475103161E+00  0.564010102E+00
     4
 # iter = 35000  time[fs]=35.00000
   C -0.224568909E+01  0.595093841E-01  0.690671441E-01
   C  0.210461713E+01 -0.401560508E-02 -0.361235941E-01
   H -0.124966153E+02 -0.965358058E+00 -0.126676191E+01
   H  0.122269527E+02 -0.488693032E+00  0.583699927E+00
     4
 # iter = 35500  time[fs]=35.50000
   C -0.231941601E+01  0.623648264E-01  0.723775965E-01
   C  0.217230369E+01 -0.336335453E-02 -0.371499596E-01
   H -0.128692023E+02 -0.992974352E+00 -0.130403205E+01
   H  0.125967580E+02 -0.502331620E+00  0.603455014E+00
     4
 # iter = 36000  time[fs]=36.00000
   C -0.239376455E+01  0.652042470E-01  0.756776619E-01
   C  0.224052660E+01 -0.275721766E-02 -0.382348988E-01
   H -0.132429425E+02 -0.102087569E+01 -0.134161293E+01
   H  0.129674554E+02 -0.516223991E+00  0.623063916E+00
     4
 # iter = 36500  time[fs]=36.50000
   C -0.246868539E+01  0.680401174E-01  0.789795708E-01
   C  0.230926918E+01 -0.217837418E-02 -0.393589757E-01
   H -0.136176925E+02 -0.104896665E+01 -0.137940777E+01
   H  0.133390745E+02 -0.530276350E+00  0.642614562E+00
     4
 # iter = 37000  time[fs]=37.00000
   C -0.254412214E+01  0.708949921E-01  0.823056476E-01
   C  0.237853163E+01 -0.159400544E-02 -0.404887968E-01
   H -0.139932441E+02 -0.107708340E+01 -0.141725144E+01
   H  0.137117185E+02 -0.544326322E+00  0.662263925E+00
     4
 # iter = 37500  time[fs]=37.50000
   C -0.262003861E+01  0.737739444E-01  0.856607469E-01
   C  0.244829224E+01 -0.995847765E-03 -0.416155613E-01
   H -0.143695134E+02 -0.110518277E+01 -0.145509963E+01
   H  0.140853747E+02 -0.558332152E+00  0.682048768E+00
     4
 # iter = 38000  time[fs]=38.00000
   C -0.269641549E+01  0.766675965E-01  0.890352830E-01
   C  0.251851133E+01 -0.395943794E-03 -0.427508094E-01
   H -0.147465191E+02 -0.113332140E+01 -0.149300789E+01
   H  0.144599349E+02 -0.572351834E+00  0.701906476E+00
     4
 # iter = 38500  time[fs]=38.50000
   C -0.277323442E+01  0.795678402E-01  0.924209500E-01
   C  0.258915306E+01  0.195360414E-03 -0.439044165E-01
   H -0.151242749E+02 -0.116154782E+01 -0.153102372E+01
   H  0.148353026E+02 -0.586435118E+00  0.721783016E+00
     4
 # iter = 39000  time[fs]=39.00000
   C -0.285047121E+01  0.824744338E-01  0.958173188E-01
   C  0.266019446E+01  0.778652337E-03 -0.450753544E-01
   H -0.155027433E+02 -0.118985703E+01 -0.156914120E+01
   H  0.152114386E+02 -0.600578168E+00  0.741678246E+00
     4
 # iter = 39500  time[fs]=39.50000
   C -0.292809996E+01  0.853906239E-01  0.992274580E-01
   C  0.273161913E+01  0.135933344E-02 -0.462578080E-01
   H -0.158818656E+02 -0.121822060E+01 -0.160733103E+01
   H  0.155883301E+02 -0.614753588E+00  0.761615861E+00
     4
 # iter = 40000  time[fs]=40.00000
   C -0.300609839E+01  0.883177336E-01  0.102652522E+00
   C  0.280340950E+01  0.194005378E-02 -0.474487392E-01
   H -0.162615989E+02 -0.124662371E+01 -0.164557756E+01
   H  0.159659536E+02 -0.628947544E+00  0.781606246E+00
     4
 # iter = 40500  time[fs]=40.50000
   C -0.308444825E+01  0.912545172E-01  0.106091106E+00
   C  0.287554581E+01  0.251981399E-02 -0.486487824E-01
   H -0.166419203E+02 -0.127506956E+01 -0.168388324E+01
   H  0.163442701E+02 -0.643164170E+00  0.801642049E+00
     4
 # iter = 41000  time[fs]=41.00000
   C -0.316313309E+01  0.941993491E-01  0.109541431E+00
   C  0.294800907E+01  0.309703280E-02 -0.498591759E-01
   H -0.170228113E+02 -0.130356432E+01 -0.172225353E+01
   H  0.167232402E+02 -0.657410504E+00  0.821713224E+00
     4
 # iter = 41500  time[fs]=41.50000
   C -0.324213669E+01  0.971515928E-01  0.113002717E+00
   C  0.302078278E+01  0.367146679E-02 -0.510798401E-01
   H -0.174042487E+02 -0.133210769E+01 -0.176068746E+01
   H  0.171028331E+02 -0.671687063E+00  0.841816439E+00
     4
 # iter = 42000  time[fs]=42.00000
   C -0.332144331E+01  0.100111290E+00  0.116474870E+00
   C  0.309385251E+01  0.424377861E-02 -0.523098079E-01
   H -0.177862066E+02 -0.136069503E+01 -0.179917975E+01
   H  0.174830241E+02 -0.685989956E+00  0.861952943E+00
     4
 # iter = 42500  time[fs]=42.50000
   C -0.340103833E+01  0.103078408E+00  0.119957727E+00
   C  0.316720466E+01  0.481448957E-02 -0.535482711E-01
   H -0.181686608E+02 -0.138932246E+01 -0.183772595E+01
   H  0.178637898E+02 -0.700316025E+00  0.882123419E+00
     4
 # iter = 43000  time[fs]=43.00000
   C -0.348090839E+01  0.106052616E+00  0.123450833E+00
   C  0.324082612E+01  0.538366432E-02 -0.547948941E-01
   H -0.185515910E+02 -0.141798843E+01 -0.187632393E+01
   H  0.182451062E+02 -0.714664389E+00  0.902326420E+00
     4
 # iter = 43500  time[fs]=43.50000
   C -0.356104112E+01  0.109033485E+00  0.126953644E+00
   C  0.331470445E+01  0.595120220E-02 -0.560495216E-01
   H -0.189349787E+02 -0.144669225E+01 -0.191497252E+01
   H  0.186269497E+02 -0.729035008E+00  0.922559797E+00
     4
 # iter = 44000  time[fs]=44.00000
   C -0.364142486E+01  0.112020683E+00  0.130465716E+00
   C  0.338882810E+01  0.651710406E-02 -0.573119107E-01
   H -0.193188060E+02 -0.147543283E+01 -0.195367010E+01
   H  0.190092988E+02 -0.743427373E+00  0.942821995E+00
     4
 # iter = 44500  time[fs]=44.50000
   C -0.372204858E+01  0.115013974E+00  0.133986708E+00
   C  0.346318637E+01  0.708147918E-02 -0.585817231E-01
   H -0.197030557E+02 -0.150420858E+01 -0.199241464E+01
   H  0.193921338E+02 -0.757840471E+00  0.963112082E+00
     4
 # iter = 45000  time[fs]=45.00000
   C -0.380290195E+01  0.118013146E+00  0.137516306E+00
   C  0.353776920E+01  0.764444309E-02 -0.598586263E-01
   H -0.200877114E+02 -0.153301796E+01 -0.203120415E+01
   H  0.197754360E+02 -0.772273283E+00  0.983429241E+00
     4
 # iter = 45500  time[fs]=45.50000
   C -0.388397527E+01  0.121017974E+00  0.141054191E+00
   C  0.361256712E+01  0.820606881E-02 -0.611423418E-01
   H -0.204727576E+02 -0.156185966E+01 -0.207003691E+01
   H  0.201591876E+02 -0.786725021E+00  0.100377252E+01
     4
 # iter = 46000  time[fs]=46.00000
   C -0.396525943E+01  0.124028229E+00  0.144600042E+00
   C  0.368757119E+01  0.876640394E-02 -0.624326270E-01
   H -0.208581801E+02 -0.159073258E+01 -0.210891142E+01
   H  0.205433719E+02 -0.801195046E+00  0.102414093E+01
     4
 # iter = 46500  time[fs]=46.50000
   C -0.404674585E+01  0.127043699E+00  0.148153561E+00
   C  0.376277300E+01  0.932549675E-02 -0.637292482E-01
   H -0.212439652E+02 -0.161963563E+01 -0.214782623E+01
   H  0.209279729E+02 -0.815682733E+00  0.104453353E+01
     4
 # iter = 47000  time[fs]=47.00000
   C -0.412842644E+01  0.130064188E+00  0.151714471E+00
   C  0.383816462E+01  0.988340174E-02 -0.650319753E-01
   H -0.216300998E+02 -0.164856775E+01 -0.218677991E+01
   H  0.213129756E+02 -0.830187445E+00  0.106494948E+01
     4
 # iter = 47500  time[fs]=47.50000
   C -0.421029356E+01  0.133089516E+00  0.155282510E+00
   C  0.391373861E+01  0.104401730E-01 -0.663405868E-01
   H -0.220165719E+02 -0.167752791E+01 -0.222577111E+01
   H  0.216983658E+02 -0.844708568E+00  0.108538801E+01
     4
 # iter = 48000  time[fs]=48.00000
   C -0.429233999E+01  0.136119507E+00  0.158857429E+00
   C  0.398948789E+01  0.109958596E-01 -0.676548747E-01
   H -0.224033696E+02 -0.170651515E+01 -0.226479856E+01
   H  0.220841299E+02 -0.859245527E+00  0.110584835E+01
     4
 # iter = 48500  time[fs]=48.50000
   C -0.437455893E+01  0.139153996E+00  0.162438991E+00
   C  0.406540579E+01  0.115505059E-01 -0.689746429E-01
   H -0.227904819E+02 -0.173552857E+01 -0.230386103E+01
   H  0.224702552E+02 -0.873797784E+00  0.112632980E+01
     4
 # iter = 49000  time[fs]=49.00000
   C -0.445694393E+01  0.142192824E+00  0.166026970E+00
   C  0.414148602E+01  0.121041538E-01 -0.702997052E-01
   H -0.231778982E+02 -0.176456730E+01 -0.234295737E+01
   H  0.228567293E+02 -0.888364829E+00  0.114683165E+01
     4
 # iter = 49500  time[fs]=49.50000
   C -0.453948886E+01  0.145235844E+00  0.169621151E+00
   C  0.421772257E+01  0.126568434E-01 -0.716298841E-01
   H -0.235656087E+02 -0.179363052E+01 -0.238208651E+01
   H  0.232435409E+02 -0.902946175E+00  0.116735325E+01
     4
 # iter = 50000  time[fs]=50.00000
   C -0.462218795E+01  0.148282912E+00  0.173221329E+00
   C  0.429410981E+01  0.132086127E-01 -0.729650101E-01
   H -0.239536037E+02 -0.182271744E+01 -0.242124738E+01
   H  0.236306787E+02 -0.917541357E+00  0.118789398E+01
     4
 # iter = 50500  time[fs]=50.50000
   C -0.470503571E+01  0.151333893E+00  0.176827310E+00
   C  0.437064234E+01  0.137594979E-01 -0.743049218E-01
   H -0.243418742E+02 -0.185182733E+01 -0.246043899E+01
   H  0.240181324E+02 -0.932149932E+00  0.120845326E+01
     4
 # iter = 51000  time[fs]=51.00000
   C -0.478802691E+01  0.154388660E+00  0.180438908E+00
   C  0.444731508E+01  0.143095328E-01 -0.756494655E-01
   H -0.247304116E+02 -0.188095947E+01 -0.249966039E+01
   H  0.244058919E+02 -0.946771478E+00  0.122903050E+01
     4
 # iter = 51500  time[fs]=51.50000
   C -0.487115661E+01  0.157447089E+00  0.184055946E+00
   C  0.452412317E+01  0.148587497E-01 -0.769984946E-01
   H -0.251192075E+02 -0.191011317E+01 -0.253891067E+01
   H  0.247939476E+02 -0.961405593E+00  0.124962516E+01
     4
 # iter = 52000  time[fs]=52.00000
   C -0.495442011E+01  0.160509065E+00  0.187678255E+00
   C  0.460106201E+01  0.154071792E-01 -0.783518692E-01
   H -0.255082540E+02 -0.193928778E+01 -0.257818897E+01
   H  0.251822905E+02 -0.976051893E+00  0.127023674E+01
     4
 # iter = 52500  time[fs]=52.50000
   C -0.503781291E+01  0.163574475E+00  0.191305673E+00
   C  0.467812722E+01  0.159548501E-01 -0.797094554E-01
   H -0.258975437E+02 -0.196848270E+01 -0.261749445E+01
   H  0.255709119E+02 -0.990710012E+00  0.129086473E+01
     4
 # iter = 53000  time[fs]=53.00000
   C -0.512133075E+01  0.166643213E+00  0.194938047E+00
   C  0.475531462E+01  0.165017902E-01 -0.810711255E-01
   H -0.262870693E+02 -0.199769732E+01 -0.265682633E+01
   H  0.259598034E+02 -0.100537960E+01  0.131150866E+01
     4
 # iter = 53500  time[fs]=53.50000
   C -0.520496957E+01  0.169715179E+00  0.198575227E+00
   C  0.483262024E+01  0.170480254E-01 -0.824367572E-01
   H -0.266768240E+02 -0.202693107E+01 -0.269618385E+01
   H  0.263489570E+02 -0.102006031E+01  0.133216808E+01
     4
 # iter = 54000  time[fs]=54.00000
   C -0.528872549E+01  0.172790274E+00  0.202217074E+00
   C  0.491004029E+01  0.175935808E-01 -0.838062336E-01
   H -0.270668011E+02 -0.205618341E+01 -0.273556627E+01
   H  0.267383652E+02 -0.103475184E+01  0.135284255E+01
     4
 # iter = 54500  time[fs]=54.50000
   C -0.537259482E+01  0.175868407E+00  0.205863452E+00
   C  0.498757114E+01  0.181384799E-01 -0.851794427E-01
   H -0.274569944E+02 -0.208545382E+01 -0.277497291E+01
   H  0.271280207E+02 -0.104945388E+01  0.137353165E+01
     4
 # iter = 55000  time[fs]=55.00000
   C -0.545657401E+01  0.178949488E+00  0.209514231E+00
   C  0.506520934E+01  0.186827454E-01 -0.865562771E-01
   H -0.278473977E+02 -0.211474180E+01 -0.281440309E+01
   H  0.275179164E+02 -0.106416612E+01  0.139423498E+01
     4
 # iter = 55500  time[fs]=55.50000
   C -0.554065970E+01  0.182033432E+00  0.213169287E+00
   C  0.514295160E+01  0.192263986E-01 -0.879366340E-01
   H -0.282380053E+02 -0.214404687E+01 -0.285385617E+01
   H  0.279080458E+02 -0.107888828E+01  0.141495217E+01
     4
 # iter = 56000  time[fs]=56.00000
   C -0.562484867E+01  0.185120159E+00  0.216828501E+00
   C  0.522079476E+01  0.197694601E-01 -0.893204147E-01
   H -0.286288116E+02 -0.217336856E+01 -0.289333154E+01
   H  0.282984023E+02 -0.109362010E+01  0.143568283E+01
     4
 # iter = 56500  time[fs]=56.50000
   C -0.570913783E+01  0.188209589E+00  0.220491758E+00
   C  0.529873581E+01  0.203119493E-01 -0.907075247E-01
   H -0.290198112E+02 -0.220270644E+01 -0.293282860E+01
   H  0.286889798E+02 -0.110836132E+01  0.145642662E+01
     4
 # iter = 57000  time[fs]=57.00000
   C -0.579352422E+01  0.191301648E+00  0.224158949E+00
   C  0.537677185E+01  0.208538850E-01 -0.920978731E-01
   H -0.294109990E+02 -0.223206008E+01 -0.297234679E+01
   H  0.290797723E+02 -0.112311168E+01  0.147718320E+01
     4
 # iter = 57500  time[fs]=57.50000
   C -0.587800502E+01  0.194396265E+00  0.227829968E+00
   C  0.545490012E+01  0.213952848E-01 -0.934913726E-01
   H -0.298023701E+02 -0.226142908E+01 -0.301188557E+01
   H  0.294707743E+02 -0.113787094E+01  0.149795223E+01
     4
 # iter = 58000  time[fs]=58.00000
   C -0.596257753E+01  0.197493370E+00  0.231504714E+00
   C  0.553311798E+01  0.219361659E-01 -0.948879392E-01
   H -0.301939197E+02 -0.229081303E+01 -0.305144440E+01
   H  0.298619802E+02 -0.115263888E+01  0.151873340E+01
     4
 # iter = 58500  time[fs]=58.50000
   C -0.604723914E+01  0.200592896E+00  0.235183089E+00
   C  0.561142288E+01  0.224765445E-01 -0.962874925E-01
   H -0.305856432E+02 -0.232021156E+01 -0.309102278E+01
   H  0.302533847E+02 -0.116741527E+01  0.153952641E+01
     4
 # iter = 59000  time[fs]=59.00000
   C -0.613198736E+01  0.203694781E+00  0.238865000E+00
   C  0.568981239E+01  0.230164361E-01 -0.976899547E-01
   H -0.309775362E+02 -0.234962431E+01 -0.313062022E+01
   H  0.306449829E+02 -0.118219989E+01  0.156033097E+01
     4
 # iter = 59500  time[fs]=59.50000
   C -0.621681980E+01  0.206798962E+00  0.242550355E+00
   C  0.576828417E+01  0.235558556E-01 -0.990952513E-01
   H -0.313695946E+02 -0.237905092E+01 -0.317023626E+01
   H  0.310367698E+02 -0.119699255E+01  0.158114679E+01
     4
 # iter = 60000  time[fs]=60.00000
   C -0.630173417E+01  0.209905382E+00  0.246239070E+00
   C  0.584683597E+01  0.240948172E-01 -0.100503310E+00
   H -0.317618142E+02 -0.240849107E+01 -0.320987045E+01
   H  0.314287407E+02 -0.121179304E+01  0.160197360E+01
     4
 # iter = 60500  time[fs]=60.50000
   C -0.638672826E+01  0.213013982E+00  0.249931059E+00
   C  0.592546565E+01  0.246333347E-01 -0.101914063E+00
   H -0.321541911E+02 -0.243794441E+01 -0.324952234E+01
   H  0.318208911E+02 -0.122660118E+01  0.162281114E+01
     4
 # iter = 61000  time[fs]=61.00000
   C -0.647179995E+01  0.216124709E+00  0.253626242E+00
   C  0.600417112E+01  0.251714211E-01 -0.103327442E+00
   H -0.325467215E+02 -0.246741064E+01 -0.328919151E+01
   H  0.322132167E+02 -0.124141677E+01  0.164365916E+01
     4
 # iter = 61500  time[fs]=61.50000
   C -0.655694721E+01  0.219237510E+00  0.257324541E+00
   C  0.608295040E+01  0.257090890E-01 -0.104743383E+00
   H -0.329394018E+02 -0.249688946E+01 -0.332887757E+01
   H  0.326057133E+02 -0.125623964E+01  0.166451742E+01
     4
 # iter = 62000  time[fs]=62.00000
   C -0.664216807E+01  0.222352334E+00  0.261025881E+00
   C  0.616180156E+01  0.262463503E-01 -0.106161825E+00
   H -0.333322284E+02 -0.252638056E+01 -0.336858011E+01
   H  0.329983768E+02 -0.127106962E+01  0.168538566E+01
     4
 # iter = 62500  time[fs]=62.50000
   C -0.672746065E+01  0.225469133E+00  0.264730191E+00
   C  0.624072277E+01  0.267832168E-01 -0.107582706E+00
   H -0.337251979E+02 -0.255588368E+01 -0.340829877E+01
   H  0.333912033E+02 -0.128590654E+01  0.170626368E+01
     4
 # iter = 63000  time[fs]=63.00000
   C -0.681282312E+01  0.228587858E+00  0.268437399E+00
   C  0.631971224E+01  0.273196994E-01 -0.109005971E+00
   H -0.341183070E+02 -0.258539853E+01 -0.344803316E+01
   H  0.337841890E+02 -0.130075025E+01  0.172715125E+01
     4
 # iter = 63500  time[fs]=63.50000
   C -0.689825375E+01  0.231708465E+00  0.272147439E+00
   C  0.639876827E+01  0.278558088E-01 -0.110431563E+00
   H -0.345115526E+02 -0.261492485E+01 -0.348778295E+01
   H  0.341773302E+02 -0.131560059E+01  0.174804815E+01
     4
 # iter = 64000  time[fs]=64.00000
   C -0.698375083E+01  0.234830910E+00  0.275860245E+00
   C  0.647788921E+01  0.283915553E-01 -0.111859427E+00
   H -0.349049316E+02 -0.264446239E+01 -0.352754780E+01
   H  0.345706235E+02 -0.133045740E+01  0.176895419E+01
     4
 # iter = 64500  time[fs]=64.50000
   C -0.706931275E+01  0.237955149E+00  0.279575754E+00
   C  0.655707346E+01  0.289269488E-01 -0.113289513E+00
   H -0.352984410E+02 -0.267401089E+01 -0.356732735E+01
   H  0.349640655E+02 -0.134532055E+01  0.178986915E+01
     4
 # iter = 65000  time[fs]=65.00000
   C -0.715493794E+01  0.241081143E+00  0.283293906E+00
   C  0.663631949E+01  0.294619987E-01 -0.114721769E+00
   H -0.356920779E+02 -0.270357013E+01 -0.360712131E+01
   H  0.353576528E+02 -0.136018990E+01  0.181079286E+01
     4
 # iter = 65500  time[fs]=65.50000
   C -0.724062487E+01  0.244208851E+00  0.287014642E+00
   C  0.671562582E+01  0.299967142E-01 -0.116156148E+00
   H -0.360858395E+02 -0.273313986E+01 -0.364692936E+01
   H  0.357513822E+02 -0.137506531E+01  0.183172511E+01
     4
 # iter = 66000  time[fs]=66.00000
   C -0.732637210E+01  0.247338235E+00  0.290737904E+00
   C  0.679499103E+01  0.305311040E-01 -0.117592602E+00
   H -0.364797232E+02 -0.276271988E+01 -0.368675120E+01
   H  0.361452507E+02 -0.138994665E+01  0.185266574E+01
     4
 # iter = 66500  time[fs]=66.50000
   C -0.741217821E+01  0.250469258E+00  0.294463638E+00
   C  0.687441374E+01  0.310651766E-01 -0.119031085E+00
   H -0.368737264E+02 -0.279230994E+01 -0.372658654E+01
   H  0.365392552E+02 -0.140483379E+01  0.187361456E+01
     4
 # iter = 67000  time[fs]=67.00000
   C -0.749804183E+01  0.253601884E+00  0.298191790E+00
   C  0.695389260E+01  0.315989403E-01 -0.120471553E+00
   H -0.372678465E+02 -0.282190986E+01 -0.376643510E+01
   H  0.369333929E+02 -0.141972661E+01  0.189457141E+01
     4
 # iter = 67500  time[fs]=67.50000
   C -0.758396165E+01  0.256736079E+00  0.301922308E+00
   C  0.703342634E+01  0.321324027E-01 -0.121913964E+00
   H -0.376620811E+02 -0.285151942E+01 -0.380629660E+01
   H  0.373276611E+02 -0.143462499E+01  0.191553612E+01
     4
 # iter = 68000  time[fs]=68.00000
   C -0.766993640E+01  0.259871808E+00  0.305655143E+00
   C  0.711301372E+01  0.326655716E-01 -0.123358277E+00
   H -0.380564278E+02 -0.288113843E+01 -0.384617079E+01
   H  0.377220568E+02 -0.144952882E+01  0.193650854E+01
     4
 # iter = 68500  time[fs]=68.50000
   C -0.775596484E+01  0.263009040E+00  0.309390245E+00
   C  0.719265351E+01  0.331984542E-01 -0.124804451E+00
   H -0.384508844E+02 -0.291076669E+01 -0.388605740E+01
   H  0.381165776E+02 -0.146443799E+01  0.195748850E+01
     4
 # iter = 69000  time[fs]=69.00000
   C -0.784204579E+01  0.266147742E+00  0.313127569E+00
   C  0.727234458E+01  0.337310576E-01 -0.126252448E+00
   H -0.388454485E+02 -0.294040403E+01 -0.392595619E+01
   H  0.385112209E+02 -0.147935238E+01  0.197847586E+01
     4
 # iter = 69500  time[fs]=69.50000
   C -0.792817808E+01  0.269287884E+00  0.316867067E+00
   C  0.735208577E+01  0.342633886E-01 -0.127702230E+00
   H -0.392401181E+02 -0.297005025E+01 -0.396586691E+01
   H  0.389059842E+02 -0.149427190E+01  0.199947047E+01
     4
 # iter = 70000  time[fs]=70.00000
   C -0.801436061E+01  0.272429437E+00  0.320608697E+00
   C  0.743187601E+01  0.347954538E-01 -0.129153760E+00
   H -0.396348910E+02 -0.299970519E+01 -0.400578933E+01
   H  0.393008651E+02 -0.150919643E+01  0.202047219E+01
     4
 # iter = 70500  time[fs]=70.50000
   C -0.810059229E+01  0.275572371E+00  0.324352415E+00
   C  0.751171424E+01  0.353272595E-01 -0.130607003E+00
   H -0.400297652E+02 -0.302936868E+01 -0.404572323E+01
   H  0.396958612E+02 -0.152412589E+01  0.204148089E+01
     4
 # iter = 71000  time[fs]=71.00000
   C -0.818687208E+01  0.278716659E+00  0.328098179E+00
   C  0.759159944E+01  0.358588119E-01 -0.132061925E+00
   H -0.404247387E+02 -0.305904054E+01 -0.408566838E+01
   H  0.400909703E+02 -0.153906017E+01  0.206249642E+01
     4
 # iter = 71500  time[fs]=71.50000
   C -0.827319895E+01  0.281862274E+00  0.331845949E+00
   C  0.767153061E+01  0.363901170E-01 -0.133518493E+00
   H -0.408198096E+02 -0.308872063E+01 -0.412562457E+01
   H  0.404861903E+02 -0.155399918E+01  0.208351866E+01
     4
 # iter = 72000  time[fs]=72.00000
   C -0.835957194E+01  0.285009189E+00  0.335595687E+00
   C  0.775150680E+01  0.369211804E-01 -0.134976673E+00
   H -0.412149761E+02 -0.311840878E+01 -0.416559158E+01
   H  0.408815189E+02 -0.156894284E+01  0.210454749E+01
     4
 # iter = 72500  time[fs]=72.50000
   C -0.844599008E+01  0.288157379E+00  0.339347352E+00
   C  0.783152706E+01  0.374520077E-01 -0.136436435E+00
   H -0.416102363E+02 -0.314810484E+01 -0.420556923E+01
   H  0.412769541E+02 -0.158389105E+01  0.212558278E+01
     4
 # iter = 73000  time[fs]=73.00000
   C -0.853245245E+01  0.291306820E+00  0.343100910E+00
   C  0.791159051E+01  0.379826043E-01 -0.137897748E+00
   H -0.420055884E+02 -0.317780867E+01 -0.424555730E+01
   H  0.416724939E+02 -0.159884373E+01  0.214662441E+01
     4
 # iter = 73500  time[fs]=73.50000
   C -0.861895815E+01  0.294457486E+00  0.346856323E+00
   C  0.799169625E+01  0.385129754E-01 -0.139360582E+00
   H -0.424010308E+02 -0.320752012E+01 -0.428555561E+01
   H  0.420681363E+02 -0.161380079E+01  0.216767226E+01
     4
 # iter = 74000  time[fs]=74.00000
   C -0.870550632E+01  0.297609356E+00  0.350613557E+00
   C  0.807184345E+01  0.390431260E-01 -0.140824909E+00
   H -0.427965618E+02 -0.323723905E+01 -0.432556397E+01
   H  0.424638795E+02 -0.162876215E+01  0.218872623E+01
     4
 # iter = 74500  time[fs]=74.50000
   C -0.879209610E+01  0.300762405E+00  0.354372577E+00
   C  0.815203128E+01  0.395730611E-01 -0.142290700E+00
   H -0.431921797E+02 -0.326696534E+01 -0.436558220E+01
   H  0.428597215E+02 -0.164372774E+01  0.220978620E+01
     4
 # iter = 75000  time[fs]=75.00000
   C -0.887872668E+01  0.303916612E+00  0.358133351E+00
   C  0.823225892E+01  0.401027852E-01 -0.143757928E+00
   H -0.435878831E+02 -0.329669884E+01 -0.440561012E+01
   H  0.432556605E+02 -0.165869748E+01  0.223085207E+01
     4
 # iter = 75500  time[fs]=75.50000
   C -0.896539726E+01  0.307071956E+00  0.361895846E+00
   C  0.831252562E+01  0.406323031E-01 -0.145226567E+00
   H -0.439836702E+02 -0.332643942E+01 -0.444564757E+01
   H  0.436516949E+02 -0.167367130E+01  0.225192373E+01
     4
 # iter = 76000  time[fs]=76.00000
   C -0.905210707E+01  0.310228416E+00  0.365660032E+00
   C  0.839283060E+01  0.411616191E-01 -0.146696591E+00
   H -0.443795398E+02 -0.335618697E+01 -0.448569436E+01
   H  0.440478229E+02 -0.168864911E+01  0.227300108E+01
     4
 # iter = 76500  time[fs]=76.50000
   C -0.913885535E+01  0.313385970E+00  0.369425877E+00
   C  0.847317314E+01  0.416907375E-01 -0.148167975E+00
   H -0.447754902E+02 -0.338594137E+01 -0.452575035E+01
   H  0.444440428E+02 -0.170363086E+01  0.229408402E+01
     4
 # iter = 77000  time[fs]=77.00000
   C -0.922564138E+01  0.316544600E+00  0.373193352E+00
   C  0.855355252E+01  0.422196626E-01 -0.149640694E+00
   H -0.451715202E+02 -0.341570248E+01 -0.456581537E+01
   H  0.448403530E+02 -0.171861647E+01  0.231517246E+01
     4
 # iter = 77500  time[fs]=77.50000
   C -0.931246443E+01  0.319704287E+00  0.376962428E+00
   C  0.863396804E+01  0.427483983E-01 -0.151114724E+00
   H -0.455676282E+02 -0.344547020E+01 -0.460588926E+01
   H  0.452367519E+02 -0.173360587E+01  0.233626630E+01
     4
 # iter = 78000  time[fs]=78.00000
   C -0.939932383E+01  0.322865010E+00  0.380733077E+00
   C  0.871441904E+01  0.432769486E-01 -0.152590043E+00
   H -0.459638130E+02 -0.347524442E+01 -0.464597188E+01
   H  0.456332381E+02 -0.174859900E+01  0.235736545E+01
     4
 # iter = 78500  time[fs]=78.50000
   C -0.948621889E+01  0.326026753E+00  0.384505271E+00
   C  0.879490485E+01  0.438053174E-01 -0.154066628E+00
   H -0.463600733E+02 -0.350502502E+01 -0.468606308E+01
   H  0.460298100E+02 -0.176359580E+01  0.237846983E+01
     4
 # iter = 79000  time[fs]=79.00000
   C -0.957314897E+01  0.329189498E+00  0.388278984E+00
   C  0.887542483E+01  0.443335082E-01 -0.155544456E+00
   H -0.467564077E+02 -0.353481190E+01 -0.472616271E+01
   H  0.464264661E+02 -0.177859621E+01  0.239957933E+01
     4
 # iter = 79500  time[fs]=79.50000
   C -0.966011343E+01  0.332353226E+00  0.392054190E+00
   C  0.895597837E+01  0.448615247E-01 -0.157023507E+00
   H -0.471528151E+02 -0.356460496E+01 -0.476627064E+01
   H  0.468232050E+02 -0.179360015E+01  0.242069389E+01
     4
 # iter = 80000  time[fs]=80.00000
   C -0.974711164E+01  0.335517922E+00  0.395830863E+00
   C  0.903656485E+01  0.453893704E-01 -0.158503759E+00
   H -0.475492942E+02 -0.359440408E+01 -0.480638673E+01
   H  0.472200254E+02 -0.180860758E+01  0.244181342E+01
