     4
 # iter = 25000  time[fs]=25.00000
   C -0.104157214E+01  0.518719268E-02  0.165414582E-02
   C  0.986250482E+00 -0.335318172E-01 -0.374331170E-01
   H -0.531256560E+01  0.343260170E+00 -0.576546787E+00
   H  0.527580069E+01 -0.340408270E+00  0.338444661E+00
     4
 # iter = 25500  time[fs]=25.50000
   C -0.109203384E+01  0.335208723E-02  0.295149167E-02
   C  0.102664417E+01 -0.349497624E-01 -0.404435472E-01
   H -0.565670546E+01  0.357902214E+00 -0.621012605E+00
   H  0.558666428E+01 -0.369663859E+00  0.354691668E+00
     4
 # iter = 26000  time[fs]=26.00000
   C -0.114708712E+01  0.714885826E-03  0.347741827E-02
   C  0.106966824E+01 -0.375238180E-01 -0.446316447E-01
   H -0.600889038E+01  0.367329526E+00 -0.671190158E+00
   H  0.589480674E+01 -0.404506743E+00  0.365738946E+00
     4
 # iter = 26500  time[fs]=26.50000
   C -0.120383992E+01 -0.159069294E-03  0.580086430E-02
   C  0.111825891E+01 -0.379885623E-01 -0.467370986E-01
   H -0.635273064E+01  0.387603539E+00 -0.710960586E+00
   H  0.621604305E+01 -0.428823415E+00  0.387660745E+00
     4
 # iter = 27000  time[fs]=27.00000
   C -0.126186479E+01  0.849855494E-03  0.100439603E-01
   C  0.117227694E+01 -0.361751217E-01 -0.465945136E-01
   H -0.668718145E+01  0.419502349E+00 -0.739499373E+00
   H  0.655092282E+01 -0.441801453E+00  0.421234849E+00
     4
 # iter = 27500  time[fs]=27.50000
   C -0.132279750E+01  0.181991108E-02  0.142865122E-01
   C  0.122902142E+01 -0.344996072E-01 -0.466221455E-01
   H -0.702400485E+01  0.451045382E+00 -0.768749238E+00
   H  0.688725233E+01 -0.455401641E+00  0.454469689E+00
     4
 # iter = 28000  time[fs]=28.00000
   C -0.138773802E+01  0.139036982E-02  0.171684765E-01
   C  0.128652402E+01 -0.346705607E-01 -0.485297311E-01
   H -0.737149155E+01  0.473753719E+00 -0.807156528E+00
   H  0.721637128E+01 -0.478084516E+00  0.478878288E+00
     4
 # iter = 28500  time[fs]=28.50000
   C -0.145590883E+01  0.103782574E-03  0.192323592E-01
   C  0.134524735E+01 -0.359904211E-01 -0.516202344E-01
   H -0.772606290E+01  0.491038175E+00 -0.851281340E+00
   H  0.754154642E+01 -0.506415253E+00  0.497873225E+00
     4
 # iter = 29000  time[fs]=29.00000
   C -0.152575967E+01 -0.700906248E-03  0.218165434E-01
   C  0.140668318E+01 -0.367557106E-01 -0.541901748E-01
   H -0.807918619E+01  0.511282858E+00 -0.892713783E+00
   H  0.787104282E+01 -0.531984749E+00  0.519844520E+00
     4
 # iter = 29500  time[fs]=29.50000
   C -0.159663963E+01 -0.563306096E-03  0.253805310E-01
   C  0.147123124E+01 -0.363761126E-01 -0.556487941E-01
   H -0.842784241E+01  0.537378058E+00 -0.928541246E+00
   H  0.820764168E+01 -0.551884146E+00  0.547684073E+00
     4
 # iter = 30000  time[fs]=30.00000
   C -0.166903026E+01 -0.136623626E-03  0.292700141E-01
   C  0.153790015E+01 -0.356716511E-01 -0.568153444E-01
   H -0.877599243E+01  0.565251800E+00 -0.962816458E+00
   H  0.854716769E+01 -0.570174016E+00  0.577316020E+00
     4
 # iter = 30500  time[fs]=30.50000
   C -0.174350530E+01 -0.148723954E-03  0.327558730E-01
   C  0.160562067E+01 -0.355577984E-01 -0.586043167E-01
   H -0.912807884E+01  0.590363770E+00 -0.100006280E+01
   H  0.888498775E+01 -0.591385256E+00  0.604195807E+00
     4
 # iter = 31000  time[fs]=31.00000
   C -0.181993900E+01 -0.611824496E-03  0.358245293E-01
   C  0.167424437E+01 -0.360452236E-01 -0.610252821E-01
   H -0.948408264E+01  0.612645261E+00 -0.104033374E+01
   H  0.922095441E+01 -0.615575202E+00  0.628254028E+00
     4
 # iter = 31500  time[fs]=31.50000
   C -0.189773639E+01 -0.105454635E-02  0.389459448E-01
   C  0.174424833E+01 -0.365333305E-01 -0.634764807E-01
   H -0.984097215E+01  0.635048882E+00 -0.108066294E+01
   H  0.955795288E+01 -0.639778809E+00  0.652445021E+00
     4
 # iter = 32000  time[fs]=32.00000
   C -0.197649468E+01 -0.118504825E-02  0.424105336E-01
   C  0.181589442E+01 -0.366493536E-01 -0.655839443E-01
   H -0.101968475E+02  0.659403717E+00 -0.111920897E+01
   H  0.989775115E+01 -0.662156443E+00  0.678598784E+00
     4
 # iter = 32500  time[fs]=32.50000
   C -0.205623956E+01 -0.112887350E-02  0.460913451E-01
   C  0.188892697E+01 -0.365492562E-01 -0.675024180E-01
   H -0.105524263E+02  0.684928856E+00 -0.115674172E+01
   H  0.102395110E+02 -0.683481329E+00  0.705933330E+00
     4
 # iter = 33000  time[fs]=33.00000
   C -0.213713848E+01 -0.114339992E-02  0.497296287E-01
   C  0.196293300E+01 -0.365562588E-01 -0.695539129E-01
   H -0.109092573E+02  0.710018588E+00 -0.119485697E+01
   H  0.105815742E+02 -0.705352895E+00  0.732841262E+00
     4
 # iter = 33500  time[fs]=33.50000
   C -0.221918635E+01 -0.130458030E-02  0.532481019E-01
   C  0.203773766E+01 -0.367643170E-01 -0.718312042E-01
   H -0.112677611E+02  0.734200744E+00 -0.123401786E+01
   H  0.109234216E+02 -0.728236870E+00  0.758849616E+00
     4
 # iter = 34000  time[fs]=34.00000
   C -0.230220145E+01 -0.150384087E-02  0.567540585E-01
   C  0.211340719E+01 -0.370341484E-01 -0.741938682E-01
   H -0.116272098E+02  0.758156142E+00 -0.127353533E+01
   H  0.112656922E+02 -0.751445738E+00  0.784639335E+00
     4
 # iter = 34500  time[fs]=34.50000
   C -0.238601138E+01 -0.163493018E-02  0.603525267E-01
   C  0.219001161E+01 -0.372296676E-01 -0.765047231E-01
   H -0.119868945E+02  0.782550619E+00 -0.131273603E+01
   H  0.116090141E+02 -0.774307512E+00  0.810876400E+00
     4
 # iter = 35000  time[fs]=35.00000
   C -0.247055847E+01 -0.170017204E-02  0.640400184E-01
   C  0.226748949E+01 -0.373524226E-01 -0.787642664E-01
   H -0.123467895E+02  0.807370896E+00 -0.135162634E+01
   H  0.119533388E+02 -0.796830307E+00  0.837547183E+00
     4
 # iter = 35500  time[fs]=35.50000
   C -0.255584987E+01 -0.176119444E-02  0.677538018E-01
   C  0.234570968E+01 -0.374792005E-01 -0.810482836E-01
   H -0.127072432E+02  0.832232681E+00 -0.139058427E+01
   H  0.122982493E+02 -0.819393956E+00  0.864266774E+00
     4
 # iter = 36000  time[fs]=36.00000
   C -0.264186975E+01 -0.185169725E-02  0.714591317E-01
   C  0.242458112E+01 -0.376515949E-01 -0.833974163E-01
   H -0.130684326E+02  0.856926044E+00 -0.142981394E+01
   H  0.126435060E+02 -0.842204179E+00  0.890824781E+00
     4
 # iter = 36500  time[fs]=36.50000
   C -0.272855875E+01 -0.195751247E-02  0.751691880E-01
   C  0.250407760E+01 -0.378507475E-01 -0.857919043E-01
   H -0.134302383E+02  0.881540108E+00 -0.146922088E+01
   H  0.129891705E+02 -0.865167755E+00  0.917310108E+00
     4
 # iter = 37000  time[fs]=37.00000
   C -0.281585044E+01 -0.205342535E-02  0.789082526E-01
   C  0.258419068E+01 -0.380439339E-01 -0.881981695E-01
   H -0.137924743E+02  0.906232888E+00 -0.150864214E+01
   H  0.133353759E+02 -0.888122826E+00  0.943880622E+00
     4
 # iter = 37500  time[fs]=37.50000
   C -0.290370106E+01 -0.213342701E-02  0.826814542E-01
   C  0.266489102E+01 -0.382228367E-01 -0.906070874E-01
   H -0.141550770E+02  0.931042193E+00 -0.154803533E+01
   H  0.136821367E+02 -0.911028105E+00  0.970573912E+00
     4
 # iter = 38000  time[fs]=38.00000
   C -0.299208590E+01 -0.220738902E-02  0.864780920E-01
   C  0.274613226E+01 -0.383993228E-01 -0.930297627E-01
   H -0.145180839E+02  0.955906445E+00 -0.158745779E+01
   H  0.140293696E+02 -0.933942017E+00  0.997328112E+00
     4
 # iter = 38500  time[fs]=38.50000
   C -0.308098171E+01 -0.228380875E-02  0.902888867E-01
   C  0.282787249E+01 -0.385835931E-01 -0.954756764E-01
   H -0.148815261E+02  0.980772568E+00 -0.162695864E+01
   H  0.143770015E+02 -0.956914702E+00  0.102408988E+01
     4
 # iter = 39000  time[fs]=39.00000
   C -0.317035916E+01 -0.236256846E-02  0.941132193E-01
   C  0.291008322E+01 -0.387750080E-01 -0.979435093E-01
   H -0.152453820E+02  0.100564127E+01 -0.166653352E+01
   H  0.147250144E+02 -0.979942680E+00  0.105085972E+01
     4
 # iter = 39500  time[fs]=39.50000
   C -0.326018740E+01 -0.243974021E-02  0.979543235E-01
   C  0.299274301E+01 -0.389681608E-01 -0.100427214E+00
   H -0.156096082E+02  0.103053702E+01 -0.170615451E+01
   H  0.150734153E+02 -0.100299888E+01  0.107766191E+01
     4
 # iter = 40000  time[fs]=40.00000
   C -0.335043981E+01 -0.251352464E-02  0.101813344E+00
   C  0.307582973E+01 -0.391603873E-01 -0.102923521E+00
   H -0.159741754E+02  0.105547094E+01 -0.174580732E+01
   H  0.154221992E+02 -0.102606976E+01  0.110450740E+01
     4
 # iter = 40500  time[fs]=40.50000
   C -0.344109445E+01 -0.258495878E-02  0.105688626E+00
   C  0.315931953E+01 -0.393526559E-01 -0.105432827E+00
   H -0.163390736E+02  0.108043637E+01 -0.178549561E+01
   H  0.157713443E+02 -0.104915972E+01  0.113138933E+01
     4
 # iter = 41000  time[fs]=41.00000
   C -0.353213154E+01 -0.265551274E-02  0.109578118E+00
   C  0.324318963E+01 -0.395465198E-01 -0.107956147E+00
   H -0.167042966E+02  0.110542390E+01 -0.182522596E+01
   H  0.161208270E+02 -0.107227606E+01  0.115829812E+01
     4
 # iter = 41500  time[fs]=41.50000
   C -0.362353176E+01 -0.272558626E-02  0.113480871E+00
   C  0.332742014E+01 -0.397422101E-01 -0.110493202E+00
   H -0.170698323E+02  0.113043081E+01 -0.186499848E+01
   H  0.164706312E+02 -0.109541951E+01  0.118523090E+01
     4
 # iter = 42000  time[fs]=42.00000
   C -0.371527648E+01 -0.279484964E-02  0.117396694E+00
   C  0.341199348E+01 -0.399390634E-01 -0.113042848E+00
   H -0.174356653E+02  0.115545891E+01 -0.190480889E+01
   H  0.168207463E+02 -0.111858641E+01  0.121218931E+01
     4
 # iter = 42500  time[fs]=42.50000
   C -0.380734843E+01 -0.286306744E-02  0.121325334E+00
   C  0.349689317E+01 -0.401365609E-01 -0.115604110E+00
   H -0.178017814E+02  0.118050941E+01 -0.194465365E+01
   H  0.171711617E+02 -0.114177377E+01  0.123917442E+01
     4
 # iter = 43000  time[fs]=43.00000
   C -0.389973187E+01 -0.293034747E-02  0.125266219E+00
   C  0.358210346E+01 -0.403346405E-01 -0.118176496E+00
   H -0.181681693E+02  0.120558136E+01 -0.198453152E+01
   H  0.175218655E+02 -0.116498090E+01  0.126618513E+01
     4
 # iter = 43500  time[fs]=43.50000
   C -0.399241223E+01 -0.299691385E-02  0.129218686E+00
   C  0.366760951E+01 -0.405334072E-01 -0.120759704E+00
   H -0.185348193E+02  0.123067306E+01 -0.202444212E+01
   H  0.178728456E+02 -0.118820793E+01  0.129321963E+01
     4
 # iter = 44000  time[fs]=44.00000
   C -0.408537583E+01 -0.306289900E-02  0.133182189E+00
   C  0.375339754E+01 -0.407328677E-01 -0.123353354E+00
   H -0.189017218E+02  0.125578342E+01 -0.206438462E+01
   H  0.182240911E+02 -0.121145449E+01  0.132027668E+01
     4
 # iter = 44500  time[fs]=44.50000
   C -0.417860979E+01 -0.312833941E-02  0.137156297E+00
   C  0.383945476E+01 -0.409329227E-01 -0.125956982E+00
   H -0.192688669E+02  0.128091190E+01 -0.210435769E+01
   H  0.185755921E+02 -0.123471972E+01  0.134735563E+01
     4
 # iter = 45000  time[fs]=45.00000
   C -0.427210206E+01 -0.319325686E-02  0.141140616E+00
   C  0.392576924E+01 -0.411334685E-01 -0.128570137E+00
   H -0.196362456E+02  0.130605808E+01 -0.214436002E+01
   H  0.189273396E+02 -0.125800272E+01  0.137445594E+01
     4
 # iter = 45500  time[fs]=45.50000
   C -0.436584135E+01 -0.325769760E-02  0.145134748E+00
   C  0.401232973E+01 -0.413344446E-01 -0.131192431E+00
   H -0.200038493E+02  0.133122138E+01 -0.218439054E+01
   H  0.192793246E+02 -0.128130283E+01  0.140157692E+01
     4
 # iter = 46000  time[fs]=46.00000
   C -0.445981707E+01 -0.332171978E-02  0.149138297E+00
   C  0.409912567E+01 -0.415358170E-01 -0.133823516E+00
   H -0.203716700E+02  0.135640114E+01 -0.222444834E+01
   H  0.196315387E+02 -0.130461953E+01  0.142871780E+01
     4
 # iter = 46500  time[fs]=46.50000
   C -0.455401930E+01 -0.338537373E-02  0.153150897E+00
   C  0.418614714E+01 -0.417375515E-01 -0.136463063E+00
   H -0.207397001E+02  0.138159675E+01 -0.226453254E+01
   H  0.199839739E+02 -0.132795229E+01  0.145587789E+01
     4
 # iter = 47000  time[fs]=47.00000
   C -0.464843868E+01 -0.344869826E-02  0.157172205E+00
   C  0.427338481E+01 -0.419396085E-01 -0.139110749E+00
   H -0.211079325E+02  0.140680770E+01 -0.230464225E+01
   H  0.203366225E+02 -0.135130057E+01  0.148305655E+01
     4
 # iter = 47500  time[fs]=47.50000
   C -0.474306640E+01 -0.351172645E-02  0.161201901E+00
   C  0.436082991E+01 -0.421419493E-01 -0.141766269E+00
   H -0.214763603E+02  0.143203348E+01 -0.234477662E+01
   H  0.206894774E+02 -0.137466384E+01  0.151025321E+01
     4
 # iter = 48000  time[fs]=48.00000
   C -0.483789415E+01 -0.357448986E-02  0.165239680E+00
   C  0.444847416E+01 -0.423445402E-01 -0.144429333E+00
   H -0.218449768E+02  0.145727364E+01 -0.238493484E+01
   H  0.210425317E+02 -0.139804163E+01  0.153746731E+01
     4
 # iter = 48500  time[fs]=48.50000
   C -0.493291410E+01 -0.363701860E-02  0.169285250E+00
   C  0.453630976E+01 -0.425473525E-01 -0.147099669E+00
   H -0.222137760E+02  0.148252770E+01 -0.242511617E+01
   H  0.213957790E+02 -0.142143346E+01  0.156469830E+01
     4
 # iter = 49000  time[fs]=49.00000
   C -0.502811886E+01 -0.369934022E-02  0.173338337E+00
   C  0.462432932E+01 -0.427503602E-01 -0.149777021E+00
   H -0.225827520E+02  0.150779523E+01 -0.246531989E+01
   H  0.217492131E+02 -0.144483891E+01  0.159194565E+01
     4
 # iter = 49500  time[fs]=49.50000
   C -0.512350142E+01 -0.376147948E-02  0.177398678E+00
   C  0.471252588E+01 -0.429535388E-01 -0.152461143E+00
   H -0.229518990E+02  0.153307581E+01 -0.250554530E+01
   H  0.221028279E+02 -0.146825756E+01  0.161920888E+01
     4
 # iter = 50000  time[fs]=50.00000
   C -0.521905517E+01 -0.382345878E-02  0.181466025E+00
   C  0.480089284E+01 -0.431568661E-01 -0.155151802E+00
   H -0.233212119E+02  0.155836904E+01 -0.254579174E+01
   H  0.224566180E+02 -0.149168900E+01  0.164648751E+01
     4
 # iter = 50500  time[fs]=50.50000
   C -0.531477385E+01 -0.388529863E-02  0.185540143E+00
   C  0.488942397E+01 -0.433603215E-01 -0.157848776E+00
   H -0.236906854E+02  0.158367456E+01 -0.258605860E+01
   H  0.228105780E+02 -0.151513285E+01  0.167378110E+01
     4
 # iter = 51000  time[fs]=51.00000
   C -0.541065151E+01 -0.394701789E-02  0.189620807E+00
   C  0.497811333E+01 -0.435638865E-01 -0.160551856E+00
   H -0.240603146E+02  0.160899199E+01 -0.262634526E+01
   H  0.231647026E+02 -0.153858874E+01  0.170108920E+01
     4
 # iter = 51500  time[fs]=51.50000
   C -0.550668252E+01 -0.400863380E-02  0.193707803E+00
   C  0.506695531E+01 -0.437675442E-01 -0.163260840E+00
   H -0.244300950E+02  0.163432099E+01 -0.266665116E+01
   H  0.235189870E+02 -0.156205633E+01  0.172841142E+01
     4
 # iter = 52000  time[fs]=52.00000
   C -0.560286152E+01 -0.407016215E-02  0.197800927E+00
   C  0.515594459E+01 -0.439712790E-01 -0.165975538E+00
   H -0.248000221E+02  0.165966122E+01 -0.270697574E+01
   H  0.238734266E+02 -0.158553529E+01  0.175574735E+01
     4
 # iter = 52500  time[fs]=52.50000
   C -0.569918344E+01 -0.413161739E-02  0.201899985E+00
   C  0.524507610E+01 -0.441750767E-01 -0.168695768E+00
   H -0.251700915E+02  0.168501238E+01 -0.274731849E+01
   H  0.242280168E+02 -0.160902529E+01  0.178309660E+01
     4
 # iter = 53000  time[fs]=53.00000
   C -0.579564345E+01 -0.419301275E-02  0.206004791E+00
   C  0.533434502E+01 -0.443789242E-01 -0.171421356E+00
   H -0.255402993E+02  0.171037415E+01 -0.278767889E+01
   H  0.245827533E+02 -0.163252602E+01  0.181045883E+01
     4
 # iter = 53500  time[fs]=53.50000
   C -0.589223693E+01 -0.425436038E-02  0.210115169E+00
   C  0.542374677E+01 -0.445828097E-01 -0.174152136E+00
   H -0.259106415E+02  0.173574625E+01 -0.282805646E+01
   H  0.249376321E+02 -0.165603720E+01  0.183783368E+01
     4
 # iter = 54000  time[fs]=54.00000
   C -0.598895952E+01 -0.431567140E-02  0.214230949E+00
   C  0.551327699E+01 -0.447867222E-01 -0.176887949E+00
   H -0.262811143E+02  0.176112839E+01 -0.286845074E+01
   H  0.252926492E+02 -0.167955854E+01  0.186522082E+01
     4
 # iter = 54500  time[fs]=54.50000
   C -0.608580704E+01 -0.437695602E-02  0.218351969E+00
   C  0.560293152E+01 -0.449906518E-01 -0.179628645E+00
   H -0.266517142E+02  0.178652030E+01 -0.290886128E+01
   H  0.256478007E+02 -0.170308976E+01  0.189261992E+01
     4
 # iter = 55000  time[fs]=55.00000
   C -0.618277550E+01 -0.443822361E-02  0.222478076E+00
   C  0.569270640E+01 -0.451945892E-01 -0.182374078E+00
   H -0.270224378E+02  0.181192174E+01 -0.294928766E+01
   H  0.260030831E+02 -0.172663061E+01  0.192003067E+01
     4
 # iter = 55500  time[fs]=55.50000
   C -0.627986112E+01 -0.449948277E-02  0.226609120E+00
   C  0.578259784E+01 -0.453985261E-01 -0.185124110E+00
   H -0.273932817E+02  0.183733244E+01 -0.298972947E+01
   H  0.263584930E+02 -0.175018084E+01  0.194745278E+01
     4
 # iter = 56000  time[fs]=56.00000
   C -0.637706025E+01 -0.456074137E-02  0.230744960E+00
   C  0.587260222E+01 -0.456024548E-01 -0.187878608E+00
   H -0.277642428E+02  0.186275218E+01 -0.303018630E+01
   H  0.267140268E+02 -0.177374021E+01  0.197488596E+01
     4
 # iter = 56500  time[fs]=56.50000
   C -0.647436945E+01 -0.462200664E-02  0.234885460E+00
   C  0.596271610E+01 -0.458063682E-01 -0.190637445E+00
   H -0.281353179E+02  0.188818072E+01 -0.307065778E+01
   H  0.270696815E+02 -0.179730848E+01  0.200232993E+01
     4
 # iter = 57000  time[fs]=57.00000
   C -0.657178539E+01 -0.468328524E-02  0.239030489E+00
   C  0.605293618E+01 -0.460102598E-01 -0.193400498E+00
   H -0.285065042E+02  0.191361784E+01 -0.311114355E+01
   H  0.274254539E+02 -0.182088544E+01  0.202978444E+01
     4
 # iter = 57500  time[fs]=57.50000
   C -0.666930490E+01 -0.474458324E-02  0.243179924E+00
   C  0.614325930E+01 -0.462141238E-01 -0.196167652E+00
   H -0.288777988E+02  0.193906334E+01 -0.315164324E+01
   H  0.277813410E+02 -0.184447087E+01  0.205724922E+01
     4
 # iter = 58000  time[fs]=58.00000
   C -0.676692495E+01 -0.480590624E-02  0.247333643E+00
   C  0.623368244E+01 -0.464179547E-01 -0.198938793E+00
   H -0.292491991E+02  0.196451699E+01 -0.319215653E+01
   H  0.281373400E+02 -0.186806456E+01  0.208472402E+01
     4
 # iter = 58500  time[fs]=58.50000
   C -0.686464264E+01 -0.486725935E-02  0.251491532E+00
   C  0.632420271E+01 -0.466217476E-01 -0.201713814E+00
   H -0.296207024E+02  0.198997862E+01 -0.323268308E+01
   H  0.284934482E+02 -0.189166631E+01  0.211220862E+01
     4
 # iter = 59000  time[fs]=59.00000
   C -0.696245518E+01 -0.492864726E-02  0.255653479E+00
   C  0.641481732E+01 -0.468254979E-01 -0.204492612E+00
   H -0.299923061E+02  0.201544803E+01 -0.327322258E+01
   H  0.288496628E+02 -0.191527593E+01  0.213970277E+01
     4
 # iter = 59500  time[fs]=59.50000
   C -0.706035990E+01 -0.499007429E-02  0.259819379E+00
   C  0.650552363E+01 -0.470292014E-01 -0.207275087E+00
   H -0.303640079E+02  0.204092502E+01 -0.331377473E+01
   H  0.292059812E+02 -0.193889324E+01  0.216720627E+01
     4
 # iter = 60000  time[fs]=60.00000
   C -0.715835423E+01 -0.505154436E-02  0.263989129E+00
   C  0.659631908E+01 -0.472328545E-01 -0.210061142E+00
   H -0.307358054E+02  0.206640944E+01 -0.335433923E+01
   H  0.295624011E+02 -0.196251806E+01  0.219471889E+01
     4
 # iter = 60500  time[fs]=60.50000
   C -0.725643573E+01 -0.511306107E-02  0.268162630E+00
   C  0.668720122E+01 -0.474364535E-01 -0.212850687E+00
   H -0.311076963E+02  0.209190110E+01 -0.339491580E+01
   H  0.299189201E+02 -0.198615021E+01  0.222224043E+01
     4
 # iter = 61000  time[fs]=61.00000
   C -0.735460202E+01 -0.517462773E-02  0.272339788E+00
   C  0.677816771E+01 -0.476399955E-01 -0.215643632E+00
   H -0.314796785E+02  0.211739985E+01 -0.343550415E+01
   H  0.302755357E+02 -0.200978953E+01  0.224977069E+01
     4
 # iter = 61500  time[fs]=61.50000
   C -0.745285084E+01 -0.523624734E-02  0.276520511E+00
   C  0.686921628E+01 -0.478434774E-01 -0.218439893E+00
   H -0.318517498E+02  0.214290552E+01 -0.347610404E+01
   H  0.306322459E+02 -0.203343586E+01  0.227730947E+01
     4
 # iter = 62000  time[fs]=62.00000
   C -0.755118001E+01 -0.529792264E-02  0.280704712E+00
   C  0.696034476E+01 -0.480468968E-01 -0.221239386E+00
   H -0.322239082E+02  0.216841795E+01 -0.351671520E+01
   H  0.309890483E+02 -0.205708904E+01  0.230485660E+01
     4
 # iter = 62500  time[fs]=62.50000
   C -0.764958743E+01 -0.535965614E-02  0.284892305E+00
   C  0.705155107E+01 -0.482502512E-01 -0.224042033E+00
   H -0.325961518E+02  0.219393701E+01 -0.355733739E+01
   H  0.313459411E+02 -0.208074891E+01  0.233241188E+01
     4
 # iter = 63000  time[fs]=63.00000
   C -0.774807109E+01 -0.542145011E-02  0.289083209E+00
   C  0.714283319E+01 -0.484535384E-01 -0.226847757E+00
   H -0.329684787E+02  0.221946254E+01 -0.359797036E+01
   H  0.317029222E+02 -0.210441535E+01  0.235997515E+01
     4
 # iter = 63500  time[fs]=63.50000
   C -0.784662903E+01 -0.548330662E-02  0.293277345E+00
   C  0.723418919E+01 -0.486567566E-01 -0.229656485E+00
   H -0.333408869E+02  0.224499440E+01 -0.363861389E+01
   H  0.320599895E+02 -0.212808819E+01  0.238754624E+01
     4
 # iter = 64000  time[fs]=64.00000
   C -0.794525939E+01 -0.554522754E-02  0.297474636E+00
   C  0.732561721E+01 -0.488599039E-01 -0.232468145E+00
   H -0.337133748E+02  0.227053247E+01 -0.367926775E+01
   H  0.324171413E+02 -0.215176732E+01  0.241512497E+01
     4
 # iter = 64500  time[fs]=64.50000
   C -0.804396037E+01 -0.560721457E-02  0.301675010E+00
   C  0.741711545E+01 -0.490629788E-01 -0.235282669E+00
   H -0.340859406E+02  0.229607660E+01 -0.371993172E+01
   H  0.327743757E+02 -0.217545259E+01  0.244271120E+01
     4
 # iter = 65000  time[fs]=65.00000
   C -0.814273023E+01 -0.566926925E-02  0.305878395E+00
   C  0.750868219E+01 -0.492659799E-01 -0.238099991E+00
   H -0.344585827E+02  0.232162668E+01 -0.376060560E+01
   H  0.331316910E+02 -0.219914387E+01  0.247030477E+01
     4
 # iter = 65500  time[fs]=65.50000
   C -0.824156729E+01 -0.573139295E-02  0.310084722E+00
   C  0.760031575E+01 -0.494689059E-01 -0.240920046E+00
   H -0.348312993E+02  0.234718258E+01 -0.380128917E+01
   H  0.334890855E+02 -0.222284105E+01  0.249790552E+01
     4
 # iter = 66000  time[fs]=66.00000
   C -0.834046994E+01 -0.579358690E-02  0.314293926E+00
   C  0.769201453E+01 -0.496717557E-01 -0.243742772E+00
   H -0.352040891E+02  0.237274418E+01 -0.384198225E+01
   H  0.338465574E+02 -0.224654400E+01  0.252551333E+01
     4
 # iter = 66500  time[fs]=66.50000
   C -0.843943661E+01 -0.585585221E-02  0.318505941E+00
   C  0.778377697E+01 -0.498745283E-01 -0.246568111E+00
   H -0.355769504E+02  0.239831136E+01 -0.388268463E+01
   H  0.342041053E+02 -0.227025261E+01  0.255312803E+01
     4
 # iter = 67000  time[fs]=67.00000
   C -0.853846581E+01 -0.591818987E-02  0.322720707E+00
   C  0.787560158E+01 -0.500772227E-01 -0.249396002E+00
   H -0.359498818E+02  0.242388402E+01 -0.392339614E+01
   H  0.345617275E+02 -0.229396676E+01  0.258074951E+01
     4
 # iter = 67500  time[fs]=67.50000
   C -0.863755607E+01 -0.598060074E-02  0.326938163E+00
   C  0.796748691E+01 -0.502798383E-01 -0.252226392E+00
   H -0.363228818E+02  0.244946205E+01 -0.396411659E+01
   H  0.349194226E+02 -0.231768635E+01  0.260837762E+01
     4
 # iter = 68000  time[fs]=68.00000
   C -0.873670600E+01 -0.604308559E-02  0.331158250E+00
   C  0.805943155E+01 -0.504823743E-01 -0.255059225E+00
   H -0.366959492E+02  0.247504533E+01 -0.400484581E+01
   H  0.352771891E+02 -0.234141126E+01  0.263601224E+01
     4
 # iter = 68500  time[fs]=68.50000
   C -0.883591423E+01 -0.610564508E-02  0.335380913E+00
   C  0.815143417E+01 -0.506848302E-01 -0.257894449E+00
   H -0.370690825E+02  0.250063377E+01 -0.404558363E+01
   H  0.356350255E+02 -0.236514139E+01  0.266365324E+01
     4
 # iter = 69000  time[fs]=69.00000
   C -0.893517944E+01 -0.616827981E-02  0.339606097E+00
   C  0.824349344E+01 -0.508872056E-01 -0.260732014E+00
   H -0.374422804E+02  0.252622727E+01 -0.408632988E+01
   H  0.359929306E+02 -0.238887665E+01  0.269130051E+01
     4
 # iter = 69500  time[fs]=69.50000
   C -0.903450038E+01 -0.623099025E-02  0.343833749E+00
   C  0.833560812E+01 -0.510894999E-01 -0.263571869E+00
   H -0.378155417E+02  0.255182573E+01 -0.412708440E+01
   H  0.363509029E+02 -0.241261693E+01  0.271895392E+01
     4
 # iter = 70000  time[fs]=70.00000
   C -0.913387581E+01 -0.629377683E-02  0.348063819E+00
   C  0.842777696E+01 -0.512917128E-01 -0.266413967E+00
   H -0.381888652E+02  0.257742906E+01 -0.416784704E+01
   H  0.367089411E+02 -0.243636214E+01  0.274661336E+01
     4
 # iter = 70500  time[fs]=70.50000
   C -0.923330455E+01 -0.635663989E-02  0.352296256E+00
   C  0.851999880E+01 -0.514938442E-01 -0.269258262E+00
   H -0.385622496E+02  0.260303717E+01 -0.420861765E+01
   H  0.370670441E+02 -0.246011220E+01  0.277427872E+01
     4
 # iter = 71000  time[fs]=71.00000
   C -0.933278543E+01 -0.641957972E-02  0.356531012E+00
   C  0.861227248E+01 -0.516958938E-01 -0.272104710E+00
   H -0.389356939E+02  0.262864996E+01 -0.424939607E+01
   H  0.374252106E+02 -0.248386699E+01  0.280194989E+01
     4
 # iter = 71500  time[fs]=71.50000
   C -0.943231735E+01 -0.648259652E-02  0.360768041E+00
   C  0.870459689E+01 -0.518978614E-01 -0.274953266E+00
   H -0.393091968E+02  0.265426736E+01 -0.429018217E+01
   H  0.377834393E+02 -0.250762645E+01  0.282962677E+01
     4
 # iter = 72000  time[fs]=72.00000
   C -0.953189922E+01 -0.654569047E-02  0.365007297E+00
   C  0.879697097E+01 -0.520997471E-01 -0.277803888E+00
   H -0.396827573E+02  0.267988927E+01 -0.433097580E+01
   H  0.381417292E+02 -0.253139049E+01  0.285730924E+01
     4
 # iter = 72500  time[fs]=72.50000
   C -0.963153000E+01 -0.660886166E-02  0.369248736E+00
   C  0.888939366E+01 -0.523015507E-01 -0.280656535E+00
   H -0.400563744E+02  0.270551562E+01 -0.437177683E+01
   H  0.385000791E+02 -0.255515902E+01  0.288499723E+01
     4
 # iter = 73000  time[fs]=73.00000
   C -0.973120867E+01 -0.667211015E-02  0.373492316E+00
   C  0.898186396E+01 -0.525032723E-01 -0.283511168E+00
   H -0.404300469E+02  0.273114633E+01 -0.441258514E+01
   H  0.388584879E+02 -0.257893197E+01  0.291269061E+01
     4
 # iter = 73500  time[fs]=73.50000
   C -0.983093425E+01 -0.673543595E-02  0.377737996E+00
   C  0.907438089E+01 -0.527049120E-01 -0.286367748E+00
   H -0.408037740E+02  0.275678132E+01 -0.445340058E+01
   H  0.392169546E+02 -0.260270925E+01  0.294038931E+01
     4
 # iter = 74000  time[fs]=74.00000
   C -0.993070579E+01 -0.679883904E-02  0.381985734E+00
   C  0.916694349E+01 -0.529064698E-01 -0.289226238E+00
   H -0.411775546E+02  0.278242051E+01 -0.449422303E+01
   H  0.395754781E+02 -0.262649079E+01  0.296809323E+01
     4
 # iter = 74500  time[fs]=74.50000
   C -0.100305223E+02 -0.686231935E-02  0.386235492E+00
   C  0.925955086E+01 -0.531079458E-01 -0.292086600E+00
   H -0.415513877E+02  0.280806383E+01 -0.453505238E+01
   H  0.399340574E+02 -0.265027651E+01  0.299580228E+01
     4
 # iter = 75000  time[fs]=75.00000
   C -0.101303830E+02 -0.692587676E-02  0.390487231E+00
   C  0.935220208E+01 -0.533093404E-01 -0.294948799E+00
   H -0.419252725E+02  0.283371122E+01 -0.457588850E+01
   H  0.402926916E+02 -0.267406635E+01  0.302351638E+01
     4
 # iter = 75500  time[fs]=75.50000
   C -0.102302870E+02 -0.698951115E-02  0.394740915E+00
   C  0.944489630E+01 -0.535106536E-01 -0.297812801E+00
   H -0.422992079E+02  0.285936259E+01 -0.461673128E+01
   H  0.406513796E+02 -0.269786023E+01  0.305123543E+01
     4
 # iter = 76000  time[fs]=76.00000
   C -0.103302333E+02 -0.705322234E-02  0.398996508E+00
   C  0.953763266E+01 -0.537118858E-01 -0.300678573E+00
   H -0.426731933E+02  0.288501789E+01 -0.465758061E+01
   H  0.410101205E+02 -0.272165808E+01  0.307895935E+01
     4
 # iter = 76500  time[fs]=76.50000
   C -0.104302213E+02 -0.711701013E-02  0.403253975E+00
   C  0.963041036E+01 -0.539130371E-01 -0.303546082E+00
   H -0.430472276E+02  0.291067704E+01 -0.469843637E+01
   H  0.413689135E+02 -0.274545985E+01  0.310668807E+01
     4
 # iter = 77000  time[fs]=77.00000
   C -0.105302500E+02 -0.718087430E-02  0.407513281E+00
   C  0.972322859E+01 -0.541141078E-01 -0.306415295E+00
   H -0.434213101E+02  0.293633999E+01 -0.473929846E+01
   H  0.417277576E+02 -0.276926545E+01  0.313442150E+01
     4
 # iter = 77500  time[fs]=77.50000
   C -0.106303187E+02 -0.724481460E-02  0.411774393E+00
   C  0.981608658E+01 -0.543150983E-01 -0.309286183E+00
   H -0.437954400E+02  0.296200667E+01 -0.478016677E+01
   H  0.420866520E+02 -0.279307484E+01  0.316215957E+01
     4
 # iter = 78000  time[fs]=78.00000
   C -0.107304267E+02 -0.730883076E-02  0.416037280E+00
   C  0.990898358E+01 -0.545160090E-01 -0.312158716E+00
   H -0.441696164E+02  0.298767701E+01 -0.482104121E+01
   H  0.424455959E+02 -0.281688794E+01  0.318990221E+01
     4
 # iter = 78500  time[fs]=78.50000
   C -0.108305732E+02 -0.737292249E-02  0.420301910E+00
   C  0.100019189E+02 -0.547168401E-01 -0.315032863E+00
   H -0.445438385E+02  0.301335096E+01 -0.486192167E+01
   H  0.428045883E+02 -0.284070469E+01  0.321764933E+01
     4
 # iter = 79000  time[fs]=79.00000
   C -0.109307575E+02 -0.743708947E-02  0.424568252E+00
   C  0.100948917E+02 -0.549175920E-01 -0.317908596E+00
   H -0.449181057E+02  0.303902847E+01 -0.490280805E+01
   H  0.431636286E+02 -0.286452505E+01  0.324540087E+01
     4
 # iter = 79500  time[fs]=79.50000
   C -0.110309789E+02 -0.750133137E-02  0.428836276E+00
   C  0.101879014E+02 -0.551182651E-01 -0.320785889E+00
   H -0.452924172E+02  0.306470946E+01 -0.494370027E+01
   H  0.435227160E+02 -0.288834894E+01  0.327315676E+01
     4
 # iter = 80000  time[fs]=80.00000
   C -0.111312367E+02 -0.756564787E-02  0.433105953E+00
   C  0.102809474E+02 -0.553188598E-01 -0.323664713E+00
   H -0.456667723E+02  0.309039390E+01 -0.498459822E+01
   H  0.438818496E+02 -0.291217632E+01  0.330091692E+01
