     4
 # iter = 25000  time[fs]=25.00000
   C -0.937521139E+00  0.565981478E-01 -0.112282906E-02
   C  0.103896948E+01 -0.185602670E-01 -0.212055279E-02
   H -0.512445150E+01 -0.530831435E+00  0.379865342E+00
   H  0.532283889E+01  0.280821723E+00 -0.484290928E+00
     4
 # iter = 25500  time[fs]=25.50000
   C -0.981342612E+00  0.592685406E-01 -0.295514096E-02
   C  0.108310982E+01 -0.214525146E-01 -0.229089702E-02
   H -0.546199073E+01 -0.574860901E+00  0.397078615E+00
   H  0.563406167E+01  0.292355097E+00 -0.523895428E+00
     4
 # iter = 26000  time[fs]=26.00000
   C -0.102890227E+01  0.612984063E-01 -0.559214407E-02
   C  0.112898139E+01 -0.256385641E-01 -0.359430525E-02
   H -0.581019296E+01 -0.624903435E+00  0.409297527E+00
   H  0.594576135E+01  0.298843923E+00 -0.569522065E+00
     4
 # iter = 26500  time[fs]=26.50000
   C -0.107760125E+01  0.650333860E-01 -0.667725710E-02
   C  0.117980831E+01 -0.276438806E-01 -0.256538080E-02
   H -0.615235283E+01 -0.664802796E+00  0.432557839E+00
   H  0.627340895E+01  0.316341818E+00 -0.605018372E+00
     4
 # iter = 27000  time[fs]=27.00000
   C -0.112709405E+01  0.705792106E-01 -0.609462360E-02
   C  0.123553657E+01 -0.272883388E-01  0.966685701E-03
   H -0.648716762E+01 -0.693704845E+00  0.467615850E+00
   H  0.661725142E+01  0.345612415E+00 -0.629532589E+00
     4
 # iter = 27500  time[fs]=27.50000
   C -0.117892020E+01  0.761720431E-01 -0.559867551E-02
   C  0.129337941E+01 -0.271419700E-01  0.442256064E-02
   H -0.682618814E+01 -0.723529469E+00  0.502471602E+00
   H  0.696482828E+01  0.374654892E+00 -0.654986700E+00
     4
 # iter = 28000  time[fs]=28.00000
   C -0.123412510E+01  0.805617225E-01 -0.643069968E-02
   C  0.135132192E+01 -0.290213167E-01  0.597691024E-02
   H -0.717752218E+01 -0.762702979E+00  0.528629767E+00
   H  0.730724879E+01  0.394973816E+00 -0.689808114E+00
     4
 # iter = 28500  time[fs]=28.50000
   C -0.129203183E+01  0.842409899E-01 -0.808955033E-02
   C  0.140992831E+01 -0.321820840E-01  0.636597203E-02
   H -0.753742604E+01 -0.807765667E+00  0.549488439E+00
   H  0.764758293E+01  0.409972436E+00 -0.730536135E+00
     4
 # iter = 29000  time[fs]=29.00000
   C -0.135125232E+01  0.884319448E-01 -0.934525063E-02
   C  0.147085051E+01 -0.348092916E-01  0.739727661E-02
   H -0.789722027E+01 -0.850289171E+00  0.573421448E+00
   H  0.799392571E+01  0.428031623E+00 -0.768740495E+00
     4
 # iter = 29500  time[fs]=29.50000
   C -0.141121820E+01  0.935523174E-01 -0.977277460E-02
   C  0.153457138E+01 -0.362724029E-01  0.969433172E-02
   H -0.825376012E+01 -0.887345962E+00  0.603309185E+00
   H  0.834890835E+01  0.452035680E+00 -0.801492955E+00
     4
 # iter = 30000  time[fs]=30.00000
   C -0.147239435E+01  0.990002642E-01 -0.996723712E-02
   C  0.160008707E+01 -0.374416390E-01  0.123802697E-01
   H -0.861089972E+01 -0.922977466E+00  0.635069639E+00
   H  0.870822209E+01  0.477902771E+00 -0.832835749E+00
     4
 # iter = 30500  time[fs]=30.50000
   C -0.153532705E+01  0.104105733E+00 -0.105924728E-01
   C  0.166630510E+01 -0.392887761E-01  0.144771207E-01
   H -0.897298836E+01 -0.961697333E+00  0.664153533E+00
   H  0.906711556E+01  0.501083197E+00 -0.867283234E+00
     4
 # iter = 31000  time[fs]=31.00000
   C -0.159991948E+01  0.108854150E+00 -0.116572999E-01
   C  0.173310769E+01 -0.418227608E-01  0.159702404E-01
   H -0.933992276E+01 -0.100354932E+01  0.690485202E+00
   H  0.942533699E+01  0.521502644E+00 -0.904878510E+00
     4
 # iter = 31500  time[fs]=31.50000
   C -0.166564296E+01  0.113673949E+00 -0.127279638E-01
   C  0.180103815E+01 -0.444021174E-01  0.174958685E-01
   H -0.970859508E+01 -0.104555758E+01  0.717011788E+00
   H  0.978567919E+01  0.542110782E+00 -0.942644242E+00
     4
 # iter = 32000  time[fs]=32.00000
   C -0.173214268E+01  0.118829359E+00 -0.135353258E-01
   C  0.187040670E+01 -0.466279039E-01  0.194481054E-01
   H -0.100770379E+02 -0.108587252E+01  0.745557244E+00
   H  0.101498276E+02  0.564733421E+00 -0.978729756E+00
     4
 # iter = 32500  time[fs]=32.50000
   C -0.179945430E+01  0.124202620E+00 -0.141926307E-01
   C  0.194096925E+01 -0.486639292E-01  0.216586504E-01
   H -0.104459095E+02 -0.112525742E+01  0.775335423E+00
   H  0.105168698E+02  0.588584945E+00 -0.101389812E+01
     4
 # iter = 33000  time[fs]=33.00000
   C -0.186774171E+01  0.129555429E+00 -0.149340172E-01
   C  0.201231119E+01 -0.508520922E-01  0.237814459E-01
   H -0.108167059E+02 -0.116530242E+01  0.804735687E+00
   H  0.108850807E+02  0.612054743E+00 -0.104973949E+01
     4
 # iter = 33500  time[fs]=33.50000
   C -0.193700945E+01  0.134815778E+00 -0.158276547E-01
   C  0.208426857E+01 -0.532904203E-01  0.257146266E-01
   H -0.111897998E+02 -0.120646528E+01  0.833281719E+00
   H  0.112538809E+02  0.634666906E+00 -0.108671124E+01
     4
 # iter = 34000  time[fs]=34.00000
   C -0.200709921E+01  0.140080780E+00 -0.167728833E-01
   C  0.215693162E+01 -0.558288425E-01  0.276047237E-01
   H -0.115644198E+02 -0.124805174E+01  0.861650904E+00
   H  0.116238551E+02  0.657099647E+00 -0.112411836E+01
     4
 # iter = 34500  time[fs]=34.50000
   C -0.207786018E+01  0.145445579E+00 -0.176712850E-01
   C  0.223039244E+01 -0.583207958E-01  0.295950291E-01
   H -0.119398178E+02 -0.128938373E+01  0.890505968E+00
   H  0.119955821E+02  0.680016448E+00 -0.116128206E+01
     4
 # iter = 35000  time[fs]=35.00000
   C -0.214924575E+01  0.150906048E+00 -0.185239621E-01
   C  0.230460145E+01 -0.607662850E-01  0.316825093E-01
   H -0.123159322E+02 -0.133046357E+01  0.919830627E+00
   H  0.123689684E+02  0.703401417E+00 -0.119820422E+01
     4
 # iter = 35500  time[fs]=35.50000
   C -0.222126789E+01  0.156403894E+00 -0.193864110E-01
   C  0.237943321E+01 -0.632454796E-01  0.337841880E-01
   H -0.126930794E+02 -0.137166566E+01  0.949237739E+00
   H  0.127435564E+02  0.726867585E+00 -0.123525894E+01
     4
 # iter = 36000  time[fs]=36.00000
   C -0.229391683E+01  0.161906520E+00 -0.202886393E-01
   C  0.245480351E+01 -0.658011899E-01  0.358546532E-01
   H -0.130714070E+02 -0.141319080E+01  0.978514821E+00
   H  0.131190689E+02  0.750202673E+00 -0.127264669E+01
     4
 # iter = 36500  time[fs]=36.50000
   C -0.236714245E+01  0.167425274E+00 -0.212168981E-01
   C  0.253069592E+01 -0.684119840E-01  0.379129248E-01
   H -0.134507687E+02 -0.145494140E+01  0.100774875E+01
   H  0.134955336E+02  0.773493844E+00 -0.131026943E+01
     4
 # iter = 37000  time[fs]=37.00000
   C -0.244088760E+01  0.172981728E+00 -0.221473885E-01
   C  0.260711178E+01 -0.710417566E-01  0.399928683E-01
   H -0.138309538E+02 -0.149675161E+01  0.103709549E+01
   H  0.138730521E+02  0.796897356E+00 -0.134796087E+01
     4
 # iter = 37500  time[fs]=37.50000
   C -0.251511551E+01  0.178579970E+00 -0.230739559E-01
   C  0.268402922E+01 -0.736804548E-01  0.421024545E-01
   H -0.142118760E+02 -0.153857642E+01  0.106659095E+01
   H  0.142516099E+02  0.820449315E+00 -0.138567564E+01
     4
 # iter = 38000  time[fs]=38.00000
   C -0.258980645E+01  0.184209637E+00 -0.240050386E-01
   C  0.276140736E+01 -0.763395784E-01  0.442282456E-01
   H -0.145935523E+02 -0.158047080E+01  0.109617176E+01
   H  0.146310974E+02  0.844086489E+00 -0.142346838E+01
     4
 # iter = 38500  time[fs]=38.50000
   C -0.266494170E+01  0.189861714E+00 -0.249478640E-01
   C  0.283920933E+01 -0.790289231E-01  0.463586407E-01
   H -0.149759942E+02 -0.162248169E+01  0.112578319E+01
   H  0.150114168E+02  0.867754271E+00 -0.146138572E+01
     4
 # iter = 39000  time[fs]=39.00000
   C -0.274049670E+01  0.195535150E+00 -0.259018140E-01
   C  0.291741180E+01 -0.817468122E-01  0.484936328E-01
   H -0.153591629E+02 -0.166460267E+01  0.115542445E+01
   H  0.153925274E+02  0.891451985E+00 -0.149942093E+01
     4
 # iter = 39500  time[fs]=39.50000
   C -0.281644524E+01  0.201232457E+00 -0.268628201E-01
   C  0.299599834E+01 -0.844865561E-01  0.506383396E-01
   H -0.157429981E+02 -0.170680394E+01  0.118511861E+01
   H  0.157744154E+02  0.915202827E+00 -0.153754391E+01
     4
 # iter = 40000  time[fs]=40.00000
   C -0.289276477E+01  0.206954268E+00 -0.278287977E-01
   C  0.307495127E+01 -0.872444395E-01  0.527950074E-01
   H -0.161274558E+02 -0.174906944E+01  0.121487549E+01
   H  0.161570562E+02  0.939016713E+00 -0.157573832E+01
     4
 # iter = 40500  time[fs]=40.50000
   C -0.296943683E+01  0.212698678E+00 -0.288002906E-01
   C  0.315425053E+01 -0.900206644E-01  0.549620595E-01
   H -0.165125118E+02 -0.179140121E+01  0.124468723E+01
   H  0.165404098E+02  0.962885855E+00 -0.161400593E+01
     4
 # iter = 41000  time[fs]=41.00000
   C -0.304644477E+01  0.218463448E+00 -0.297782682E-01
   C  0.323387681E+01 -0.928161040E-01  0.571373351E-01
   H -0.168981467E+02 -0.183380435E+01  0.127454332E+01
   H  0.169244357E+02  0.986799794E+00 -0.165235158E+01
     4
 # iter = 41500  time[fs]=41.50000
   C -0.312377221E+01  0.224247369E+00 -0.307627456E-01
   C  0.331381344E+01 -0.956302696E-01  0.593201158E-01
   H -0.172843364E+02 -0.187627754E+01  0.130443996E+01
   H  0.173091022E+02  0.101075481E+01 -0.169077372E+01
     4
 # iter = 42000  time[fs]=42.00000
   C -0.320140325E+01  0.230049952E+00 -0.317530941E-01
   C  0.339404587E+01 -0.984617623E-01  0.615106671E-01
   H -0.176710540E+02 -0.191881519E+01  0.133437801E+01
   H  0.176943840E+02  0.103475180E+01 -0.172926653E+01
     4
 # iter = 42500  time[fs]=42.50000
   C -0.327932317E+01  0.235870668E+00 -0.327487932E-01
   C  0.347456040E+01 -0.101309376E+00  0.637091300E-01
   H -0.180582747E+02 -0.196141255E+01  0.136435775E+01
   H  0.180802568E+02  0.105879109E+01 -0.176782504E+01
     4
 # iter = 43000  time[fs]=43.00000
   C -0.335751848E+01  0.241708715E+00 -0.337496562E-01
   C  0.355534382E+01 -0.104172429E+00  0.659151861E-01
   H -0.184459775E+02 -0.200406723E+01  0.139437739E+01
   H  0.184666959E+02  0.108287092E+01 -0.180644664E+01
     4
 # iter = 43500  time[fs]=43.50000
   C -0.343597672E+01  0.247563228E+00 -0.347556216E-01
   C  0.363638358E+01 -0.107050449E+00  0.681283639E-01
   H -0.188341432E+02 -0.204677777E+01  0.142443443E+01
   H  0.188536769E+02  0.110698883E+01 -0.184512971E+01
     4
 # iter = 44000  time[fs]=44.00000
   C -0.351468614E+01  0.253433459E+00 -0.357665606E-01
   C  0.371766807E+01 -0.109942891E+00  0.703483191E-01
   H -0.192227535E+02 -0.208954235E+01  0.145452702E+01
   H  0.192411779E+02  0.113114298E+01 -0.188387219E+01
     4
 # iter = 44500  time[fs]=44.50000
   C -0.359363567E+01  0.259318786E+00 -0.367822720E-01
   C  0.379918650E+01 -0.112849130E+00  0.725748408E-01
   H -0.196117906E+02 -0.213235868E+01  0.148465392E+01
   H  0.196291782E+02  0.115533217E+01 -0.192267166E+01
     4
 # iter = 45000  time[fs]=45.00000
   C -0.367281489E+01  0.265218630E+00 -0.378025553E-01
   C  0.388092879E+01 -0.115768560E+00  0.748077420E-01
   H -0.200012376E+02 -0.217522459E+01  0.151481405E+01
   H  0.200176589E+02  0.117955533E+01 -0.196152573E+01
     4
 # iter = 45500  time[fs]=45.50000
   C -0.375221405E+01  0.271132421E+00 -0.388272456E-01
   C  0.396288541E+01 -0.118700649E+00  0.770468072E-01
   H -0.203910787E+02 -0.221813815E+01  0.154500619E+01
   H  0.204066017E+02  0.120381125E+01 -0.200043235E+01
     4
 # iter = 46000  time[fs]=46.00000
   C -0.383182400E+01  0.277059605E+00 -0.398562011E-01
   C  0.404504739E+01 -0.121644917E+00  0.792918094E-01
   H -0.207812992E+02 -0.226109768E+01  0.157522911E+01
   H  0.207959891E+02  0.122809871E+01 -0.203938965E+01
     4
 # iter = 46500  time[fs]=46.50000
   C -0.391163612E+01  0.282999663E+00 -0.408892839E-01
   C  0.412740629E+01 -0.124600907E+00  0.815425363E-01
   H -0.211718851E+02 -0.230410155E+01  0.160548165E+01
   H  0.211858049E+02  0.125241656E+01 -0.207839588E+01
     4
 # iter = 47000  time[fs]=47.00000
   C -0.399164230E+01  0.288952110E+00 -0.419263562E-01
   C  0.420995417E+01 -0.127568177E+00  0.837987957E-01
   H -0.215628231E+02 -0.234714818E+01  0.163576276E+01
   H  0.215760334E+02  0.127676376E+01 -0.211744929E+01
     4
 # iter = 47500  time[fs]=47.50000
   C -0.407183485E+01  0.294916488E+00 -0.429672844E-01
   C  0.429268355E+01 -0.130546305E+00  0.860604076E-01
   H -0.219541007E+02 -0.239023606E+01  0.166607144E+01
   H  0.219666601E+02  0.130113931E+01 -0.215654825E+01
     4
 # iter = 48000  time[fs]=48.00000
   C -0.415220654E+01  0.300892365E+00 -0.440119424E-01
   C  0.437558735E+01 -0.133534895E+00  0.883271980E-01
   H -0.223457059E+02 -0.243336376E+01  0.169640676E+01
   H  0.223576711E+02  0.132554228E+01 -0.219569119E+01
     4
 # iter = 48500  time[fs]=48.50000
   C -0.423275054E+01  0.306879326E+00 -0.450602114E-01
   C  0.445865889E+01 -0.136533571E+00  0.905989994E-01
   H -0.227376274E+02 -0.247652994E+01  0.172676781E+01
   H  0.227490532E+02  0.134997177E+01 -0.223487665E+01
     4
 # iter = 49000  time[fs]=49.00000
   C -0.431346037E+01  0.312876981E+00 -0.461119777E-01
   C  0.454189186E+01 -0.139541980E+00  0.928756517E-01
   H -0.231298546E+02 -0.251973332E+01  0.175715374E+01
   H  0.231407937E+02  0.137442692E+01 -0.227410323E+01
     4
 # iter = 49500  time[fs]=49.50000
   C -0.439432992E+01  0.318884958E+00 -0.471671325E-01
   C  0.462528029E+01 -0.142559782E+00  0.951570025E-01
   H -0.235223771E+02 -0.256297267E+01  0.178756372E+01
   H  0.235328809E+02  0.139890690E+01 -0.231336960E+01
     4
 # iter = 50000  time[fs]=50.00000
   C -0.447535339E+01  0.324902905E+00 -0.482255714E-01
   C  0.470881849E+01 -0.145586658E+00  0.974429068E-01
   H -0.239151853E+02 -0.260624685E+01  0.181799698E+01
   H  0.239253032E+02  0.142341094E+01 -0.235267448E+01
     4
 # iter = 50500  time[fs]=50.50000
   C -0.455652526E+01  0.330930485E+00 -0.492871948E-01
   C  0.479250111E+01 -0.148622300E+00  0.997332257E-01
   H -0.243082699E+02 -0.264955473E+01  0.184845278E+01
   H  0.243180500E+02  0.144793830E+01 -0.239201665E+01
     4
 # iter = 51000  time[fs]=51.00000
   C -0.463784033E+01  0.336967379E+00 -0.503519072E-01
   C  0.487632304E+01 -0.151666420E+00  0.102027826E+00
   H -0.247016221E+02 -0.269289528E+01  0.187893042E+01
   H  0.247111109E+02  0.147248827E+01 -0.243139498E+01
     4
 # iter = 51500  time[fs]=51.50000
   C -0.471929363E+01  0.343013284E+00 -0.514196174E-01
   C  0.496027945E+01 -0.154718739E+00  0.104326581E+00
   H -0.250952335E+02 -0.273626747E+01  0.190942922E+01
   H  0.251044761E+02  0.149706016E+01 -0.247080835E+01
     4
 # iter = 52000  time[fs]=52.00000
   C -0.480088044E+01  0.349067909E+00 -0.524902378E-01
   C  0.504436573E+01 -0.157778995E+00  0.106629369E+00
   H -0.254890962E+02 -0.277967036E+01  0.193994854E+01
   H  0.254981362E+02  0.152165333E+01 -0.251025570E+01
     4
 # iter = 52500  time[fs]=52.50000
   C -0.488259629E+01  0.355130979E+00 -0.535636847E-01
   C  0.512857751E+01 -0.160846936E+00  0.108936072E+00
   H -0.258832024E+02 -0.282310302E+01  0.197048777E+01
   H  0.258920823E+02  0.154626717E+01 -0.254973604E+01
     4
 # iter = 53000  time[fs]=53.00000
   C -0.496443690E+01  0.361202228E+00 -0.546398775E-01
   C  0.521291063E+01 -0.163922321E+00  0.111246580E+00
   H -0.262775448E+02 -0.286656457E+01  0.200104631E+01
   H  0.262863058E+02  0.157090107E+01 -0.258924839E+01
     4
 # iter = 53500  time[fs]=53.50000
   C -0.504639821E+01  0.367281407E+00 -0.557187392E-01
   C  0.529736111E+01 -0.167004922E+00  0.113560785E+00
   H -0.266721165E+02 -0.291005418E+01  0.203162362E+01
   H  0.266807985E+02  0.159555446E+01 -0.262879184E+01
     4
 # iter = 54000  time[fs]=54.00000
   C -0.512847634E+01  0.373368273E+00 -0.568001956E-01
   C  0.538192518E+01 -0.170094519E+00  0.115878584E+00
   H -0.270669107E+02 -0.295357104E+01  0.206221914E+01
   H  0.270755525E+02  0.162022681E+01 -0.266836550E+01
     4
 # iter = 54500  time[fs]=54.50000
   C -0.521066759E+01  0.379462598E+00 -0.578841756E-01
   C  0.546659922E+01 -0.173190902E+00  0.118199878E+00
   H -0.274619211E+02 -0.299711439E+01  0.209283236E+01
   H  0.274705605E+02  0.164491758E+01 -0.270796852E+01
     4
 # iter = 55000  time[fs]=55.00000
   C -0.529296843E+01  0.385564160E+00 -0.589706110E-01
   C  0.555137980E+01 -0.176293872E+00  0.120524572E+00
   H -0.278571416E+02 -0.304068347E+01  0.212346279E+01
   H  0.278658151E+02  0.166962629E+01 -0.274760009E+01
     4
 # iter = 55500  time[fs]=55.50000
   C -0.537537549E+01  0.391672749E+00 -0.600594360E-01
   C  0.563626362E+01 -0.179403237E+00  0.122852576E+00
   H -0.282525661E+02 -0.308427759E+01  0.215410996E+01
   H  0.282613095E+02  0.169435244E+01 -0.278725944E+01
     4
 # iter = 56000  time[fs]=56.00000
   C -0.545788554E+01  0.397788163E+00 -0.611505875E-01
   C  0.572124755E+01 -0.182518812E+00  0.125183802E+00
   H -0.286481892E+02 -0.312789607E+01  0.218477342E+01
   H  0.286570372E+02  0.171909557E+01 -0.282694581E+01
     4
 # iter = 56500  time[fs]=56.50000
   C -0.554049551E+01  0.403910209E+00 -0.622440046E-01
   C  0.580632858E+01 -0.185640422E+00  0.127518165E+00
   H -0.290440053E+02 -0.317153825E+01  0.221545271E+01
   H  0.290529917E+02  0.174385524E+01 -0.286665848E+01
     4
 # iter = 57000  time[fs]=57.00000
   C -0.562320244E+01  0.410038701E+00 -0.633396290E-01
   C  0.589150383E+01 -0.188767898E+00  0.129855584E+00
   H -0.294400094E+02 -0.321520351E+01  0.224614744E+01
   H  0.294491670E+02  0.176863102E+01 -0.290639677E+01
     4
 # iter = 57500  time[fs]=57.50000
   C -0.570600351E+01  0.416173461E+00 -0.644374044E-01
   C  0.597677055E+01 -0.191901077E+00  0.132195982E+00
   H -0.298361963E+02 -0.325889124E+01  0.227685718E+01
   H  0.298455571E+02  0.179342250E+01 -0.294616002E+01
     4
 # iter = 58000  time[fs]=58.00000
   C -0.578889600E+01  0.422314319E+00 -0.655372764E-01
   C  0.606212610E+01 -0.195039804E+00  0.134539283E+00
   H -0.302325614E+02 -0.330260087E+01  0.230758157E+01
   H  0.302421566E+02  0.181822929E+01 -0.298594757E+01
     4
 # iter = 58500  time[fs]=58.50000
   C -0.587187734E+01  0.428461110E+00 -0.666391929E-01
   C  0.614756796E+01 -0.198183930E+00  0.136885414E+00
   H -0.306291000E+02 -0.334633184E+01  0.233832021E+01
   H  0.306389600E+02  0.184305100E+01 -0.302575883E+01
     4
 # iter = 59000  time[fs]=59.00000
   C -0.595494503E+01  0.434613677E+00 -0.677431033E-01
   C  0.623309370E+01 -0.201333311E+00  0.139234306E+00
   H -0.310258077E+02 -0.339008361E+01  0.236907276E+01
   H  0.310359621E+02  0.186788726E+01 -0.306559319E+01
     4
 # iter = 59500  time[fs]=59.50000
   C -0.603809668E+01  0.440771867E+00 -0.688489593E-01
   C  0.631870100E+01 -0.204487809E+00  0.141585893E+00
   H -0.314226801E+02 -0.343385567E+01  0.239983887E+01
   H  0.314331578E+02  0.189273772E+01 -0.310545009E+01
     4
 # iter = 60000  time[fs]=60.00000
   C -0.612132999E+01  0.446935536E+00 -0.699567138E-01
   C  0.640438762E+01 -0.207647291E+00  0.143940107E+00
   H -0.318197132E+02 -0.347764752E+01  0.243061821E+01
   H  0.318305424E+02  0.191760205E+01 -0.314532898E+01
     4
 # iter = 60500  time[fs]=60.50000
   C -0.620464278E+01  0.453104543E+00 -0.710663216E-01
   C  0.649015142E+01 -0.210811630E+00  0.146296888E+00
   H -0.322169031E+02 -0.352145867E+01  0.246141045E+01
   H  0.322281112E+02  0.194247991E+01 -0.318522933E+01
     4
 # iter = 61000  time[fs]=61.00000
   C -0.628803293E+01  0.459278753E+00 -0.721777391E-01
   C  0.657599034E+01 -0.213980703E+00  0.148656174E+00
   H -0.326142459E+02 -0.356528867E+01  0.249221529E+01
   H  0.326258597E+02  0.196737098E+01 -0.322515062E+01
     4
 # iter = 61500  time[fs]=61.50000
   C -0.637149839E+01  0.465458036E+00 -0.732909240E-01
   C  0.666190240E+01 -0.217154390E+00  0.151017908E+00
   H -0.330117379E+02 -0.360913707E+01  0.252303242E+01
   H  0.330237837E+02  0.199227495E+01 -0.326509237E+01
     4
 # iter = 62000  time[fs]=62.00000
   C -0.645503721E+01  0.471642267E+00 -0.744058356E-01
   C  0.674788568E+01 -0.220332578E+00  0.153382032E+00
   H -0.334093756E+02 -0.365300344E+01  0.255386156E+01
   H  0.334218789E+02  0.201719154E+01 -0.330505409E+01
     4
 # iter = 62500  time[fs]=62.50000
   C -0.653864751E+01  0.477831324E+00 -0.755224345E-01
   C  0.683393837E+01 -0.223515158E+00  0.155748493E+00
   H -0.338071555E+02 -0.369688737E+01  0.258470244E+01
   H  0.338201413E+02  0.204212045E+01 -0.334503534E+01
     4
 # iter = 63000  time[fs]=63.00000
   C -0.662232748E+01  0.484025091E+00 -0.766406825E-01
   C  0.692005869E+01 -0.226702022E+00  0.158117237E+00
   H -0.342050744E+02 -0.374078844E+01  0.261555478E+01
   H  0.342185670E+02  0.206706141E+01 -0.338503566E+01
     4
 # iter = 63500  time[fs]=63.50000
   C -0.670607537E+01  0.490223456E+00 -0.777605429E-01
   C  0.700624494E+01 -0.229893069E+00  0.160488213E+00
   H -0.346031291E+02 -0.378470628E+01  0.264641832E+01
   H  0.346171524E+02  0.209201415E+01 -0.342505462E+01
     4
 # iter = 64000  time[fs]=64.00000
   C -0.678988949E+01  0.496426310E+00 -0.788819800E-01
   C  0.709249548E+01 -0.233088199E+00  0.162861373E+00
   H -0.350013164E+02 -0.382864051E+01  0.267729281E+01
   H  0.350158937E+02  0.211697842E+01 -0.346509182E+01
     4
 # iter = 64500  time[fs]=64.50000
   C -0.687376823E+01  0.502633549E+00 -0.800049592E-01
   C  0.717880874E+01 -0.236287317E+00  0.165236668E+00
   H -0.353996333E+02 -0.387259077E+01  0.270817802E+01
   H  0.354147874E+02  0.214195395E+01 -0.350514684E+01
     4
 # iter = 65000  time[fs]=65.00000
   C -0.695771001E+01  0.508845071E+00 -0.811294471E-01
   C  0.726518319E+01 -0.239490332E+00  0.167614053E+00
   H -0.357980771E+02 -0.391655670E+01  0.273907369E+01
   H  0.358138302E+02  0.216694051E+01 -0.354521930E+01
     4
 # iter = 65500  time[fs]=65.50000
   C -0.704171333E+01  0.515060779E+00 -0.822554115E-01
   C  0.735161737E+01 -0.242697153E+00  0.169993481E+00
   H -0.361966449E+02 -0.396053797E+01  0.276997962E+01
   H  0.362130189E+02  0.219193787E+01 -0.358530883E+01
     4
 # iter = 66000  time[fs]=66.00000
   C -0.712577673E+01  0.521280577E+00 -0.833828209E-01
   C  0.743810984E+01 -0.245907696E+00  0.172374911E+00
   H -0.365953340E+02 -0.400453424E+01  0.280089558E+01
   H  0.366123501E+02  0.221694579E+01 -0.362541506E+01
     4
 # iter = 66500  time[fs]=66.50000
   C -0.720989880E+01  0.527504375E+00 -0.845116451E-01
   C  0.752465925E+01 -0.249121876E+00  0.174758301E+00
   H -0.369941418E+02 -0.404854520E+01  0.283182134E+01
   H  0.370118209E+02  0.224196406E+01 -0.366553764E+01
     4
 # iter = 67000  time[fs]=67.00000
   C -0.729407819E+01  0.533732085E+00 -0.856418544E-01
   C  0.761126427E+01 -0.252339614E+00  0.177143608E+00
   H -0.373930657E+02 -0.409257055E+01  0.286275672E+01
   H  0.374114283E+02  0.226699246E+01 -0.370567623E+01
     4
 # iter = 67500  time[fs]=67.50000
   C -0.737831357E+01  0.539963620E+00 -0.867734204E-01
   C  0.769792363E+01 -0.255560830E+00  0.179530795E+00
   H -0.377921033E+02 -0.413660997E+01  0.289370151E+01
   H  0.378111694E+02  0.229203079E+01 -0.374583049E+01
     4
 # iter = 68000  time[fs]=68.00000
   C -0.746260369E+01  0.546198897E+00 -0.879063155E-01
   C  0.778463608E+01 -0.258785451E+00  0.181919822E+00
   H -0.381912523E+02 -0.418066319E+01  0.292465551E+01
   H  0.382110414E+02  0.231707884E+01 -0.378600011E+01
     4
 # iter = 68500  time[fs]=68.50000
   C -0.754694730E+01  0.552437838E+00 -0.890405126E-01
   C  0.787140044E+01 -0.262013402E+00  0.184310652E+00
   H -0.385905103E+02 -0.422472992E+01  0.295561854E+01
   H  0.386110416E+02  0.234213643E+01 -0.382618477E+01
     4
 # iter = 69000  time[fs]=69.00000
   C -0.763134323E+01  0.558680363E+00 -0.901759859E-01
   C  0.795821554E+01 -0.265244614E+00  0.186703250E+00
   H -0.389898752E+02 -0.426880989E+01  0.298659042E+01
   H  0.390111674E+02  0.236720335E+01 -0.386638417E+01
     4
 # iter = 69500  time[fs]=69.50000
   C -0.771579033E+01  0.564926398E+00 -0.913127098E-01
   C  0.804508028E+01 -0.268479017E+00  0.189097581E+00
   H -0.393893446E+02 -0.431290283E+01  0.301757097E+01
   H  0.394114162E+02  0.239227943E+01 -0.390659802E+01
     4
 # iter = 70000  time[fs]=70.00000
   C -0.780028748E+01  0.571175870E+00 -0.924506599E-01
   C  0.813199357E+01 -0.271716546E+00  0.191493609E+00
   H -0.397889166E+02 -0.435700849E+01  0.304856001E+01
   H  0.398117856E+02  0.241736450E+01 -0.394682604E+01
     4
 # iter = 70500  time[fs]=70.50000
   C -0.788483360E+01  0.577428707E+00 -0.935898123E-01
   C  0.821895435E+01 -0.274957135E+00  0.193891304E+00
   H -0.401885891E+02 -0.440112662E+01  0.307955738E+01
   H  0.402122732E+02  0.244245837E+01 -0.398706794E+01
     4
 # iter = 71000  time[fs]=71.00000
   C -0.796942765E+01  0.583684843E+00 -0.947301438E-01
   C  0.830596162E+01 -0.278200723E+00  0.196290631E+00
   H -0.405883601E+02 -0.444525698E+01  0.311056292E+01
   H  0.406128766E+02  0.246756088E+01 -0.402732346E+01
     4
 # iter = 71500  time[fs]=71.50000
   C -0.805406862E+01  0.589944208E+00 -0.958716319E-01
   C  0.839301440E+01 -0.281447248E+00  0.198691561E+00
   H -0.409882277E+02 -0.448939933E+01  0.314157648E+01
   H  0.410135937E+02  0.249267187E+01 -0.406759235E+01
     4
 # iter = 72000  time[fs]=72.00000
   C -0.813875552E+01  0.596206741E+00 -0.970142546E-01
   C  0.848011172E+01 -0.284696653E+00  0.201094062E+00
   H -0.413881901E+02 -0.453355345E+01  0.317259789E+01
   H  0.414144221E+02  0.251779117E+01 -0.410787434E+01
     4
 # iter = 72500  time[fs]=72.50000
   C -0.822348742E+01  0.602472377E+00 -0.981579907E-01
   C  0.856725267E+01 -0.287948879E+00  0.203498107E+00
   H -0.417882454E+02 -0.457771911E+01  0.320362701E+01
   H  0.418153598E+02  0.254291863E+01 -0.414816919E+01
     4
 # iter = 73000  time[fs]=73.00000
   C -0.830826339E+01  0.608741055E+00 -0.993028194E-01
   C  0.865443635E+01 -0.291203872E+00  0.205903664E+00
   H -0.421883918E+02 -0.462189609E+01  0.323466371E+01
   H  0.422164048E+02  0.256805411E+01 -0.418847666E+01
     4
 # iter = 73500  time[fs]=73.50000
   C -0.839308252E+01  0.615012718E+00 -0.100448721E+00
   C  0.874166189E+01 -0.294461578E+00  0.208310708E+00
   H -0.425886277E+02 -0.466608420E+01  0.326570782E+01
   H  0.426175549E+02  0.259319745E+01 -0.422879652E+01
     4
 # iter = 74000  time[fs]=74.00000
   C -0.847794397E+01  0.621287306E+00 -0.101595675E+00
   C  0.882892845E+01 -0.297721944E+00  0.210719211E+00
   H -0.429889514E+02 -0.471028321E+01  0.329675923E+01
   H  0.430188083E+02  0.261834852E+01 -0.426912854E+01
     4
 # iter = 74500  time[fs]=74.50000
   C -0.856284687E+01  0.627564765E+00 -0.102743663E+00
   C  0.891623521E+01 -0.300984919E+00  0.213129146E+00
   H -0.433893612E+02 -0.475449294E+01  0.332781780E+01
   H  0.434201629E+02  0.264350717E+01 -0.430947250E+01
     4
 # iter = 75000  time[fs]=75.00000
   C -0.864779042E+01  0.633845040E+00 -0.103892666E+00
   C  0.900358137E+01 -0.304250455E+00  0.215540488E+00
   H -0.437898556E+02 -0.479871320E+01  0.335888339E+01
   H  0.438216171E+02  0.266867328E+01 -0.434982819E+01
     4
 # iter = 75500  time[fs]=75.50000
   C -0.873277383E+01  0.640128079E+00 -0.105042666E+00
   C  0.909096616E+01 -0.307518503E+00  0.217953211E+00
   H -0.441904331E+02 -0.484294379E+01  0.338995589E+01
   H  0.442231690E+02  0.269384670E+01 -0.439019540E+01
     4
 # iter = 76000  time[fs]=76.00000
   C -0.881779631E+01  0.646413829E+00 -0.106193646E+00
   C  0.917838884E+01 -0.310789017E+00  0.220367292E+00
   H -0.445910922E+02 -0.488718453E+01  0.342103517E+01
   H  0.446248168E+02  0.271902731E+01 -0.443057392E+01
     4
 # iter = 76500  time[fs]=76.50000
   C -0.890285713E+01  0.652702243E+00 -0.107345588E+00
   C  0.926584868E+01 -0.314061951E+00  0.222782707E+00
   H -0.449918314E+02 -0.493143524E+01  0.345212111E+01
   H  0.450265588E+02  0.274421500E+01 -0.447096356E+01
     4
 # iter = 77000  time[fs]=77.00000
   C -0.898795554E+01  0.658993269E+00 -0.108498476E+00
   C  0.935334496E+01 -0.317337260E+00  0.225199433E+00
   H -0.453926493E+02 -0.497569575E+01  0.348321360E+01
   H  0.454283933E+02  0.276940963E+01 -0.451136413E+01
     4
 # iter = 77500  time[fs]=77.50000
   C -0.907309085E+01  0.665286863E+00 -0.109652293E+00
   C  0.944087700E+01 -0.320614903E+00  0.227617446E+00
   H -0.457935445E+02 -0.501996590E+01  0.351431252E+01
   H  0.458303189E+02  0.279461109E+01 -0.455177543E+01
     4
 # iter = 78000  time[fs]=78.00000
   C -0.915826237E+01  0.671582977E+00 -0.110807024E+00
   C  0.952844414E+01 -0.323894837E+00  0.230036725E+00
   H -0.461945157E+02 -0.506424551E+01  0.354541776E+01
   H  0.462323337E+02  0.281981926E+01 -0.459219729E+01
     4
 # iter = 78500  time[fs]=78.50000
   C -0.924346942E+01  0.677881567E+00 -0.111962652E+00
   C  0.961604571E+01 -0.327177021E+00  0.232457250E+00
   H -0.465955616E+02 -0.510853443E+01  0.357652922E+01
   H  0.466344364E+02  0.284503403E+01 -0.463262952E+01
     4
 # iter = 79000  time[fs]=79.00000
   C -0.932871135E+01  0.684182589E+00 -0.113119164E+00
   C  0.970368108E+01 -0.330461416E+00  0.234878998E+00
   H -0.469966809E+02 -0.515283249E+01  0.360764679E+01
   H  0.470366255E+02  0.287025529E+01 -0.467307196E+01
     4
 # iter = 79500  time[fs]=79.50000
   C -0.941398753E+01  0.690486000E+00 -0.114276544E+00
   C  0.979134965E+01 -0.333747983E+00  0.237301949E+00
   H -0.473978724E+02 -0.519713955E+01  0.363877037E+01
   H  0.474388994E+02  0.289548294E+01 -0.471352442E+01
     4
 # iter = 80000  time[fs]=80.00000
   C -0.949929734E+01  0.696791760E+00 -0.115434778E+00
   C  0.987905081E+01 -0.337036685E+00  0.239726084E+00
   H -0.477991348E+02 -0.524145546E+01  0.366989986E+01
   H  0.478412567E+02  0.292071686E+01 -0.475398675E+01
