     4
 # iter = 25000  time[fs]=25.00000
   C -0.951749414E+00  0.552057656E-01  0.212151608E-01
   C  0.992506187E+00  0.371418157E-02 -0.728739003E-02
   H -0.526638382E+01 -0.401561702E+00  0.263085161E+00
   H  0.522981579E+01  0.481193252E+00  0.119358631E+00
     4
 # iter = 25500  time[fs]=25.50000
   C -0.995358683E+00  0.564232090E-01  0.182588499E-01
   C  0.103166548E+01  0.395033618E-03 -0.907107855E-02
   H -0.560352322E+01 -0.438610293E+00  0.266501595E+00
   H  0.553867999E+01  0.502300202E+00  0.117821360E+00
     4
 # iter = 26000  time[fs]=26.00000
   C -0.104293489E+01  0.567288658E-01  0.143063739E-01
   C  0.107290030E+01 -0.390793150E-02 -0.117858866E-01
   H -0.595149200E+01 -0.481576019E+00  0.264776979E+00
   H  0.584751226E+01  0.518513274E+00  0.110994297E+00
     4
 # iter = 26500  time[fs]=26.50000
   C -0.109120856E+01  0.591521884E-01  0.123897192E-01
   C  0.111858206E+01 -0.657788259E-02 -0.128132437E-01
   H -0.629357511E+01 -0.514317329E+00  0.273960617E+00
   H  0.617184065E+01  0.545869276E+00  0.114955216E+00
     4
 # iter = 27000  time[fs]=27.00000
   C -0.113980858E+01  0.638372452E-01  0.126555758E-01
   C  0.116861772E+01 -0.747961945E-02 -0.120173895E-01
   H -0.662846030E+01 -0.535990663E+00  0.294821309E+00
   H  0.651195921E+01  0.585116694E+00  0.130489184E+00
     4
 # iter = 27500  time[fs]=27.50000
   C -0.119078730E+01  0.685196181E-01  0.128422377E-01
   C  0.122086063E+01 -0.854951664E-02 -0.113350543E-01
   H -0.696768926E+01 -0.558523240E+00  0.315370784E+00
   H  0.685544663E+01  0.624241084E+00  0.145614530E+00
     4
 # iter = 28000  time[fs]=28.00000
   C -0.124555267E+01  0.715956592E-01  0.113490300E-01
   C  0.127374779E+01 -0.111562181E-01 -0.121358218E-01
   H -0.731936134E+01 -0.590347704E+00  0.327123860E+00
   H  0.719344634E+01  0.654735474E+00  0.151852424E+00
     4
 # iter = 28500  time[fs]=28.50000
   C -0.130328508E+01  0.737057275E-01  0.881956390E-02
   C  0.132766003E+01 -0.147392606E-01 -0.138605394E-01
   H -0.767972541E+01 -0.628010853E+00  0.333486883E+00
   H  0.752905894E+01  0.679993619E+00  0.152620176E+00
     4
 # iter = 29000  time[fs]=29.00000
   C -0.136224195E+01  0.764288659E-01  0.683625329E-02
   C  0.138379980E+01 -0.179315420E-01 -0.151436999E-01
   H -0.804009520E+01 -0.663090471E+00  0.342840630E+00
   H  0.787040664E+01  0.708388405E+00  0.156310799E+00
     4
 # iter = 29500  time[fs]=29.50000
   C -0.142173212E+01  0.803073872E-01  0.594473046E-02
   C  0.144249284E+01 -0.202579328E-01 -0.155120000E-01
   H -0.839731940E+01 -0.692663901E+00  0.358071972E+00
   H  0.822014445E+01  0.742797169E+00  0.165819498E+00
     4
 # iter = 30000  time[fs]=30.00000
   C -0.148239188E+01  0.845697687E-01  0.537667652E-02
   C  0.150294904E+01 -0.223735588E-01 -0.156225468E-01
   H -0.875524581E+01 -0.720776137E+00  0.375105132E+00
   H  0.857398432E+01  0.779131916E+00  0.177074389E+00
     4
 # iter = 30500  time[fs]=30.50000
   C -0.154495836E+01  0.883562312E-01  0.427541405E-02
   C  0.156431455E+01 -0.250100117E-01 -0.162089788E-01
   H -0.911821777E+01 -0.751943819E+00  0.389396464E+00
   H  0.892719317E+01  0.812837505E+00  0.185534678E+00
     4
 # iter = 31000  time[fs]=31.00000
   C -0.160933628E+01  0.916510297E-01  0.262820944E-02
   C  0.162647199E+01 -0.281737276E-01 -0.172797794E-01
   H -0.948612674E+01 -0.786213666E+00  0.400875062E+00
   H  0.927953552E+01  0.843834816E+00  0.191133864E+00
     4
 # iter = 31500  time[fs]=31.50000
   C -0.167487048E+01  0.950087695E-01  0.992567750E-03
   C  0.168980411E+01 -0.313812654E-01 -0.183535226E-01
   H -0.985586014E+01 -0.820612720E+00  0.412492134E+00
   H  0.963381885E+01  0.875069273E+00  0.196828505E+00
     4
 # iter = 32000  time[fs]=32.00000
   C -0.174112709E+01  0.987722032E-01 -0.286002192E-03
   C  0.175452050E+01 -0.343318074E-01 -0.191313595E-01
   H -0.102254460E+02 -0.853293859E+00  0.426075362E+00
   H  0.999174174E+01  0.908362940E+00  0.204450651E+00
     4
 # iter = 32500  time[fs]=32.50000
   C -0.180817312E+01  0.102791700E+00 -0.135453217E-02
   C  0.182041561E+01 -0.371483294E-01 -0.197381748E-01
   H -0.105955384E+02 -0.885022357E+00  0.440842149E+00
   H  0.103524036E+02  0.942926886E+00  0.213220416E+00
     4
 # iter = 33000  time[fs]=33.00000
   C -0.187623872E+01  0.106762127E+00 -0.251570688E-02
   C  0.188715743E+01 -0.400879326E-01 -0.204329060E-01
   H -0.109676293E+02 -0.917390023E+00  0.455185146E+00
   H  0.107140898E+02  0.977147533E+00  0.221532420E+00
     4
 # iter = 33500  time[fs]=33.50000
   C -0.194534683E+01  0.110592409E+00 -0.385829506E-02
   C  0.195460445E+01 -0.432240794E-01 -0.212907669E-01
   H -0.113420876E+02 -0.950856197E+00  0.468630951E+00
   H  0.110762307E+02  0.101054629E+01  0.228915474E+00
     4
 # iter = 34000  time[fs]=34.00000
   C -0.201530886E+01  0.114409193E+00 -0.525347788E-02
   C  0.202280808E+01 -0.464434072E-01 -0.222000594E-01
   H -0.117181386E+02 -0.984728128E+00  0.481859521E+00
   H  0.114394198E+02  0.104379892E+01  0.236052051E+00
     4
 # iter = 34500  time[fs]=34.50000
   C -0.208594441E+01  0.118336431E+00 -0.657526379E-02
   C  0.209182262E+01 -0.496352029E-01 -0.230516470E-01
   H -0.120950309E+02 -0.101832910E+01  0.495535937E+00
   H  0.118042436E+02  0.107756672E+01  0.243609524E+00
     4
 # iter = 35000  time[fs]=35.00000
   C -0.215720609E+01  0.122370043E+00 -0.782582368E-02
   C  0.216159692E+01 -0.527991366E-01 -0.238466918E-01
   H -0.124727000E+02 -0.105166260E+01  0.509646112E+00
   H  0.121706160E+02  0.111183181E+01  0.251575588E+00
     4
 # iter = 35500  time[fs]=35.50000
   C -0.222912083E+01  0.126436044E+00 -0.907735302E-02
   C  0.223202395E+01 -0.559952613E-01 -0.246466550E-01
   H -0.128514594E+02 -0.108510407E+01  0.523804952E+00
   H  0.125380859E+02  0.114620542E+01  0.259566589E+00
     4
 # iter = 36000  time[fs]=36.00000
   C -0.230168657E+01  0.130493457E+00 -0.103691529E-01
   C  0.230302875E+01 -0.592555127E-01 -0.254848001E-01
   H -0.132314542E+02 -0.111885523E+01  0.537801847E+00
   H  0.129063821E+02  0.118047363E+01  0.267373285E+00
     4
 # iter = 36500  time[fs]=36.50000
   C -0.237484831E+01  0.134557835E+00 -0.116841000E-01
   C  0.237458833E+01 -0.625634641E-01 -0.263459504E-01
   H -0.136125356E+02 -0.115281938E+01  0.551725375E+00
   H  0.132755381E+02  0.121472210E+01  0.275085637E+00
     4
 # iter = 37000  time[fs]=37.00000
   C -0.244854122E+01  0.138657822E+00 -0.129920803E-01
   C  0.244669398E+01 -0.658916536E-01 -0.272038203E-01
   H -0.139944904E+02 -0.118683147E+01  0.565733079E+00
   H  0.136456603E+02  0.124910571E+01  0.282862485E+00
     4
 # iter = 37500  time[fs]=37.50000
   C -0.252272596E+01  0.142799459E+00 -0.142856746E-01
   C  0.251932026E+01 -0.692322503E-01 -0.280516857E-01
   H -0.143772304E+02 -0.122084723E+01  0.579862316E+00
   H  0.140167392E+02  0.128365928E+01  0.290742326E+00
     4
 # iter = 38000  time[fs]=38.00000
   C -0.259738451E+01  0.146970107E+00 -0.155762297E-01
   C  0.259242814E+01 -0.725936668E-01 -0.288990003E-01
   H -0.147607704E+02 -0.125492227E+01  0.594051079E+00
   H  0.143886693E+02  0.131831843E+01  0.298664155E+00
     4
 # iter = 38500  time[fs]=38.50000
   C -0.267249959E+01  0.151158801E+00 -0.168734993E-01
   C  0.266598223E+01 -0.759830452E-01 -0.297538861E-01
   H -0.151451201E+02 -0.128910413E+01  0.608245906E+00
   H  0.147613570E+02  0.135302748E+01  0.306575431E+00
     4
 # iter = 39000  time[fs]=39.00000
   C -0.274804584E+01  0.155364790E+00 -0.181770980E-01
   C  0.273995794E+01 -0.793989016E-01 -0.306157805E-01
   H -0.155302387E+02 -0.132338694E+01  0.622447169E+00
   H  0.151347654E+02  0.138778475E+01  0.314477401E+00
     4
 # iter = 39500  time[fs]=39.50000
   C -0.282399533E+01  0.159591867E+00 -0.194821673E-01
   C  0.281433638E+01 -0.828359887E-01 -0.314803037E-01
   H -0.159160645E+02 -0.135774144E+01  0.636679038E+00
   H  0.155088840E+02  0.142261251E+01  0.322395055E+00
     4
 # iter = 40000  time[fs]=40.00000
   C -0.290032434E+01  0.163841356E+00 -0.207863791E-01
   C  0.288909820E+01 -0.862913102E-01 -0.323452759E-01
   H -0.163025516E+02 -0.139215202E+01  0.650952350E+00
   H  0.158836915E+02  0.145751985E+01  0.330339981E+00
     4
 # iter = 40500  time[fs]=40.50000
   C -0.297701413E+01  0.168111280E+00 -0.220907693E-01
   C  0.296422270E+01 -0.897648299E-01 -0.332114304E-01
   H -0.166896744E+02 -0.142662117E+01  0.665260191E+00
   H  0.162591509E+02  0.149249816E+01  0.338305956E+00
     4
 # iter = 41000  time[fs]=41.00000
   C -0.305404785E+01  0.172399191E+00 -0.233969001E-01
   C  0.303969015E+01 -0.932570274E-01 -0.340799715E-01
   H -0.170774121E+02 -0.146115437E+01  0.679592931E+00
   H  0.166352245E+02  0.152753626E+01  0.346283991E+00
     4
 # iter = 41500  time[fs]=41.50000
   C -0.313140872E+01  0.176703940E+00 -0.247050847E-01
   C  0.311548315E+01 -0.967673659E-01 -0.349510459E-01
   H -0.174657392E+02 -0.149575070E+01  0.693947628E+00
   H  0.170118833E+02  0.156262973E+01  0.354271741E+00
     4
 # iter = 42000  time[fs]=42.00000
   C -0.320908030E+01  0.181025276E+00 -0.260147883E-01
   C  0.319158625E+01 -0.100294632E+00 -0.358240855E-01
   H -0.178546276E+02 -0.153040491E+01  0.708325900E+00
   H  0.173891043E+02  0.159777883E+01  0.362271386E+00
     4
 # iter = 42500  time[fs]=42.50000
   C -0.328704733E+01  0.185362871E+00 -0.273255987E-01
   C  0.326798493E+01 -0.103837767E+00 -0.366986398E-01
   H -0.182440512E+02 -0.156511255E+01  0.722728779E+00
   H  0.177668656E+02  0.163298329E+01  0.370284478E+00
     4
 # iter = 43000  time[fs]=43.00000
   C -0.336529596E+01  0.189716022E+00 -0.286375186E-01
   C  0.334466531E+01 -0.107396113E+00 -0.375746261E-01
   H -0.186339878E+02 -0.159987156E+01  0.737155151E+00
   H  0.181451446E+02  0.166824078E+01  0.378310393E+00
     4
 # iter = 43500  time[fs]=43.50000
   C -0.344381340E+01  0.194083920E+00 -0.299506973E-01
   C  0.342161429E+01 -0.110969179E+00 -0.384520970E-01
   H -0.190244173E+02 -0.163468075E+01  0.751603182E+00
   H  0.185239191E+02  0.170354832E+01  0.386347753E+00
     4
 # iter = 44000  time[fs]=44.00000
   C -0.352258759E+01  0.198465891E+00 -0.312651841E-01
   C  0.349881969E+01 -0.114556426E+00 -0.393310278E-01
   H -0.194153202E+02 -0.166953856E+01  0.766071619E+00
   H  0.189031688E+02  0.173890357E+01  0.394395732E+00
     4
 # iter = 44500  time[fs]=44.50000
   C -0.360160713E+01  0.202861401E+00 -0.325809228E-01
   C  0.357627018E+01 -0.118157259E+00 -0.402113105E-01
   H -0.198066777E+02 -0.170444295E+01  0.780559815E+00
   H  0.192828751E+02  0.177430486E+01  0.402454087E+00
     4
 # iter = 45000  time[fs]=45.00000
   C -0.368086131E+01  0.207269958E+00 -0.338978467E-01
   C  0.365395513E+01 -0.121771107E+00 -0.410928346E-01
   H -0.201984720E+02 -0.173939196E+01  0.795067224E+00
   H  0.196630206E+02  0.180975069E+01  0.410522649E+00
     4
 # iter = 45500  time[fs]=45.50000
   C -0.376034010E+01  0.211691065E+00 -0.352159243E-01
   C  0.373186456E+01 -0.125397458E+00 -0.419755257E-01
   H -0.205906864E+02 -0.177438390E+01  0.809593157E+00
   H  0.200435886E+02  0.184523944E+01  0.418601086E+00
     4
 # iter = 46000  time[fs]=46.00000
   C -0.384003411E+01  0.216124232E+00 -0.365351439E-01
   C  0.380998903E+01 -0.129035846E+00 -0.428593316E-01
   H -0.209833054E+02 -0.180941727E+01  0.824136860E+00
   H  0.204245632E+02  0.188076949E+01  0.426688978E+00
     4
 # iter = 46500  time[fs]=46.50000
   C -0.391993448E+01  0.220568998E+00 -0.378554897E-01
   C  0.388831970E+01 -0.132685826E+00 -0.437442012E-01
   H -0.213763142E+02 -0.184449065E+01  0.838697638E+00
   H  0.208059294E+02  0.191633933E+01  0.434785946E+00
     4
 # iter = 47000  time[fs]=47.00000
   C -0.400003287E+01  0.225024937E+00 -0.391769373E-01
   C  0.396684822E+01 -0.136346971E+00 -0.446300800E-01
   H -0.217696987E+02 -0.187960262E+01  0.853274876E+00
   H  0.211876733E+02  0.195194756E+01  0.442891677E+00
     4
 # iter = 47500  time[fs]=47.50000
   C -0.408032139E+01  0.229491646E+00 -0.404994598E-01
   C  0.404556674E+01 -0.140018872E+00 -0.455169152E-01
   H -0.221634456E+02 -0.191475185E+01  0.867868009E+00
   H  0.215697813E+02  0.198759288E+01  0.451005885E+00
     4
 # iter = 48000  time[fs]=48.00000
   C -0.416079262E+01  0.233968742E+00 -0.418230329E-01
   C  0.412446782E+01 -0.143701144E+00 -0.464046590E-01
   H -0.225575422E+02 -0.194993706E+01  0.882476488E+00
   H  0.219522407E+02  0.202327403E+01  0.459128290E+00
     4
 # iter = 48500  time[fs]=48.50000
   C -0.424143955E+01  0.238455859E+00 -0.431476339E-01
   C  0.420354446E+01 -0.147393423E+00 -0.472932685E-01
   H -0.229519767E+02 -0.198515707E+01  0.897099785E+00
   H  0.223350396E+02  0.205898981E+01  0.467258618E+00
     4
 # iter = 49000  time[fs]=49.00000
   C -0.432225552E+01  0.242952651E+00 -0.444732409E-01
   C  0.428279002E+01 -0.151095364E+00 -0.481827036E-01
   H -0.233467376E+02 -0.202041072E+01  0.911737398E+00
   H  0.227181664E+02  0.209473908E+01  0.475396605E+00
     4
 # iter = 49500  time[fs]=49.50000
   C -0.440323427E+01  0.247458787E+00 -0.457998318E-01
   C  0.436219824E+01 -0.154806636E+00 -0.490729265E-01
   H -0.237418140E+02 -0.205569695E+01  0.926388851E+00
   H  0.231016103E+02  0.213052076E+01  0.483542005E+00
     4
 # iter = 50000  time[fs]=50.00000
   C -0.448436984E+01  0.251973954E+00 -0.471273845E-01
   C  0.444176315E+01 -0.158526927E+00 -0.499639017E-01
   H -0.241371957E+02 -0.209101470E+01  0.941053695E+00
   H  0.234853608E+02  0.216633382E+01  0.491694583E+00
     4
 # iter = 50500  time[fs]=50.50000
   C -0.456565658E+01  0.256497853E+00 -0.484558778E-01
   C  0.452147913E+01 -0.162255937E+00 -0.508555957E-01
   H -0.245328730E+02 -0.212636300E+01  0.955731498E+00
   H  0.238694082E+02  0.220217727E+01  0.499854116E+00
     4
 # iter = 51000  time[fs]=51.00000
   C -0.464708915E+01  0.261030201E+00 -0.497852908E-01
   C  0.460134083E+01 -0.165993384E+00 -0.517479777E-01
   H -0.249288363E+02 -0.216174090E+01  0.970421852E+00
   H  0.242537430E+02  0.223805018E+01  0.508020389E+00
     4
 # iter = 51500  time[fs]=51.50000
   C -0.472866246E+01  0.265570727E+00 -0.511156031E-01
   C  0.468134317E+01 -0.169738995E+00 -0.526410182E-01
   H -0.253250768E+02 -0.219714751E+01  0.985124365E+00
   H  0.246383562E+02  0.227395164E+01  0.516193198E+00
     4
 # iter = 52000  time[fs]=52.00000
   C -0.481037168E+01  0.270119171E+00 -0.524467948E-01
   C  0.476148132E+01 -0.173492513E+00 -0.535346900E-01
   H -0.257215861E+02 -0.223258197E+01  0.999838665E+00
   H  0.250232393E+02  0.230988081E+01  0.524372348E+00
     4
 # iter = 52500  time[fs]=52.50000
   C -0.489221222E+01  0.274675286E+00 -0.537788466E-01
   C  0.484175068E+01 -0.177253691E+00 -0.544289671E-01
   H -0.261183558E+02 -0.226804345E+01  0.101456440E+01
   H  0.254083841E+02  0.234583687E+01  0.532557653E+00
     4
 # iter = 53000  time[fs]=53.00000
   C -0.497417969E+01  0.279238838E+00 -0.551117394E-01
   C  0.492214690E+01 -0.181022294E+00 -0.553238252E-01
   H -0.265153784E+02 -0.230353118E+01  0.102930122E+01
   H  0.257937827E+02  0.238181902E+01  0.540748932E+00
     4
 # iter = 53500  time[fs]=53.50000
   C -0.505626994E+01  0.283809600E+00 -0.564454550E-01
   C  0.500266581E+01 -0.184798095E+00 -0.562192414E-01
   H -0.269126463E+02 -0.233904439E+01  0.104404880E+01
   H  0.261794278E+02  0.241782652E+01  0.548946016E+00
     4
 # iter = 54000  time[fs]=54.00000
   C -0.513847899E+01  0.288387358E+00 -0.577799751E-01
   C  0.508330344E+01 -0.188580880E+00 -0.571151940E-01
   H -0.273101525E+02 -0.237458237E+01  0.105880684E+01
   H  0.265653120E+02  0.245385866E+01  0.557148740E+00
     4
 # iter = 54500  time[fs]=54.50000
   C -0.522080306E+01  0.292971904E+00 -0.591152825E-01
   C  0.516405601E+01 -0.192370443E+00 -0.580116626E-01
   H -0.277078901E+02 -0.241014443E+01  0.107357503E+01
   H  0.269514287E+02  0.248991475E+01  0.565356947E+00
     4
 # iter = 55000  time[fs]=55.00000
   C -0.530323854E+01  0.297563042E+00 -0.604513600E-01
   C  0.524491990E+01 -0.196166587E+00 -0.589086278E-01
   H -0.281058526E+02 -0.244572990E+01  0.108835309E+01
   H  0.273377712E+02  0.252599412E+01  0.573570486E+00
     4
 # iter = 55500  time[fs]=55.50000
   C -0.538578197E+01  0.302160582E+00 -0.617881910E-01
   C  0.532589168E+01 -0.199969122E+00 -0.598060714E-01
   H -0.285040338E+02 -0.248133816E+01  0.110314075E+01
   H  0.277243332E+02  0.256209614E+01  0.581789213E+00
     4
 # iter = 56000  time[fs]=56.00000
   C -0.546843006E+01  0.306764342E+00 -0.631257595E-01
   C  0.540696805E+01 -0.203777867E+00 -0.607039761E-01
   H -0.289024276E+02 -0.251696859E+01  0.111793774E+01
   H  0.281111086E+02  0.259822020E+01  0.590012989E+00
     4
 # iter = 56500  time[fs]=56.50000
   C -0.555117966E+01  0.311374150E+00 -0.644640496E-01
   C  0.548814585E+01 -0.207592649E+00 -0.616023253E-01
   H -0.293010283E+02 -0.255262060E+01  0.113274381E+01
   H  0.284980918E+02  0.263436572E+01  0.598241681E+00
     4
 # iter = 57000  time[fs]=57.00000
   C -0.563402774E+01  0.315989837E+00 -0.658030461E-01
   C  0.556942208E+01 -0.211413300E+00 -0.625011035E-01
   H -0.296998303E+02 -0.258829364E+01  0.114755872E+01
   H  0.288852771E+02  0.267053215E+01  0.606475159E+00
     4
 # iter = 57500  time[fs]=57.50000
   C -0.571697142E+01  0.320611245E+00 -0.671427342E-01
   C  0.565079384E+01 -0.215239661E+00 -0.634002960E-01
   H -0.300988283E+02 -0.262398715E+01  0.116238223E+01
   H  0.292726592E+02  0.270671893E+01  0.614713302E+00
     4
 # iter = 58000  time[fs]=58.00000
   C -0.580000794E+01  0.325238218E+00 -0.684830993E-01
   C  0.573225838E+01 -0.219071578E+00 -0.642998886E-01
   H -0.304980173E+02 -0.265970062E+01  0.117721412E+01
   H  0.296602329E+02  0.274292555E+01  0.622955989E+00
     4
 # iter = 58500  time[fs]=58.50000
   C -0.588313463E+01  0.329870610E+00 -0.698241275E-01
   C  0.581381305E+01 -0.222908903E+00 -0.651998679E-01
   H -0.308973923E+02 -0.269543356E+01  0.119205418E+01
   H  0.300479933E+02  0.277915151E+01  0.631203107E+00
     4
 # iter = 59000  time[fs]=59.00000
   C -0.596634897E+01  0.334508277E+00 -0.711658049E-01
   C  0.589545529E+01 -0.226751495E+00 -0.661002213E-01
   H -0.312969486E+02 -0.273118546E+01  0.120690220E+01
   H  0.304359356E+02  0.281539633E+01  0.639454546E+00
     4
 # iter = 59500  time[fs]=59.50000
   C -0.604964851E+01  0.339151083E+00 -0.725081184E-01
   C  0.597718269E+01 -0.230599216E+00 -0.670009367E-01
   H -0.316966816E+02 -0.276695588E+01  0.122175798E+01
   H  0.308240554E+02  0.285165955E+01  0.647710200E+00
     4
 # iter = 60000  time[fs]=60.00000
   C -0.613303091E+01  0.343798897E+00 -0.738510548E-01
   C  0.605899290E+01 -0.234451935E+00 -0.679020024E-01
   H -0.320965870E+02 -0.280274436E+01  0.123662133E+01
   H  0.312123481E+02  0.288794071E+01  0.655969966E+00
     4
 # iter = 60500  time[fs]=60.50000
   C -0.621649393E+01  0.348451591E+00 -0.751946018E-01
   C  0.614088367E+01 -0.238309525E+00 -0.688034074E-01
   H -0.324966604E+02 -0.283855046E+01  0.125149206E+01
   H  0.316008095E+02  0.292423939E+01  0.664233747E+00
     4
 # iter = 61000  time[fs]=61.00000
   C -0.630003539E+01  0.353109044E+00 -0.765387468E-01
   C  0.622285284E+01 -0.242171865E+00 -0.697051412E-01
   H -0.328968979E+02 -0.287437378E+01  0.126637000E+01
   H  0.319894355E+02  0.296055517E+01  0.672501446E+00
     4
 # iter = 61500  time[fs]=61.50000
   C -0.638365324E+01  0.357771138E+00 -0.778834782E-01
   C  0.630489835E+01 -0.246038837E+00 -0.706071939E-01
   H -0.332972956E+02 -0.291021391E+01  0.128125497E+01
   H  0.323782222E+02  0.299688766E+01  0.680772972E+00
     4
 # iter = 62000  time[fs]=62.00000
   C -0.646734546E+01  0.362437760E+00 -0.792287841E-01
   C  0.638701819E+01 -0.249910328E+00 -0.715095556E-01
   H -0.336978495E+02 -0.294607045E+01  0.129614680E+01
   H  0.327671657E+02  0.303323645E+01  0.689048237E+00
     4
 # iter = 62500  time[fs]=62.50000
   C -0.655111014E+01  0.367108800E+00 -0.805746534E-01
   C  0.646921045E+01 -0.253786228E+00 -0.724122174E-01
   H -0.340985562E+02 -0.298194305E+01  0.131104535E+01
   H  0.331562624E+02  0.306960119E+01  0.697327155E+00
     4
 # iter = 63000  time[fs]=63.00000
   C -0.663494543E+01  0.371784152E+00 -0.819210751E-01
   C  0.655147327E+01 -0.257666432E+00 -0.733151704E-01
   H -0.344994119E+02 -0.301783132E+01  0.132595044E+01
   H  0.335455088E+02  0.310598151E+01  0.705609643E+00
     4
 # iter = 63500  time[fs]=63.50000
   C -0.671884955E+01  0.376463716E+00 -0.832680384E-01
   C  0.663380488E+01 -0.261550838E+00 -0.742184062E-01
   H -0.349004134E+02 -0.305373492E+01  0.134086194E+01
   H  0.339349013E+02  0.314237705E+01  0.713895622E+00
     4
 # iter = 64000  time[fs]=64.00000
   C -0.680282077E+01  0.381147391E+00 -0.846155329E-01
   C  0.671620357E+01 -0.265439349E+00 -0.751219168E-01
   H -0.353015573E+02 -0.308965352E+01  0.135577970E+01
   H  0.343244368E+02  0.317878748E+01  0.722185013E+00
     4
 # iter = 64500  time[fs]=64.50000
   C -0.688685745E+01  0.385835085E+00 -0.859635485E-01
   C  0.679866767E+01 -0.269331868E+00 -0.760256943E-01
   H -0.357028405E+02 -0.312558677E+01  0.137070357E+01
   H  0.347141119E+02  0.321521248E+01  0.730477743E+00
     4
 # iter = 65000  time[fs]=65.00000
   C -0.697095799E+01  0.390526703E+00 -0.873120754E-01
   C  0.688119559E+01 -0.273228306E+00 -0.769297315E-01
   H -0.361042598E+02 -0.316153438E+01  0.138563344E+01
   H  0.351039236E+02  0.325165173E+01  0.738773739E+00
     4
 # iter = 65500  time[fs]=65.50000
   C -0.705512085E+01  0.395222159E+00 -0.886611038E-01
   C  0.696378580E+01 -0.277128572E+00 -0.778340212E-01
   H -0.365058123E+02 -0.319749602E+01  0.140056915E+01
   H  0.354938689E+02  0.328810492E+01  0.747072930E+00
     4
 # iter = 66000  time[fs]=66.00000
   C -0.713934455E+01  0.399921366E+00 -0.900106245E-01
   C  0.704643682E+01 -0.281032581E+00 -0.787385566E-01
   H -0.369074951E+02 -0.323347141E+01  0.141551059E+01
   H  0.358839449E+02  0.332457176E+01  0.755375249E+00
     4
 # iter = 66500  time[fs]=66.50000
   C -0.722362764E+01  0.404624241E+00 -0.913606283E-01
   C  0.712914720E+01 -0.284940251E+00 -0.796433311E-01
   H -0.373093054E+02 -0.326946024E+01  0.143045764E+01
   H  0.362741487E+02  0.336105195E+01  0.763680630E+00
     4
 # iter = 67000  time[fs]=67.00000
   C -0.730796876E+01  0.409330704E+00 -0.927111063E-01
   C  0.721191557E+01 -0.288851500E+00 -0.805483385E-01
   H -0.377112405E+02 -0.330546225E+01  0.144541017E+01
   H  0.366644777E+02  0.339754522E+01  0.771989010E+00
     4
 # iter = 67500  time[fs]=67.50000
   C -0.739236655E+01  0.414040677E+00 -0.940620499E-01
   C  0.729474059E+01 -0.292766253E+00 -0.814535726E-01
   H -0.381132977E+02 -0.334147716E+01  0.146036808E+01
   H  0.370549293E+02  0.343405131E+01  0.780300327E+00
     4
 # iter = 68000  time[fs]=68.00000
   C -0.747681973E+01  0.418754085E+00 -0.954134506E-01
   C  0.737762096E+01 -0.296684432E+00 -0.823590277E-01
   H -0.385154746E+02 -0.337750472E+01  0.147533124E+01
   H  0.374455008E+02  0.347056995E+01  0.788614520E+00
     4
 # iter = 68500  time[fs]=68.50000
   C -0.756132705E+01  0.423470854E+00 -0.967653003E-01
   C  0.746055544E+01 -0.300605966E+00 -0.832646982E-01
   H -0.389177686E+02 -0.341354465E+01  0.149029956E+01
   H  0.378361898E+02  0.350710088E+01  0.796931533E+00
     4
 # iter = 69000  time[fs]=69.00000
   C -0.764588729E+01  0.428190914E+00 -0.981175909E-01
   C  0.754354283E+01 -0.304530783E+00 -0.841705786E-01
   H -0.393201774E+02 -0.344959673E+01  0.150527293E+01
   H  0.382269940E+02  0.354364386E+01  0.805251307E+00
     4
 # iter = 69500  time[fs]=69.50000
   C -0.773049928E+01  0.432914198E+00 -0.994703146E-01
   C  0.762658194E+01 -0.308458816E+00 -0.850766638E-01
   H -0.397226987E+02 -0.348566070E+01  0.152025124E+01
   H  0.386179109E+02  0.358019866E+01  0.813573790E+00
     4
 # iter = 70000  time[fs]=70.00000
   C -0.781516190E+01  0.437640637E+00 -0.100823464E+00
   C  0.770967165E+01 -0.312389998E+00 -0.859829488E-01
   H -0.401253302E+02 -0.352173634E+01  0.153523440E+01
   H  0.390089383E+02  0.361676503E+01  0.821898927E+00
     4
 # iter = 70500  time[fs]=70.50000
   C -0.789987405E+01  0.442370168E+00 -0.102177031E+00
   C  0.779281086E+01 -0.316324265E+00 -0.868894287E-01
   H -0.405280698E+02 -0.355782342E+01  0.155022231E+01
   H  0.394000740E+02  0.365334276E+01  0.830226668E+00
     4
 # iter = 71000  time[fs]=71.00000
   C -0.798463466E+01  0.447102729E+00 -0.103531009E+00
   C  0.787599852E+01 -0.320261555E+00 -0.877960989E-01
   H -0.409309152E+02 -0.359392172E+01  0.156521488E+01
   H  0.397913160E+02  0.368993163E+01  0.838556961E+00
     4
 # iter = 71500  time[fs]=71.50000
   C -0.806944271E+01  0.451838258E+00 -0.104885391E+00
   C  0.795923358E+01 -0.324201806E+00 -0.887029548E-01
   H -0.413338645E+02 -0.363003102E+01  0.158021203E+01
   H  0.401826621E+02  0.372653142E+01  0.846889759E+00
     4
 # iter = 72000  time[fs]=72.00000
   C -0.815429720E+01  0.456576698E+00 -0.106240169E+00
   C  0.804251507E+01 -0.328144961E+00 -0.896099922E-01
   H -0.417369157E+02 -0.366615112E+01  0.159521365E+01
   H  0.405741103E+02  0.376314192E+01  0.855225015E+00
     4
 # iter = 72500  time[fs]=72.50000
   C -0.823919717E+01  0.461317990E+00 -0.107595338E+00
   C  0.812584201E+01 -0.332090961E+00 -0.905172068E-01
   H -0.421400668E+02 -0.370228182E+01  0.161021967E+01
   H  0.409656587E+02  0.379976295E+01  0.863562681E+00
     4
 # iter = 73000  time[fs]=73.00000
   C -0.832414167E+01  0.466062079E+00 -0.108950890E+00
   C  0.820921346E+01 -0.336039752E+00 -0.914245947E-01
   H -0.425433159E+02 -0.373842292E+01  0.162523001E+01
   H  0.413573054E+02  0.383639430E+01  0.871902714E+00
     4
 # iter = 73500  time[fs]=73.50000
   C -0.840912979E+01  0.470808911E+00 -0.110306820E+00
   C  0.829262853E+01 -0.339991280E+00 -0.923321518E-01
   H -0.429466613E+02 -0.377457423E+01  0.164024458E+01
   H  0.417490485E+02  0.387303578E+01  0.880245070E+00
     4
 # iter = 74000  time[fs]=74.00000
   C -0.849416067E+01  0.475558435E+00 -0.111663120E+00
   C  0.837608632E+01 -0.343945493E+00 -0.932398744E-01
   H -0.433501010E+02 -0.381073557E+01  0.165526331E+01
   H  0.421408863E+02  0.390968720E+01  0.888589707E+00
     4
 # iter = 74500  time[fs]=74.50000
   C -0.857923343E+01  0.480310598E+00 -0.113019785E+00
   C  0.845958598E+01 -0.347902339E+00 -0.941477589E-01
   H -0.437536335E+02 -0.384690675E+01  0.167028612E+01
   H  0.425328170E+02  0.394634840E+01  0.896936584E+00
     4
 # iter = 75000  time[fs]=75.00000
   C -0.866434726E+01  0.485065352E+00 -0.114376809E+00
   C  0.854312668E+01 -0.351861769E+00 -0.950558017E-01
   H -0.441572569E+02 -0.388308760E+01  0.168531293E+01
   H  0.429248389E+02  0.398301919E+01  0.905285660E+00
     4
 # iter = 75500  time[fs]=75.50000
   C -0.874950133E+01  0.489822649E+00 -0.115734186E+00
   C  0.862670762E+01 -0.355823736E+00 -0.959639994E-01
   H -0.445609698E+02 -0.391927795E+01  0.170034368E+01
   H  0.433169504E+02  0.401969940E+01  0.913636896E+00
     4
 # iter = 76000  time[fs]=76.00000
   C -0.883469488E+01  0.494582441E+00 -0.117091911E+00
   C  0.871032800E+01 -0.359788192E+00 -0.968723487E-01
   H -0.449647703E+02 -0.395547763E+01  0.171537829E+01
   H  0.437091499E+02  0.405638888E+01  0.921990256E+00
     4
 # iter = 76500  time[fs]=76.50000
   C -0.891992713E+01  0.499344682E+00 -0.118449977E+00
   C  0.879398708E+01 -0.363755092E+00 -0.977808464E-01
   H -0.453686571E+02 -0.399168648E+01  0.173041670E+01
   H  0.441014357E+02  0.409308744E+01  0.930345701E+00
     4
 # iter = 77000  time[fs]=77.00000
   C -0.900519735E+01  0.504109330E+00 -0.119808379E+00
   C  0.887768411E+01 -0.367724392E+00 -0.986894893E-01
   H -0.457726286E+02 -0.402790434E+01  0.174545884E+01
   H  0.444938065E+02  0.412979495E+01  0.938703195E+00
     4
 # iter = 77500  time[fs]=77.50000
   C -0.909050482E+01  0.508876340E+00 -0.121167112E+00
   C  0.896141838E+01 -0.371696048E+00 -0.995982745E-01
   H -0.461766833E+02 -0.406413105E+01  0.176050464E+01
   H  0.448862606E+02  0.416651125E+01  0.947062704E+00
     4
 # iter = 78000  time[fs]=78.00000
   C -0.917584884E+01  0.513645670E+00 -0.122526172E+00
   C  0.904518918E+01 -0.375670019E+00 -0.100507199E+00
   H -0.465808197E+02 -0.410036647E+01  0.177555404E+01
   H  0.452787967E+02  0.420323618E+01  0.955424194E+00
     4
 # iter = 78500  time[fs]=78.50000
   C -0.926122872E+01  0.518417280E+00 -0.123885552E+00
   C  0.912899583E+01 -0.379646264E+00 -0.101416260E+00
   H -0.469850366E+02 -0.413661046E+01  0.179060699E+01
   H  0.456714134E+02  0.423996960E+01  0.963787630E+00
     4
 # iter = 79000  time[fs]=79.00000
   C -0.934664382E+01  0.523191130E+00 -0.125245248E+00
   C  0.921283767E+01 -0.383624743E+00 -0.102325455E+00
   H -0.473893324E+02 -0.417286286E+01  0.180566341E+01
   H  0.460641092E+02  0.427671137E+01  0.972152981E+00
     4
 # iter = 79500  time[fs]=79.50000
   C -0.943209348E+01  0.527967180E+00 -0.126605255E+00
   C  0.929671407E+01 -0.387605417E+00 -0.103234781E+00
   H -0.477937059E+02 -0.420912353E+01  0.182072326E+01
   H  0.464568829E+02  0.431346136E+01  0.980520214E+00
     4
 # iter = 80000  time[fs]=80.00000
   C -0.951757707E+01  0.532745394E+00 -0.127965568E+00
   C  0.938062439E+01 -0.391588248E+00 -0.104144235E+00
   H -0.481981558E+02 -0.424539236E+01  0.183578647E+01
   H  0.468497331E+02  0.435021942E+01  0.988889299E+00
