     4
 # iter = 25000  time[fs]=25.00000
   C -0.104268094E+01 -0.929386976E-02  0.740727363E-02
   C  0.101573903E+01 -0.755002820E-02  0.520122968E-02
   H -0.526603164E+01  0.689511483E-01 -0.369396259E+00
   H  0.540107081E+01 -0.341755968E+00  0.336928162E+00
     4
 # iter = 25500  time[fs]=25.50000
   C -0.109385356E+01 -0.110810819E-01  0.731903274E-02
   C  0.105936966E+01 -0.813814867E-02  0.339317513E-02
   H -0.561563168E+01  0.660551571E-01 -0.403119414E+00
   H  0.571587955E+01 -0.371905123E+00  0.350685434E+00
     4
 # iter = 26000  time[fs]=26.00000
   C -0.114886035E+01 -0.138925606E-01  0.623566023E-02
   C  0.110489813E+01 -0.965206735E-02  0.617368107E-03
   H -0.597634507E+01  0.578520479E-01 -0.442706377E+00
   H  0.603056393E+01 -0.407820150E+00  0.359387354E+00
     4
 # iter = 26500  time[fs]=26.50000
   C -0.120442147E+01 -0.146844727E-01  0.720059634E-02
   C  0.115490744E+01 -0.926311120E-02 -0.296709180E-03
   H -0.633140968E+01  0.604045649E-01 -0.472028204E+00
   H  0.636066773E+01 -0.433373792E+00  0.379089987E+00
     4
 # iter = 27000  time[fs]=27.00000
   C -0.126016688E+01 -0.133069148E-01  0.103633528E-01
   C  0.120931212E+01 -0.683252834E-02  0.790920019E-03
   H -0.667947121E+01  0.744988746E-01 -0.490245045E+00
   H  0.670649984E+01 -0.447737951E+00  0.410557749E+00
     4
 # iter = 27500  time[fs]=27.50000
   C -0.131815913E+01 -0.120256319E-01  0.134577558E-01
   C  0.126580228E+01 -0.446690360E-02  0.177520574E-02
   H -0.703203225E+01  0.881674718E-01 -0.509280534E+00
   H  0.705565260E+01 -0.462856729E+00  0.441789393E+00
     4
 # iter = 28000  time[fs]=28.00000
   C -0.137981630E+01 -0.124437449E-01  0.148800567E-01
   C  0.132270198E+01 -0.365707470E-02  0.116690228E-02
   H -0.739716121E+01  0.929418452E-01 -0.537565395E+00
   H  0.739928035E+01 -0.487176417E+00  0.464289270E+00
     4
 # iter = 28500  time[fs]=28.50000
   C -0.144432385E+01 -0.139139316E-01  0.152767123E-01
   C  0.138044310E+01 -0.380236024E-02 -0.431781546E-03
   H -0.777108671E+01  0.922371946E-01 -0.571650707E+00
   H  0.774049165E+01 -0.517251521E+00  0.481461208E+00
     4
 # iter = 29000  time[fs]=29.00000
   C -0.150994232E+01 -0.148476231E-01  0.162352933E-01
   C  0.144034810E+01 -0.342730523E-02 -0.154389203E-02
   H -0.814510872E+01  0.944391629E-01 -0.603120996E+00
   H  0.808741474E+01 -0.544664445E+00  0.501686965E+00
     4
 # iter = 29500  time[fs]=29.50000
   C -0.157598665E+01 -0.146962045E-01  0.183033978E-01
   C  0.150278826E+01 -0.202297602E-02 -0.165896607E-02
   H -0.851606268E+01  0.102441018E+00 -0.629057230E+00
   H  0.844270961E+01 -0.566498420E+00  0.527851397E+00
     4
 # iter = 30000  time[fs]=30.00000
   C -0.164310279E+01 -0.142289494E-01  0.207107545E-01
   C  0.156692418E+01 -0.305257936E-03 -0.149133726E-02
   H -0.888778231E+01  0.112175846E+00 -0.653504163E+00
   H  0.880209250E+01 -0.586806325E+00  0.555872812E+00
     4
 # iter = 30500  time[fs]=30.50000
   C -0.171203754E+01 -0.143039140E-01  0.225983126E-01
   C  0.163184631E+01  0.927457069E-03 -0.183787818E-02
   H -0.926459871E+01  0.119108216E+00 -0.680977781E+00
   H  0.916083394E+01 -0.610112046E+00  0.581201586E+00
     4
 # iter = 31000  time[fs]=31.00000
   C -0.178270255E+01 -0.149329602E-01  0.239532068E-01
   C  0.169744238E+01  0.166322277E-02 -0.270908797E-02
   H -0.964639503E+01  0.123172447E+00 -0.711526358E+00
   H  0.951870138E+01 -0.636466909E+00  0.603763661E+00
     4
 # iter = 31500  time[fs]=31.50000
   C -0.185444760E+01 -0.155562148E-01  0.253343137E-01
   C  0.176414122E+01  0.242147746E-02 -0.358415656E-02
   H -0.100300532E+02  0.127322823E+00 -0.742179958E+00
   H  0.987850472E+01 -0.662900710E+00  0.626509087E+00
     4
 # iter = 32000  time[fs]=32.00000
   C -0.192684393E+01 -0.158265054E-01  0.270878406E-01
   C  0.183218284E+01  0.352402710E-02 -0.413996826E-02
   H -0.104135965E+02  0.133390168E+00 -0.771093779E+00
   H  0.102419445E+02 -0.687569195E+00  0.651264003E+00
     4
 # iter = 32500  time[fs]=32.50000
   C -0.199996456E+01 -0.158906857E-01  0.290660128E-01
   C  0.190135616E+01  0.483359359E-02 -0.451254822E-02
   H -0.107976735E+02  0.140595903E+00 -0.799033942E+00
   H  0.106081216E+02 -0.711241333E+00  0.677242999E+00
     4
 # iter = 33000  time[fs]=33.00000
   C -0.207404565E+01 -0.160517821E-01  0.309649258E-01
   C  0.197131203E+01  0.606779736E-02 -0.498308488E-02
   H -0.111837713E+02  0.147336730E+00 -0.827592576E+00
   H  0.109753228E+02 -0.735512653E+00  0.702835619E+00
     4
 # iter = 33500  time[fs]=33.50000
   C -0.214911513E+01 -0.163983680E-01  0.326951673E-01
   C  0.204190688E+01  0.714359794E-02 -0.563349504E-02
   H -0.115722550E+02  0.153142381E+00 -0.857229841E+00
   H  0.113429794E+02 -0.760845364E+00  0.727566134E+00
     4
 # iter = 34000  time[fs]=34.00000
   C -0.222498834E+01 -0.168008707E-01  0.343855091E-01
   C  0.211320547E+01  0.818072668E-02 -0.634299049E-02
   H -0.119623472E+02  0.158695073E+00 -0.887254338E+00
   H  0.117116859E+02 -0.786548781E+00  0.752112970E+00
     4
 # iter = 34500  time[fs]=34.50000
   C -0.230148853E+01 -0.171326017E-01  0.361618800E-01
   C  0.218527489E+01  0.929627491E-02 -0.699348504E-02
   H -0.123532943E+02  0.164661901E+00 -0.916990616E+00
   H  0.120820296E+02 -0.811948048E+00  0.777139809E+00
     4
 # iter = 35000  time[fs]=35.00000
   C -0.237857189E+01 -0.173954384E-01  0.380216840E-01
   C  0.225806724E+01  0.104878902E-01 -0.758639370E-02
   H -0.127450297E+02  0.171030920E+00 -0.946443019E+00
   H  0.124539249E+02 -0.837048655E+00  0.802630930E+00
     4
 # iter = 35500  time[fs]=35.50000
   C -0.245626888E+01 -0.176615174E-01  0.398921068E-01
   C  0.233147335E+01  0.116879610E-01 -0.818844515E-02
   H -0.131378647E+02  0.177419173E+00 -0.975987567E+00
   H  0.128269212E+02 -0.862228031E+00  0.828199511E+00
     4
 # iter = 36000  time[fs]=36.00000
   C -0.253458055E+01 -0.179700194E-01  0.417333271E-01
   C  0.240541829E+01  0.128595358E-01 -0.883576081E-02
   H -0.135319426E+02  0.183617927E+00 -0.100582664E+01
   H  0.132007478E+02 -0.887689683E+00  0.853633415E+00
     4
 # iter = 36500  time[fs]=36.50000
   C -0.261345459E+01 -0.183035690E-01  0.435621160E-01
   C  0.247988290E+01  0.140182545E-01 -0.951192079E-02
   H -0.139271132E+02  0.189717327E+00 -0.103586427E+01
   H  0.135754383E+02 -0.913338364E+00  0.879019949E+00
     4
 # iter = 37000  time[fs]=37.00000
   C -0.269282857E+01 -0.186317868E-01  0.454082823E-01
   C  0.255486304E+01  0.151918717E-01 -0.101884370E-01
   H -0.143231626E+02  0.195876313E+00 -0.106593613E+01
   H  0.139510995E+02 -0.939010348E+00  0.904515511E+00
     4
 # iter = 37500  time[fs]=37.50000
   C -0.277266542E+01 -0.189470722E-01  0.472788886E-01
   C  0.263033598E+01  0.163870017E-01 -0.108580057E-01
   H -0.147200011E+02  0.202133583E+00 -0.109599857E+01
   H  0.143277221E+02 -0.964662630E+00  0.930156334E+00
     4
 # iter = 38000  time[fs]=38.00000
   C -0.285294927E+01 -0.192606621E-01  0.491621910E-01
   C  0.270626386E+01  0.175927787E-01 -0.115308433E-01
   H -0.151176426E+02  0.208428411E+00 -0.112610775E+01
   H  0.147052008E+02 -0.990352047E+00  0.955879305E+00
     4
 # iter = 38500  time[fs]=38.50000
   C -0.293366473E+01 -0.195822111E-01  0.510480568E-01
   C  0.278261244E+01  0.187998325E-01 -0.122157096E-01
   H -0.155160963E+02  0.214708514E+00 -0.115631172E+01
   H  0.150834420E+02 -0.101612727E+01  0.981629928E+00
     4
 # iter = 39000  time[fs]=39.00000
   C -0.301478820E+01 -0.199112194E-01  0.529365344E-01
   C  0.285935883E+01  0.200082520E-01 -0.129119404E-01
   H -0.159153205E+02  0.220975332E+00 -0.118660511E+01
   H  0.154624089E+02 -0.104198344E+01  0.100740764E+01
     4
 # iter = 39500  time[fs]=39.50000
   C -0.309629333E+01 -0.202427140E-01  0.548321714E-01
   C  0.293648603E+01  0.212223058E-01 -0.136147255E-01
   H -0.163152529E+02  0.227254005E+00 -0.121695912E+01
   H  0.158420910E+02 -0.106789224E+01  0.103323573E+01
     4
 # iter = 40000  time[fs]=40.00000
   C -0.317815788E+01 -0.205742696E-01  0.567369909E-01
   C  0.301397628E+01  0.224439141E-01 -0.143216339E-01
   H -0.167158471E+02  0.233556282E+00 -0.124735862E+01
   H  0.162224671E+02 -0.109383893E+01  0.105912422E+01
     4
 # iter = 40500  time[fs]=40.50000
   C -0.326036443E+01 -0.209068436E-01  0.586496562E-01
   C  0.309181011E+01  0.236718730E-01 -0.150333880E-01
   H -0.171170772E+02  0.239876102E+00 -0.127780650E+01
   H  0.166035002E+02 -0.111982683E+01  0.108506542E+01
     4
 # iter = 41000  time[fs]=41.00000
   C -0.334289739E+01 -0.212419296E-01  0.605683153E-01
   C  0.316996888E+01  0.249044978E-01 -0.157512180E-01
   H -0.175189218E+02  0.246204632E+00 -0.130830864E+01
   H  0.169851527E+02 -0.114586219E+01  0.111104894E+01
     4
 # iter = 41500  time[fs]=41.50000
   C -0.342574110E+01 -0.215797757E-01  0.624923809E-01
   C  0.324843630E+01  0.261412775E-01 -0.164752055E-01
   H -0.179213553E+02  0.252539668E+00 -0.133886447E+01
   H  0.173673953E+02 -0.117194482E+01  0.113707116E+01
     4
 # iter = 42000  time[fs]=42.00000
   C -0.350888017E+01 -0.219197863E-01  0.644221283E-01
   C  0.332719794E+01  0.273825008E-01 -0.172046561E-01
   H -0.183243490E+02  0.258883519E+00 -0.136946911E+01
   H  0.177502053E+02 -0.119807012E+01  0.116313305E+01
     4
 # iter = 42500  time[fs]=42.50000
   C -0.359230031E+01 -0.222614939E-01  0.663577213E-01
   C  0.340624027E+01  0.286283516E-01 -0.179390024E-01
   H -0.187278767E+02  0.265237857E+00 -0.140011845E+01
   H  0.181335605E+02 -0.122423429E+01  0.118923501E+01
     4
 # iter = 43000  time[fs]=43.00000
   C -0.367598855E+01 -0.226048527E-01  0.682989186E-01
   C  0.348555030E+01  0.298786354E-01 -0.186780757E-01
   H -0.191319161E+02  0.271602175E+00 -0.143081072E+01
   H  0.185174384E+02 -0.125043585E+01  0.121537536E+01
     4
 # iter = 43500  time[fs]=43.50000
   C -0.375993293E+01 -0.229499683E-01  0.702453423E-01
   C  0.356511571E+01  0.311330295E-01 -0.194218548E-01
   H -0.195364467E+02  0.277975206E+00 -0.146154505E+01
   H  0.189018166E+02 -0.127667418E+01  0.124155171E+01
     4
 # iter = 44000  time[fs]=44.00000
   C -0.384412215E+01 -0.232968497E-01  0.721967251E-01
   C  0.364492508E+01  0.323913127E-01 -0.201702352E-01
   H -0.199414490E+02  0.284356228E+00 -0.149232014E+01
   H  0.192866749E+02 -0.130294823E+01  0.126776228E+01
     4
 # iter = 44500  time[fs]=44.50000
   C -0.392854551E+01 -0.236454043E-01  0.741529149E-01
   C  0.372496776E+01  0.336533694E-01 -0.209230234E-01
   H -0.203469039E+02  0.290745093E+00 -0.152313425E+01
   H  0.196719946E+02 -0.132925647E+01  0.129400593E+01
     4
 # iter = 45000  time[fs]=45.00000
   C -0.401319295E+01 -0.239955318E-01  0.761137794E-01
   C  0.380523379E+01  0.349191012E-01 -0.216800245E-01
   H -0.207527937E+02  0.297141729E+00 -0.155398566E+01
   H  0.200577582E+02 -0.135559740E+01  0.132028165E+01
     4
 # iter = 45500  time[fs]=45.50000
   C -0.409805505E+01 -0.243471701E-01  0.780791598E-01
   C  0.388571378E+01  0.361883840E-01 -0.224410844E-01
   H -0.211591014E+02  0.303545888E+00 -0.158487292E+01
   H  0.204439488E+02 -0.138196976E+01  0.134658830E+01
     4
 # iter = 46000  time[fs]=46.00000
   C -0.418312298E+01 -0.247002798E-01  0.800488856E-01
   C  0.396639887E+01  0.374610815E-01 -0.232060743E-01
   H -0.215658116E+02  0.309957234E+00 -0.161579477E+01
   H  0.208305507E+02 -0.140837249E+01  0.137292470E+01
     4
 # iter = 46500  time[fs]=46.50000
   C -0.426838840E+01 -0.250548197E-01  0.820227982E-01
   C  0.404728072E+01  0.387370678E-01 -0.239748689E-01
   H -0.219729091E+02  0.316375469E+00 -0.164675000E+01
   H  0.212175487E+02 -0.143480453E+01  0.139928976E+01
     4
 # iter = 47000  time[fs]=47.00000
   C -0.435384346E+01 -0.254107421E-01  0.840007554E-01
   C  0.412835148E+01  0.400162310E-01 -0.247473404E-01
   H -0.223803801E+02  0.322800353E+00 -0.167773741E+01
   H  0.216049286E+02 -0.146126487E+01  0.142568249E+01
     4
 # iter = 47500  time[fs]=47.50000
   C -0.443948073E+01 -0.257679986E-01  0.859826244E-01
   C  0.420960374E+01  0.412984669E-01 -0.255233650E-01
   H -0.227882110E+02  0.329231672E+00 -0.170875586E+01
   H  0.219926771E+02 -0.148775252E+01  0.145210194E+01
     4
 # iter = 48000  time[fs]=48.00000
   C -0.452529320E+01 -0.261265451E-01  0.879682768E-01
   C  0.429103051E+01  0.425836748E-01 -0.263028261E-01
   H -0.231963893E+02  0.335669213E+00 -0.173980427E+01
   H  0.223807812E+02 -0.151426653E+01  0.147854723E+01
     4
 # iter = 48500  time[fs]=48.50000
   C -0.461127425E+01 -0.264863412E-01  0.899575888E-01
   C  0.437262517E+01  0.438717572E-01 -0.270856143E-01
   H -0.236049029E+02  0.342112767E+00 -0.177088163E+01
   H  0.227692290E+02 -0.154080604E+01  0.150501749E+01
     4
 # iter = 49000  time[fs]=49.00000
   C -0.469741762E+01 -0.268473480E-01  0.919504419E-01
   C  0.445438147E+01  0.451626210E-01 -0.278716249E-01
   H -0.240137404E+02  0.348562132E+00 -0.180198698E+01
   H  0.231580088E+02 -0.156737022E+01  0.153151192E+01
     4
 # iter = 49500  time[fs]=49.50000
   C -0.478371736E+01 -0.272095283E-01  0.939467240E-01
   C  0.453629347E+01  0.464561779E-01 -0.286607577E-01
   H -0.244228910E+02  0.355017120E+00 -0.183311940E+01
   H  0.235471097E+02 -0.159395826E+01  0.155802972E+01
     4
 # iter = 50000  time[fs]=50.00000
   C -0.487016784E+01 -0.275728458E-01  0.959463279E-01
   C  0.461835556E+01  0.477523438E-01 -0.294529166E-01
   H -0.248323444E+02  0.361477552E+00 -0.186427801E+01
   H  0.239365212E+02 -0.162056940E+01  0.158457016E+01
     4
 # iter = 50500  time[fs]=50.50000
   C -0.495676373E+01 -0.279372662E-01  0.979491514E-01
   C  0.470056241E+01  0.490510385E-01 -0.302480097E-01
   H -0.252420907E+02  0.367943258E+00 -0.189546198E+01
   H  0.243262335E+02 -0.164720293E+01  0.161113255E+01
     4
 # iter = 51000  time[fs]=51.00000
   C -0.504349996E+01 -0.283027566E-01  0.999550965E-01
   C  0.478290896E+01  0.503521851E-01 -0.310459492E-01
   H -0.256521206E+02  0.374414075E+00 -0.192667051E+01
   H  0.247162370E+02 -0.167385815E+01  0.163771619E+01
     4
 # iter = 51500  time[fs]=51.50000
   C -0.513037170E+01 -0.286692855E-01  0.101964070E+00
   C  0.486539040E+01  0.516557099E-01 -0.318466512E-01
   H -0.260624252E+02  0.380889848E+00 -0.195790285E+01
   H  0.251065226E+02 -0.170053441E+01  0.166432046E+01
     4
 # iter = 52000  time[fs]=52.00000
   C -0.521737438E+01 -0.290368226E-01  0.103975981E+00
   C  0.494800217E+01  0.529615428E-01 -0.326500351E-01
   H -0.264729959E+02  0.387370427E+00 -0.198915828E+01
   H  0.254970818E+02 -0.172723107E+01  0.169094473E+01
     4
 # iter = 52500  time[fs]=52.50000
   C -0.530450363E+01 -0.294053389E-01  0.105990745E+00
   C  0.503073990E+01  0.542696164E-01 -0.334560237E-01
   H -0.268838247E+02  0.393855670E+00 -0.202043609E+01
   H  0.258879062E+02 -0.175394753E+01  0.171758841E+01
     4
 # iter = 53000  time[fs]=53.00000
   C -0.539175531E+01 -0.297748068E-01  0.108008280E+00
   C  0.511359947E+01  0.555798663E-01 -0.342645432E-01
   H -0.272949038E+02  0.400345442E+00 -0.205173564E+01
   H  0.262789881E+02 -0.178068322E+01  0.174425096E+01
     4
 # iter = 53500  time[fs]=53.50000
   C -0.547912545E+01 -0.301451995E-01  0.110028506E+00
   C  0.519657692E+01  0.568922306E-01 -0.350755226E-01
   H -0.277062258E+02  0.406839612E+00 -0.208305629E+01
   H  0.266703198E+02 -0.180743758E+01  0.177093181E+01
     4
 # iter = 54000  time[fs]=54.00000
   C -0.556661028E+01 -0.305164913E-01  0.112051349E+00
   C  0.527966849E+01  0.582066500E-01 -0.358888937E-01
   H -0.281177835E+02  0.413338056E+00 -0.211439743E+01
   H  0.270618942E+02 -0.183421009E+01  0.179763047E+01
     4
 # iter = 54500  time[fs]=54.50000
   C -0.565420620E+01 -0.308886578E-01  0.114076735E+00
   C  0.536287058E+01  0.595230679E-01 -0.367045912E-01
   H -0.285295702E+02  0.419840654E+00 -0.214575848E+01
   H  0.274537043E+02 -0.186100023E+01  0.182434644E+01
     4
 # iter = 55000  time[fs]=55.00000
   C -0.574190978E+01 -0.312616752E-01  0.116104596E+00
   C  0.544617978E+01  0.608414294E-01 -0.375225523E-01
   H -0.289415794E+02  0.426347292E+00 -0.217713889E+01
   H  0.278457435E+02 -0.188780753E+01  0.185107923E+01
     4
 # iter = 55500  time[fs]=55.50000
   C -0.582971772E+01 -0.316355208E-01  0.118134863E+00
   C  0.552959280E+01  0.621616823E-01 -0.383427165E-01
   H -0.293538048E+02  0.432857859E+00 -0.220853812E+01
   H  0.282380054E+02 -0.191463152E+01  0.187782840E+01
     4
 # iter = 56000  time[fs]=56.00000
   C -0.591762688E+01 -0.320101728E-01  0.120167474E+00
   C  0.561310651E+01  0.634837762E-01 -0.391650259E-01
   H -0.297662404E+02  0.439372250E+00 -0.223995566E+01
   H  0.286304839E+02 -0.194147174E+01  0.190459351E+01
     4
 # iter = 56500  time[fs]=56.50000
   C -0.600563426E+01 -0.323856101E-01  0.122202366E+00
   C  0.569671791E+01  0.648076627E-01 -0.399894245E-01
   H -0.301788806E+02  0.445890365E+00 -0.227139103E+01
   H  0.290231732E+02 -0.196832778E+01  0.193137413E+01
     4
 # iter = 57000  time[fs]=57.00000
   C -0.609373697E+01 -0.327618125E-01  0.124239480E+00
   C  0.578042414E+01  0.661332952E-01 -0.408158587E-01
   H -0.305917198E+02  0.452412104E+00 -0.230284375E+01
   H  0.294160677E+02 -0.199519921E+01  0.195816987E+01
     4
 # iter = 57500  time[fs]=57.50000
   C -0.618193227E+01 -0.331387604E-01  0.126278758E+00
   C  0.586422244E+01  0.674606288E-01 -0.416442767E-01
   H -0.310047527E+02  0.458937376E+00 -0.233431336E+01
   H  0.298091620E+02 -0.202208564E+01  0.198498033E+01
     4
 # iter = 58000  time[fs]=58.00000
   C -0.627021751E+01 -0.335164351E-01  0.128320146E+00
   C  0.594811020E+01  0.687896205E-01 -0.424746286E-01
   H -0.314179742E+02  0.465466089E+00 -0.236579943E+01
   H  0.302024508E+02 -0.204898669E+01  0.201180515E+01
     4
 # iter = 58500  time[fs]=58.50000
   C -0.635859016E+01 -0.338948185E-01  0.130363592E+00
   C  0.603208487E+01  0.701202287E-01 -0.433068664E-01
   H -0.318313795E+02  0.471998156E+00 -0.239730155E+01
   H  0.305959293E+02 -0.207590198E+01  0.203864395E+01
     4
 # iter = 59000  time[fs]=59.00000
   C -0.644704779E+01 -0.342738931E-01  0.132409042E+00
   C  0.611614405E+01  0.714524134E-01 -0.441409437E-01
   H -0.322449638E+02  0.478533495E+00 -0.242881930E+01
   H  0.309895924E+02 -0.210283118E+01  0.206549640E+01
     4
 # iter = 59500  time[fs]=59.50000
   C -0.653558806E+01 -0.346536420E-01  0.134456449E+00
   C  0.620028541E+01  0.727861359E-01 -0.449768160E-01
   H -0.326587226E+02  0.485072025E+00 -0.246035230E+01
   H  0.313834357E+02 -0.212977392E+01  0.209236216E+01
     4
 # iter = 60000  time[fs]=60.00000
   C -0.662420875E+01 -0.350340490E-01  0.136505766E+00
   C  0.628450671E+01  0.741213592E-01 -0.458144402E-01
   H -0.330726516E+02  0.491613668E+00 -0.249190018E+01
   H  0.317774547E+02 -0.215672989E+01  0.211924091E+01
     4
 # iter = 60500  time[fs]=60.50000
   C -0.671290768E+01 -0.354150985E-01  0.138556945E+00
   C  0.636880581E+01  0.754580472E-01 -0.466537746E-01
   H -0.334867465E+02  0.498158350E+00 -0.252346257E+01
   H  0.321716451E+02 -0.218369877E+01  0.214613234E+01
     4
 # iter = 61000  time[fs]=61.00000
   C -0.680168281E+01 -0.357967752E-01  0.140609943E+00
   C  0.645318066E+01  0.767961653E-01 -0.474947790E-01
   H -0.339010033E+02  0.504705998E+00 -0.255503912E+01
   H  0.325660027E+02 -0.221068024E+01  0.217303614E+01
     4
 # iter = 61500  time[fs]=61.50000
   C -0.689053213E+01 -0.361790646E-01  0.142664718E+00
   C  0.653762927E+01  0.781356802E-01 -0.483374148E-01
   H -0.343154182E+02  0.511256544E+00 -0.258662950E+01
   H  0.329605236E+02 -0.223767402E+01  0.219995203E+01
     4
 # iter = 62000  time[fs]=62.00000
   C -0.697945373E+01 -0.365619524E-01  0.144721228E+00
   C  0.662214973E+01  0.794765594E-01 -0.491816445E-01
   H -0.347299873E+02  0.517809918E+00 -0.261823339E+01
   H  0.333552038E+02 -0.226467983E+01  0.222687974E+01
     4
 # iter = 62500  time[fs]=62.50000
   C -0.706844577E+01 -0.369454251E-01  0.146779433E+00
   C  0.670674020E+01  0.808187718E-01 -0.500274317E-01
   H -0.351447070E+02  0.524366058E+00 -0.264985048E+01
   H  0.337500397E+02 -0.229169737E+01  0.225381898E+01
     4
 # iter = 63000  time[fs]=63.00000
   C -0.715750647E+01 -0.373294695E-01  0.148839296E+00
   C  0.679139893E+01  0.821622872E-01 -0.508747415E-01
   H -0.355595738E+02  0.530924899E+00 -0.268148045E+01
   H  0.341450277E+02 -0.231872640E+01  0.228076950E+01
     4
 # iter = 63500  time[fs]=63.50000
   C -0.724663413E+01 -0.377140726E-01  0.150900777E+00
   C  0.687612421E+01  0.835070764E-01 -0.517235400E-01
   H -0.359745843E+02  0.537486382E+00 -0.271312302E+01
   H  0.345401643E+02 -0.234576665E+01  0.230773105E+01
     4
 # iter = 64000  time[fs]=64.00000
   C -0.733582710E+01 -0.380992223E-01  0.152963843E+00
   C  0.696091439E+01  0.848531112E-01 -0.525737945E-01
   H -0.363897352E+02  0.544050448E+00 -0.274477791E+01
   H  0.349354461E+02 -0.237281786E+01  0.233470339E+01
     4
 # iter = 64500  time[fs]=64.50000
   C -0.742508378E+01 -0.384849064E-01  0.155028457E+00
   C  0.704576790E+01  0.862003643E-01 -0.534254731E-01
   H -0.368050235E+02  0.550617040E+00 -0.277644484E+01
   H  0.353308699E+02 -0.239987981E+01  0.236168627E+01
     4
 # iter = 65000  time[fs]=65.00000
   C -0.751440265E+01 -0.388711135E-01  0.157094586E+00
   C  0.713068320E+01  0.875488092E-01 -0.542785452E-01
   H -0.372204460E+02  0.557186103E+00 -0.280812355E+01
   H  0.357264326E+02 -0.242695226E+01  0.238867947E+01
     4
 # iter = 65500  time[fs]=65.50000
   C -0.760378222E+01 -0.392578322E-01  0.159162198E+00
   C  0.721565883E+01  0.888984205E-01 -0.551329810E-01
   H -0.376359997E+02  0.563757584E+00 -0.283981378E+01
   H  0.361221312E+02 -0.245403499E+01  0.241568277E+01
     4
 # iter = 66000  time[fs]=66.00000
   C -0.769322106E+01 -0.396450517E-01  0.161231261E+00
   C  0.730069336E+01  0.902491732E-01 -0.559887517E-01
   H -0.380516819E+02  0.570331432E+00 -0.287151530E+01
   H  0.365179626E+02 -0.248112776E+01  0.244269595E+01
     4
 # iter = 66500  time[fs]=66.50000
   C -0.778271780E+01 -0.400327615E-01  0.163301744E+00
   C  0.738578542E+01  0.916010435E-01 -0.568458294E-01
   H -0.384674897E+02  0.576907597E+00 -0.290322785E+01
   H  0.369139240E+02 -0.250823039E+01  0.246971882E+01
     4
 # iter = 67000  time[fs]=67.00000
   C -0.787227110E+01 -0.404209514E-01  0.165373618E+00
   C  0.747093368E+01  0.929540079E-01 -0.577041869E-01
   H -0.388834205E+02  0.583486031E+00 -0.293495120E+01
   H  0.373100128E+02 -0.253534265E+01  0.249675116E+01
     4
 # iter = 67500  time[fs]=67.50000
   C -0.796187968E+01 -0.408096114E-01  0.167446853E+00
   C  0.755613685E+01  0.943080440E-01 -0.585637981E-01
   H -0.392994717E+02  0.590066687E+00 -0.296668514E+01
   H  0.377062261E+02 -0.256246435E+01  0.252379278E+01
     4
 # iter = 68000  time[fs]=68.00000
   C -0.805154228E+01 -0.411987319E-01  0.169521422E+00
   C  0.764139371E+01  0.956631298E-01 -0.594246373E-01
   H -0.397156406E+02  0.596649519E+00 -0.299842944E+01
   H  0.381025615E+02 -0.258959529E+01  0.255084349E+01
     4
 # iter = 68500  time[fs]=68.50000
   C -0.814125771E+01 -0.415883036E-01  0.171597299E+00
   C  0.772670305E+01  0.970192442E-01 -0.602866800E-01
   H -0.401319251E+02  0.603234484E+00 -0.303018389E+01
   H  0.384990165E+02 -0.261673530E+01  0.257790312E+01
     4
 # iter = 69000  time[fs]=69.00000
   C -0.823102479E+01 -0.419783175E-01  0.173674456E+00
   C  0.781206371E+01  0.983763666E-01 -0.611499021E-01
   H -0.405483225E+02  0.609821539E+00 -0.306194828E+01
   H  0.388955885E+02 -0.264388419E+01  0.260497147E+01
     4
 # iter = 69500  time[fs]=69.50000
   C -0.832084241E+01 -0.423687648E-01  0.175752868E+00
   C  0.789747457E+01  0.997344769E-01 -0.620142803E-01
   H -0.409648307E+02  0.616410642E+00 -0.309372243E+01
   H  0.392922752E+02 -0.267104178E+01  0.263204839E+01
     4
 # iter = 70000  time[fs]=70.00000
   C -0.841070946E+01 -0.427596369E-01  0.177832510E+00
   C  0.798293453E+01  0.101093556E+00 -0.628797920E-01
   H -0.413814474E+02  0.623001754E+00 -0.312550613E+01
   H  0.396890744E+02 -0.269820790E+01  0.265913370E+01
     4
 # iter = 70500  time[fs]=70.50000
   C -0.850062489E+01 -0.431509255E-01  0.179913359E+00
   C  0.806844256E+01  0.102453584E+00 -0.637464153E-01
   H -0.417981706E+02  0.629594836E+00 -0.315729920E+01
   H  0.400859839E+02 -0.272538240E+01  0.268622724E+01
     4
 # iter = 71000  time[fs]=71.00000
   C -0.859058767E+01 -0.435426227E-01  0.181995391E+00
   C  0.815399762E+01  0.103814544E+00 -0.646141287E-01
   H -0.422149979E+02  0.636189848E+00 -0.318910145E+01
   H  0.404830014E+02 -0.275256509E+01  0.271332885E+01
     4
 # iter = 71500  time[fs]=71.50000
   C -0.868059681E+01 -0.439347206E-01  0.184078583E+00
   C  0.823959873E+01  0.105176418E+00 -0.654829116E-01
   H -0.426319276E+02  0.642786756E+00 -0.322091272E+01
   H  0.408801248E+02 -0.277975584E+01  0.274043838E+01
     4
 # iter = 72000  time[fs]=72.00000
   C -0.877065135E+01 -0.443272115E-01  0.186162914E+00
   C  0.832524493E+01  0.106539188E+00 -0.663527438E-01
   H -0.430489575E+02  0.649385522E+00 -0.325273282E+01
   H  0.412773522E+02 -0.280695448E+01  0.276755568E+01
     4
 # iter = 72500  time[fs]=72.50000
   C -0.886075036E+01 -0.447200881E-01  0.188248361E+00
   C  0.841093530E+01  0.107902837E+00 -0.672236056E-01
   H -0.434660857E+02  0.655986112E+00 -0.328456160E+01
   H  0.416746816E+02 -0.283416088E+01  0.279468060E+01
     4
 # iter = 73000  time[fs]=73.00000
   C -0.895089292E+01 -0.451133432E-01  0.190334905E+00
   C  0.849666892E+01  0.109267350E+00 -0.680954780E-01
   H -0.438833104E+02  0.662588492E+00 -0.331639888E+01
   H  0.420721110E+02 -0.286137488E+01  0.282181301E+01
     4
 # iter = 73500  time[fs]=73.50000
   C -0.904107816E+01 -0.455069699E-01  0.192422524E+00
   C  0.858244494E+01  0.110632709E+00 -0.689683425E-01
   H -0.443006298E+02  0.669192630E+00 -0.334824452E+01
   H  0.424696386E+02 -0.288859635E+01  0.284895277E+01
     4
 # iter = 74000  time[fs]=74.00000
   C -0.913130523E+01 -0.459009612E-01  0.194511199E+00
   C  0.866826249E+01  0.111998901E+00 -0.698421809E-01
   H -0.447180421E+02  0.675798493E+00 -0.338009835E+01
   H  0.428672626E+02 -0.291582514E+01  0.287609973E+01
     4
 # iter = 74500  time[fs]=74.50000
   C -0.922157330E+01 -0.462953106E-01  0.196600912E+00
   C  0.875412076E+01  0.113365909E+00 -0.707169758E-01
   H -0.451355456E+02  0.682406050E+00 -0.341196023E+01
   H  0.432649811E+02 -0.294306114E+01  0.290325378E+01
     4
 # iter = 75000  time[fs]=75.00000
   C -0.931188156E+01 -0.466900116E-01  0.198691642E+00
   C  0.884001895E+01  0.114733720E+00 -0.715927100E-01
   H -0.455531386E+02  0.689015271E+00 -0.344383002E+01
   H  0.436627925E+02 -0.297030420E+01  0.293041479E+01
     4
 # iter = 75500  time[fs]=75.50000
   C -0.940222924E+01 -0.470850580E-01  0.200783373E+00
   C  0.892595627E+01  0.116102318E+00 -0.724693668E-01
   H -0.459708195E+02  0.695626127E+00 -0.347570757E+01
   H  0.440606951E+02 -0.299755421E+01  0.295758263E+01
     4
 # iter = 76000  time[fs]=76.00000
   C -0.949261557E+01 -0.474804437E-01  0.202876086E+00
   C  0.901193198E+01  0.117471690E+00 -0.733469301E-01
   H -0.463885868E+02  0.702238588E+00 -0.350759274E+01
   H  0.444586872E+02 -0.302481104E+01  0.298475718E+01
     4
 # iter = 76500  time[fs]=76.50000
   C -0.958303981E+01 -0.478761626E-01  0.204969765E+00
   C  0.909794534E+01  0.118841822E+00 -0.742253840E-01
   H -0.468064388E+02  0.708852626E+00 -0.353948541E+01
   H  0.448567674E+02 -0.305207457E+01  0.301193833E+01
     4
 # iter = 77000  time[fs]=77.00000
   C -0.967350126E+01 -0.482722090E-01  0.207064391E+00
   C  0.918399563E+01  0.120212702E+00 -0.751047131E-01
   H -0.472243741E+02  0.715468215E+00 -0.357138544E+01
   H  0.452549339E+02 -0.307934469E+01  0.303912597E+01
     4
 # iter = 77500  time[fs]=77.50000
   C -0.976399921E+01 -0.486685773E-01  0.209159950E+00
   C  0.927008218E+01  0.121584316E+00 -0.759849024E-01
   H -0.476423912E+02  0.722085328E+00 -0.360329270E+01
   H  0.456531854E+02 -0.310662129E+01  0.306631997E+01
     4
 # iter = 78000  time[fs]=78.00000
   C -0.985453299E+01 -0.490652619E-01  0.211256425E+00
   C  0.935620429E+01  0.122956652E+00 -0.768659373E-01
   H -0.480604888E+02  0.728703939E+00 -0.363520707E+01
   H  0.460515204E+02 -0.313390424E+01  0.309352024E+01
     4
 # iter = 78500  time[fs]=78.50000
   C -0.994510193E+01 -0.494622574E-01  0.213353800E+00
   C  0.944236131E+01  0.124329698E+00 -0.777478035E-01
   H -0.484786654E+02  0.735324022E+00 -0.366712843E+01
   H  0.464499374E+02 -0.316119346E+01  0.312072667E+01
     4
 # iter = 79000  time[fs]=79.00000
   C -0.100357054E+02 -0.498595586E-01  0.215452061E+00
   C  0.952855262E+01  0.125703441E+00 -0.786304872E-01
   H -0.488969197E+02  0.741945553E+00 -0.369905666E+01
   H  0.468484351E+02 -0.318848883E+01  0.314793916E+01
     4
 # iter = 79500  time[fs]=79.50000
   C -0.101263428E+02 -0.502571605E-01  0.217551192E+00
   C  0.961477758E+01  0.127077870E+00 -0.795139747E-01
   H -0.493152503E+02  0.748568508E+00 -0.373099165E+01
   H  0.472470120E+02 -0.321579024E+01  0.317515760E+01
     4
 # iter = 80000  time[fs]=80.00000
   C -0.102170134E+02 -0.506550580E-01  0.219651179E+00
   C  0.970103559E+01  0.128452974E+00 -0.803982528E-01
   H -0.497336560E+02  0.755192864E+00 -0.376293328E+01
   H  0.476456669E+02 -0.324309761E+01  0.320238190E+01
