     4
 # iter = 25000  time[fs]=25.00000
   C -0.100914742E+01  0.226949666E-01 -0.416227243E-01
   C  0.101870987E+01 -0.332571804E-02  0.656767073E-01
   H -0.531686054E+01  0.226423004E+00  0.716503560E+00
   H  0.534517732E+01 -0.153598233E+00 -0.757273068E+00
     4
 # iter = 25500  time[fs]=25.50000
   C -0.105920608E+01  0.204084530E-01 -0.461630224E-01
   C  0.106232644E+01 -0.425628698E-02  0.707556222E-01
   H -0.565660249E+01  0.232102375E+00  0.755844971E+00
   H  0.565383971E+01 -0.172265134E+00 -0.815009810E+00
     4
 # iter = 26000  time[fs]=26.00000
   C -0.111198758E+01  0.168538640E-01 -0.520834297E-01
   C  0.110669356E+01 -0.589338434E-02  0.752447840E-01
   H -0.600433406E+01  0.232487319E+00  0.790170869E+00
   H  0.595967498E+01 -0.196426459E+00 -0.878576788E+00
     4
 # iter = 26500  time[fs]=26.50000
   C -0.116355520E+01  0.158446731E-01 -0.555616063E-01
   C  0.115374821E+01 -0.617433886E-02  0.811978417E-01
   H -0.634367684E+01  0.243650675E+00  0.835522410E+00
   H  0.627851127E+01 -0.209977951E+00 -0.931836193E+00
     4
 # iter = 27000  time[fs]=27.00000
   C -0.121361184E+01  0.175678957E-01 -0.564026870E-01
   C  0.120348334E+01 -0.499533563E-02  0.887104584E-01
   H -0.667359314E+01  0.266378149E+00  0.892659255E+00
   H  0.661090995E+01 -0.212115629E+00 -0.973954373E+00
     4
 # iter = 27500  time[fs]=27.50000
   C -0.126489959E+01  0.191833157E-01 -0.574399303E-01
   C  0.125426995E+01 -0.388765487E-02  0.962439976E-01
   H -0.700584945E+01  0.288693800E+00  0.949583872E+00
   H  0.694468818E+01 -0.214808044E+00 -0.101687350E+01
     4
 # iter = 28000  time[fs]=28.00000
   C -0.131933948E+01  0.186811772E-01 -0.606767479E-01
   C  0.130493634E+01 -0.393459170E-02  0.102708472E+00
   H -0.734873974E+01  0.302122869E+00  0.997802892E+00
   H  0.727119420E+01 -0.226522325E+00 -0.106903793E+01
     4
 # iter = 28500  time[fs]=28.50000
   C -0.137603987E+01  0.168721482E-01 -0.652965847E-01
   C  0.135584039E+01 -0.469698514E-02  0.108536914E+00
   H -0.769868805E+01  0.310081135E+00  0.104071562E+01
   H  0.759370086E+01 -0.243828916E+00 -0.112699872E+01
     4
 # iter = 29000  time[fs]=29.00000
   C -0.143293682E+01  0.157465414E-01 -0.693037093E-01
   C  0.140798382E+01 -0.509900304E-02  0.114799555E+00
   H -0.804716390E+01  0.320957708E+00  0.108669661E+01
   H  0.792047776E+01 -0.258323092E+00 -0.118233443E+01
     4
 # iter = 29500  time[fs]=29.50000
   C -0.148927715E+01  0.159912518E-01 -0.720063190E-01
   C  0.146167208E+01 -0.476861149E-02  0.121863337E+00
   H -0.839115017E+01  0.337646720E+00  0.113862737E+01
   H  0.825431007E+01 -0.267099969E+00 -0.123212530E+01
     4
 # iter = 30000  time[fs]=30.00000
   C -0.154596611E+01  0.166414276E-01 -0.743648400E-01
   C  0.151632581E+01 -0.422560636E-02  0.129203834E+00
   H -0.873460938E+01  0.356078768E+00  0.119242752E+01
   H  0.859102615E+01 -0.274223844E+00 -0.128042223E+01
     4
 # iter = 30500  time[fs]=30.50000
   C -0.160402588E+01  0.166210028E-01 -0.774513088E-01
   C  0.157131122E+01 -0.405000144E-02  0.136236814E+00
   H -0.908198546E+01  0.371715686E+00  0.124354920E+01
   H  0.892599619E+01 -0.284228956E+00 -0.133174748E+01
     4
 # iter = 31000  time[fs]=31.00000
   C -0.166342278E+01  0.159145768E-01 -0.812774212E-01
   C  0.162657165E+01 -0.424941932E-02  0.142950788E+00
   H -0.943326038E+01  0.384491123E+00  0.129191739E+01
   H  0.925907541E+01 -0.297175503E+00 -0.138615065E+01
     4
 # iter = 31500  time[fs]=31.50000
   C -0.172341087E+01  0.152233912E-01 -0.851385254E-01
   C  0.168244142E+01 -0.444474795E-02  0.149721319E+00
   H -0.978540321E+01  0.397360143E+00  0.134047936E+01
   H  0.959315132E+01 -0.310100910E+00 -0.144065972E+01
     4
 # iter = 32000  time[fs]=32.00000
   C -0.178351479E+01  0.149821012E-01 -0.885968406E-01
   C  0.173911494E+01 -0.440083227E-02  0.156780312E+00
   H -0.101365148E+02  0.412153946E+00  0.139105932E+01
   H  0.992999386E+01 -0.321167778E+00 -0.149342878E+01
     4
 # iter = 32500  time[fs]=32.50000
   C -0.184388207E+01  0.150061622E-01 -0.918340525E-01
   C  0.179645609E+01 -0.421679712E-02  0.164025662E+00
   H -0.104873134E+02  0.428093259E+00  0.144287173E+01
   H  0.102687667E+02 -0.331151413E+00 -0.154522541E+01
     4
 # iter = 33000  time[fs]=33.00000
   C -0.190485921E+01  0.149153154E-01 -0.952277969E-01
   C  0.185422633E+01 -0.409747418E-02  0.171249798E+00
   H -0.108393487E+02  0.443573748E+00  0.149430660E+01
   H  0.106078130E+02 -0.341653159E+00 -0.159764394E+01
     4
 # iter = 33500  time[fs]=33.50000
   C -0.196652673E+01  0.145981459E-01 -0.988870721E-01
   C  0.191233500E+01 -0.410265452E-02  0.178390409E+00
   H -0.111930417E+02  0.458124592E+00  0.154488800E+01
   H  0.109466154E+02 -0.353140461E+00 -0.165114544E+01
     4
 # iter = 34000  time[fs]=34.00000
   C -0.202869424E+01  0.142167037E-01 -0.102647597E+00
   C  0.197084154E+01 -0.414457959E-02  0.185532927E+00
   H -0.115476650E+02  0.472427962E+00  0.159529344E+01
   H  0.112858142E+02 -0.364927336E+00 -0.170503812E+01
     4
 # iter = 34500  time[fs]=34.50000
   C -0.209117728E+01  0.139294466E-01 -0.106348851E+00
   C  0.202980575E+01 -0.413746337E-02  0.192760991E+00
   H -0.119025103E+02  0.487150936E+00  0.164618574E+01
   H  0.116260386E+02 -0.376343199E+00 -0.175864612E+01
     4
 # iter = 35000  time[fs]=35.00000
   C -0.215395461E+01  0.137337006E-01 -0.109991606E+00
   C  0.208920255E+01 -0.408251483E-02  0.200071407E+00
   H -0.122575521E+02  0.502281306E+00  0.169754881E+01
   H  0.119672412E+02 -0.387397462E+00 -0.181197399E+01
     4
 # iter = 35500  time[fs]=35.50000
   C -0.221709494E+01  0.135387474E-01 -0.113664818E+00
   C  0.214896120E+01 -0.402849068E-02  0.207413580E+00
   H -0.126131395E+02  0.517435721E+00  0.174899573E+01
   H  0.123090061E+02 -0.398471165E+00 -0.186539829E+01
     4
 # iter = 36000  time[fs]=36.00000
   C -0.228062739E+01  0.132952009E-01 -0.117416239E+00
   C  0.220903497E+01 -0.400186790E-02  0.214759330E+00
   H -0.129694497E+02  0.532405132E+00  0.180031420E+01
   H  0.126510946E+02 -0.409771130E+00 -0.191912175E+01
     4
 # iter = 36500  time[fs]=36.50000
   C -0.234451167E+01  0.130245877E-01 -0.121222827E+00
   C  0.226941692E+01 -0.399087451E-02  0.222118847E+00
   H -0.133263638E+02  0.547279508E+00  0.185159116E+01
   H  0.129935694E+02 -0.421205153E+00 -0.197304837E+01
     4
 # iter = 37000  time[fs]=37.00000
   C -0.240869259E+01  0.127647520E-01 -0.125045327E+00
   C  0.233011029E+01 -0.397495009E-02  0.229511222E+00
   H -0.136836962E+02  0.562217649E+00  0.190298265E+01
   H  0.133365642E+02 -0.432612314E+00 -0.202701371E+01
     4
 # iter = 37500  time[fs]=37.50000
   C -0.247314478E+01  0.125250008E-01 -0.128873120E+00
   C  0.239110419E+01 -0.394895089E-02  0.236940228E+00
   H -0.140413835E+02  0.577258087E+00  0.195452463E+01
   H  0.136800943E+02 -0.443952197E+00 -0.208097412E+01
     4
 # iter = 38000  time[fs]=38.00000
   C -0.253786762E+01  0.122910440E-01 -0.132719273E+00
   C  0.245237612E+01 -0.392048233E-02  0.244396985E+00
   H -0.143994637E+02  0.592339898E+00  0.200615379E+01
   H  0.140240773E+02 -0.455284039E+00 -0.213498583E+01
     4
 # iter = 38500  time[fs]=38.50000
   C -0.260285954E+01  0.120505893E-01 -0.136594938E+00
   C  0.251390572E+01 -0.389608440E-02  0.251873763E+00
   H -0.147579680E+02  0.607410619E+00  0.205781546E+01
   H  0.143684406E+02 -0.466658739E+00 -0.218909693E+01
     4
 # iter = 39000  time[fs]=39.00000
   C -0.266810720E+01  0.118040856E-01 -0.140498598E+00
   C  0.257568044E+01 -0.387543194E-02  0.259369772E+00
   H -0.151168753E+02  0.622471537E+00  0.210950888E+01
   H  0.147131669E+02 -0.478073518E+00 -0.224330202E+01
     4
 # iter = 39500  time[fs]=39.50000
   C -0.273359253E+01  0.115576017E-01 -0.144423189E+00
   C  0.263769166E+01 -0.385517639E-02  0.266887322E+00
   H -0.154761423E+02  0.637547661E+00  0.216125715E+01
   H  0.150582639E+02 -0.489501961E+00 -0.229757227E+01
     4
 # iter = 40000  time[fs]=40.00000
   C -0.279930141E+01  0.113140227E-01 -0.148364890E+00
   C  0.269992980E+01 -0.383369540E-02  0.274427059E+00
   H -0.158357401E+02  0.652650610E+00  0.221307010E+01
   H  0.154037271E+02 -0.500931147E+00 -0.235189247E+01
     4
 # iter = 40500  time[fs]=40.50000
   C -0.286522474E+01  0.110720045E-01 -0.152324170E+00
   C  0.276238375E+01 -0.381165658E-02  0.281987402E+00
   H -0.161956591E+02  0.667774194E+00  0.226493987E+01
   H  0.157495352E+02 -0.512366057E+00 -0.240626548E+01
     4
 # iter = 41000  time[fs]=41.00000
   C -0.293135472E+01  0.108295399E-01 -0.156302215E+00
   C  0.282504272E+01 -0.379009165E-02  0.289566461E+00
   H -0.165558930E+02  0.682909459E+00  0.231685595E+01
   H  0.160956652E+02 -0.523814519E+00 -0.246069714E+01
     4
 # iter = 41500  time[fs]=41.50000
   C -0.299768261E+01  0.105861915E-01 -0.160298688E+00
   C  0.288789735E+01 -0.376919104E-02  0.297163239E+00
   H -0.169164304E+02  0.698054089E+00  0.236881456E+01
   H  0.164421014E+02 -0.535277787E+00 -0.251518682E+01
     4
 # iter = 42000  time[fs]=42.00000
   C -0.306419919E+01  0.103425878E-01 -0.164312236E+00
   C  0.295093944E+01 -0.374857501E-02  0.304777356E+00
   H -0.172772557E+02  0.713210285E+00  0.242081654E+01
   H  0.167888337E+02 -0.546752659E+00 -0.256972957E+01
     4
 # iter = 42500  time[fs]=42.50000
   C -0.313089590E+01  0.100992036E-01 -0.168341698E+00
   C  0.301416125E+01 -0.372795117E-02  0.312408391E+00
   H -0.176383551E+02  0.728379624E+00  0.247286217E+01
   H  0.171358521E+02 -0.558236622E+00 -0.262432123E+01
     4
 # iter = 43000  time[fs]=43.00000
   C -0.319776521E+01  0.985599238E-02 -0.172386477E+00
   C  0.307755521E+01 -0.370731253E-02  0.320055676E+00
   H -0.179997176E+02  0.743561502E+00  0.252494964E+01
   H  0.174831449E+02 -0.569729398E+00 -0.267895995E+01
     4
 # iter = 43500  time[fs]=43.50000
   C -0.326480021E+01  0.961272400E-02 -0.176446195E+00
   C  0.314111410E+01 -0.368675457E-02  0.327718482E+00
   H -0.183613337E+02  0.758754562E+00  0.257707644E+01
   H  0.178307005E+02 -0.581231514E+00 -0.273364480E+01
     4
 # iter = 44000  time[fs]=44.00000
   C -0.333199429E+01  0.936929484E-02 -0.180520380E+00
   C  0.320483119E+01 -0.366630776E-02  0.335396177E+00
   H -0.187231939E+02  0.773957996E+00  0.262924070E+01
   H  0.181785084E+02 -0.592742993E+00 -0.278837442E+01
     4
 # iter = 44500  time[fs]=44.50000
   C -0.339934107E+01  0.912573478E-02 -0.184608459E+00
   C  0.326870021E+01 -0.364593327E-02  0.343088232E+00
   H -0.190852886E+02  0.789171577E+00  0.268144117E+01
   H  0.185265592E+02 -0.604263323E+00 -0.284314698E+01
     4
 # iter = 45000  time[fs]=45.00000
   C -0.346683454E+01  0.888208784E-02 -0.188709874E+00
   C  0.333271523E+01 -0.362558713E-02  0.350794154E+00
   H -0.194476089E+02  0.804395154E+00  0.273367674E+01
   H  0.188748439E+02 -0.615791956E+00 -0.289796071E+01
     4
 # iter = 45500  time[fs]=45.50000
   C -0.353446904E+01  0.863835486E-02 -0.192824139E+00
   C  0.339687065E+01 -0.360525092E-02  0.358513453E+00
   H -0.198101465E+02  0.819628408E+00  0.278594618E+01
   H  0.192233542E+02 -0.627328549E+00 -0.295281408E+01
     4
 # iter = 46000  time[fs]=46.00000
   C -0.360223927E+01  0.839451284E-02 -0.196950815E+00
   C  0.346116115E+01 -0.358492106E-02  0.366245652E+00
   H -0.201728935E+02  0.834870935E+00  0.283824823E+01
   H  0.195720818E+02 -0.638872881E+00 -0.300770576E+01
     4
 # iter = 46500  time[fs]=46.50000
   C -0.367014019E+01  0.815054483E-02 -0.201089481E+00
   C  0.352558169E+01 -0.356459248E-02  0.373990296E+00
   H -0.205358426E+02  0.850122366E+00  0.289058171E+01
   H  0.199210191E+02 -0.650424724E+00 -0.306263447E+01
     4
 # iter = 47000  time[fs]=47.00000
   C -0.373816701E+01  0.790644600E-02 -0.205239727E+00
   C  0.359012752E+01 -0.354425515E-02  0.381746964E+00
   H -0.208989867E+02  0.865382402E+00  0.294294554E+01
   H  0.202701588E+02 -0.661983816E+00 -0.311759896E+01
     4
 # iter = 47500  time[fs]=47.50000
   C -0.380631522E+01  0.766221551E-02 -0.209401160E+00
   C  0.365479413E+01 -0.352389834E-02  0.389515251E+00
   H -0.212623190E+02  0.880650767E+00  0.299533871E+01
   H  0.206194939E+02 -0.673549897E+00 -0.317259800E+01
     4
 # iter = 48000  time[fs]=48.00000
   C -0.387458050E+01  0.741785075E-02 -0.213573406E+00
   C  0.371957724E+01 -0.350351355E-02  0.397294776E+00
   H -0.216258333E+02  0.895927192E+00  0.304776025E+01
   H  0.209690179E+02 -0.685122727E+00 -0.322763046E+01
     4
 # iter = 48500  time[fs]=48.50000
   C -0.394295879E+01  0.717334757E-02 -0.217756115E+00
   C  0.378447278E+01 -0.348309424E-02  0.405085171E+00
   H -0.219895235E+02  0.911211411E+00  0.310020925E+01
   H  0.213187245E+02 -0.696702088E+00 -0.328269525E+01
     4
 # iter = 49000  time[fs]=49.00000
   C -0.401144619E+01  0.692870232E-02 -0.221948948E+00
   C  0.384947690E+01 -0.346263467E-02  0.412886087E+00
   H -0.223533838E+02  0.926503172E+00  0.315268480E+01
   H  0.216686079E+02 -0.708287772E+00 -0.333779135E+01
     4
 # iter = 49500  time[fs]=49.50000
   C -0.408003903E+01  0.668391250E-02 -0.226151586E+00
   C  0.391458592E+01 -0.344212937E-02  0.420697191E+00
   H -0.227174088E+02  0.941802235E+00  0.320518607E+01
   H  0.220186624E+02 -0.719879580E+00 -0.339291778E+01
     4
 # iter = 50000  time[fs]=50.00000
   C -0.414873380E+01  0.643897637E-02 -0.230363721E+00
   C  0.397979635E+01 -0.342157334E-02  0.428518163E+00
   H -0.230815932E+02  0.957108374E+00  0.325771227E+01
   H  0.223688825E+02 -0.731477319E+00 -0.344807360E+01
     4
 # iter = 50500  time[fs]=50.50000
   C -0.421752715E+01  0.619389251E-02 -0.234585060E+00
   C  0.404510485E+01 -0.340096210E-02  0.436348702E+00
   H -0.234459320E+02  0.972421372E+00  0.331026262E+01
   H  0.227192632E+02 -0.743080805E+00 -0.350325791E+01
     4
 # iter = 51000  time[fs]=51.00000
   C -0.428641590E+01  0.594865974E-02 -0.238815323E+00
   C  0.411050826E+01 -0.338029179E-02  0.444188516E+00
   H -0.238104206E+02  0.987741024E+00  0.336283639E+01
   H  0.230697995E+02 -0.754689866E+00 -0.355846986E+01
     4
 # iter = 51500  time[fs]=51.50000
   C -0.435539701E+01  0.570327716E-02 -0.243054243E+00
   C  0.417600356E+01 -0.335955894E-02  0.452037328E+00
   H -0.241750544E+02  0.100306713E+01  0.341543290E+01
   H  0.234204867E+02 -0.766304333E+00 -0.361370864E+01
     4
 # iter = 52000  time[fs]=52.00000
   C -0.442446759E+01  0.545774421E-02 -0.247301563E+00
   C  0.424158785E+01 -0.333876050E-02  0.459894872E+00
   H -0.245398291E+02  0.101839950E+01  0.346805146E+01
   H  0.237713204E+02 -0.777924049E+00 -0.366897346E+01
     4
 # iter = 52500  time[fs]=52.50000
   C -0.449362486E+01  0.521206057E-02 -0.251557038E+00
   C  0.430725838E+01 -0.331789376E-02  0.467760893E+00
   H -0.249047404E+02  0.103373796E+01  0.352069145E+01
   H  0.241222962E+02 -0.789548860E+00 -0.372426357E+01
     4
 # iter = 53000  time[fs]=53.00000
   C -0.456286618E+01  0.496622615E-02 -0.255820434E+00
   C  0.437301252E+01 -0.329695634E-02  0.475635149E+00
   H -0.252697846E+02  0.104908232E+01  0.357335226E+01
   H  0.244734101E+02 -0.801178622E+00 -0.377957826E+01
     4
 # iter = 53500  time[fs]=53.50000
   C -0.463218902E+01  0.472024108E-02 -0.260091524E+00
   C  0.443884775E+01 -0.327594614E-02  0.483517404E+00
   H -0.256349576E+02  0.106443244E+01  0.362603328E+01
   H  0.248246581E+02 -0.812813193E+00 -0.383491685E+01
     4
 # iter = 54000  time[fs]=54.00000
   C -0.470159096E+01  0.447410564E-02 -0.264370092E+00
   C  0.450476167E+01 -0.325486137E-02  0.491407436E+00
   H -0.260002561E+02  0.107978813E+01  0.367873398E+01
   H  0.251760365E+02 -0.824452441E+00 -0.389027867E+01
     4
 # iter = 54500  time[fs]=54.50000
   C -0.477106968E+01  0.422782029E-02 -0.268655933E+00
   C  0.457075195E+01 -0.323370043E-02  0.499305030E+00
   H -0.263656763E+02  0.109514926E+01  0.373145380E+01
   H  0.255275417E+02 -0.836096237E+00 -0.394566309E+01
     4
 # iter = 55000  time[fs]=55.00000
   C -0.484062297E+01  0.398138561E-02 -0.272948846E+00
   C  0.463681640E+01 -0.321246197E-02  0.507209978E+00
   H -0.267312151E+02  0.111051568E+01  0.378419224E+01
   H  0.258791702E+02 -0.847744458E+00 -0.400106951E+01
     4
 # iter = 55500  time[fs]=55.50000
   C -0.491024870E+01  0.373480233E-02 -0.277248641E+00
   C  0.470295291E+01 -0.319114484E-02  0.515122082E+00
   H -0.270968691E+02  0.112588724E+01  0.383694879E+01
   H  0.262309186E+02 -0.859396985E+00 -0.405649735E+01
     4
 # iter = 56000  time[fs]=56.00000
   C -0.497994484E+01  0.348807127E-02 -0.281555134E+00
   C  0.476915943E+01 -0.316974807E-02  0.523041153E+00
   H -0.274626354E+02  0.114126381E+01  0.388972298E+01
   H  0.265827838E+02 -0.871053705E+00 -0.411194604E+01
     4
 # iter = 56500  time[fs]=56.50000
   C -0.504970942E+01  0.324119334E-02 -0.285868148E+00
   C  0.483543403E+01 -0.314827085E-02  0.530967007E+00
   H -0.278285109E+02  0.115664527E+01  0.394251436E+01
   H  0.269347628E+02 -0.882714508E+00 -0.416741505E+01
     4
 # iter = 57000  time[fs]=57.00000
   C -0.511954056E+01  0.299416957E-02 -0.290187515E+00
   C  0.490177483E+01 -0.312671253E-02  0.538899467E+00
   H -0.281944929E+02  0.117203148E+01  0.399532247E+01
   H  0.272868525E+02 -0.894379290E+00 -0.422290387E+01
     4
 # iter = 57500  time[fs]=57.50000
   C -0.518943647E+01  0.274700103E-02 -0.294513069E+00
   C  0.496818004E+01 -0.310507257E-02  0.546838364E+00
   H -0.285605785E+02  0.118742232E+01  0.404814690E+01
   H  0.276390501E+02 -0.906047950E+00 -0.427841198E+01
     4
 # iter = 58000  time[fs]=58.00000
   C -0.525939542E+01  0.249968886E-02 -0.298844655E+00
   C  0.503464794E+01 -0.308335058E-02  0.554783535E+00
   H -0.289267652E+02  0.120281768E+01  0.410098725E+01
   H  0.279913530E+02 -0.917720389E+00 -0.433393892E+01
     4
 # iter = 58500  time[fs]=58.50000
   C -0.532941573E+01  0.225223428E-02 -0.303182120E+00
   C  0.510117686E+01 -0.306154627E-02  0.562734823E+00
   H -0.292930504E+02  0.121821746E+01  0.415384311E+01
   H  0.283437584E+02 -0.929396516E+00 -0.438948422E+01
     4
 # iter = 59000  time[fs]=59.00000
   C -0.539949580E+01  0.200463853E-02 -0.307525319E+00
   C  0.516776522E+01 -0.303965947E-02  0.570692076E+00
   H -0.296594316E+02  0.123362153E+01  0.420671411E+01
   H  0.286962639E+02 -0.941076238E+00 -0.444504743E+01
     4
 # iter = 59500  time[fs]=59.50000
   C -0.546963410E+01  0.175690290E-02 -0.311874110E+00
   C  0.523441149E+01 -0.301769007E-02  0.578655148E+00
   H -0.300259066E+02  0.124902979E+01  0.425959988E+01
   H  0.290488670E+02 -0.952759470E+00 -0.450062814E+01
     4
 # iter = 60000  time[fs]=60.00000
   C -0.553982914E+01  0.150902873E-02 -0.316228359E+00
   C  0.530111417E+01 -0.299563807E-02  0.586623897E+00
   H -0.303924731E+02  0.126444216E+01  0.431250008E+01
   H  0.294015653E+02 -0.964446128E+00 -0.455622591E+01
     4
 # iter = 60500  time[fs]=60.50000
   C -0.561007949E+01  0.126101736E-02 -0.320587934E+00
   C  0.536787186E+01 -0.297350353E-02  0.594598189E+00
   H -0.307591288E+02  0.127985853E+01  0.436541436E+01
   H  0.297543567E+02 -0.976136130E+00 -0.461184036E+01
     4
 # iter = 61000  time[fs]=61.00000
   C -0.568038377E+01  0.101287018E-02 -0.324952709E+00
   C  0.543468318E+01 -0.295128659E-02  0.602577892E+00
   H -0.311258717E+02  0.129527880E+01  0.441834240E+01
   H  0.301072388E+02 -0.987829399E+00 -0.466747110E+01
     4
 # iter = 61500  time[fs]=61.50000
   C -0.575074067E+01  0.764588598E-03 -0.329322562E+00
   C  0.550154681E+01 -0.292898744E-02  0.610562880E+00
   H -0.314926998E+02  0.131070289E+01  0.447128387E+01
   H  0.304602096E+02 -0.999525859E+00 -0.472311775E+01
     4
 # iter = 62000  time[fs]=62.00000
   C -0.582114888E+01  0.516174022E-03 -0.333697375E+00
   C  0.556846147E+01 -0.290660634E-02  0.618553029E+00
   H -0.318596110E+02  0.132613071E+01  0.452423848E+01
   H  0.308132671E+02 -0.101122544E+01 -0.477877996E+01
     4
 # iter = 62500  time[fs]=62.50000
   C -0.589160720E+01  0.267627884E-03 -0.338077035E+00
   C  0.563542595E+01 -0.288414358E-02  0.626548222E+00
   H -0.322266035E+02  0.134156218E+01  0.457720592E+01
   H  0.311664092E+02 -0.102292806E+01 -0.483445738E+01
     4
 # iter = 63000  time[fs]=63.00000
   C -0.596211441E+01  0.189516217E-04 -0.342461430E+00
   C  0.570243905E+01 -0.286159953E-02  0.634548345E+00
   H -0.325936754E+02  0.135699721E+01  0.463018592E+01
   H  0.315196341E+02 -0.103463367E+01 -0.489014967E+01
     4
 # iter = 63500  time[fs]=63.50000
   C -0.603266938E+01 -0.229853322E-03 -0.346850456E+00
   C  0.576949963E+01 -0.283897456E-02  0.642553286E+00
   H -0.329608250E+02  0.137243573E+01  0.468317820E+01
   H  0.318729400E+02 -0.104634219E+01 -0.494585650E+01
     4
 # iter = 64000  time[fs]=64.00000
   C -0.610327098E+01 -0.478785500E-03 -0.351244008E+00
   C  0.583660659E+01 -0.281626910E-02  0.650562939E+00
   H -0.333280506E+02  0.138787767E+01  0.473618248E+01
   H  0.322263250E+02 -0.105805356E+01 -0.500157757E+01
     4
 # iter = 64500  time[fs]=64.50000
   C -0.617391816E+01 -0.727843465E-03 -0.355641988E+00
   C  0.590375885E+01 -0.279348361E-02  0.658577201E+00
   H -0.336953504E+02  0.140332294E+01  0.478919852E+01
   H  0.325797874E+02 -0.106976772E+01 -0.505731256E+01
     4
 # iter = 65000  time[fs]=65.00000
   C -0.624460986E+01 -0.977025773E-03 -0.360044299E+00
   C  0.597095538E+01 -0.277061858E-02  0.666595972E+00
   H -0.340627229E+02  0.141877147E+01  0.484222605E+01
   H  0.329333256E+02 -0.108148461E+01 -0.511306118E+01
     4
 # iter = 65500  time[fs]=65.50000
   C -0.631534509E+01 -0.122633098E-02 -0.364450847E+00
   C  0.603819519E+01 -0.274767453E-02  0.674619154E+00
   H -0.344301666E+02  0.143422321E+01  0.489526485E+01
   H  0.332869380E+02 -0.109320417E+01 -0.516882314E+01
     4
 # iter = 66000  time[fs]=66.00000
   C -0.638612288E+01 -0.147575765E-02 -0.368861543E+00
   C  0.610547731E+01 -0.272465198E-02  0.682646654E+00
   H -0.347976799E+02  0.144967808E+01  0.494831467E+01
   H  0.336406229E+02 -0.110492634E+01 -0.522459818E+01
     4
 # iter = 66500  time[fs]=66.50000
   C -0.645694228E+01 -0.172530435E-02 -0.373276298E+00
   C  0.617280081E+01 -0.270155151E-02  0.690678380E+00
   H -0.351652613E+02  0.146513601E+01  0.500137528E+01
   H  0.339943789E+02 -0.111665108E+01 -0.528038601E+01
     4
 # iter = 67000  time[fs]=67.00000
   C -0.652780240E+01 -0.197496967E-02 -0.377695028E+00
   C  0.624016478E+01 -0.267837367E-02  0.698714245E+00
   H -0.355329096E+02  0.148059695E+01  0.505444647E+01
   H  0.343482045E+02 -0.112837833E+01 -0.533618639E+01
     4
 # iter = 67500  time[fs]=67.50000
   C -0.659870234E+01 -0.222475218E-02 -0.382117650E+00
   C  0.630756835E+01 -0.265511908E-02  0.706754163E+00
   H -0.359006232E+02  0.149606083E+01  0.510752802E+01
   H  0.347020982E+02 -0.114010803E+01 -0.539199905E+01
     4
 # iter = 68000  time[fs]=68.00000
   C -0.666964126E+01 -0.247465049E-02 -0.386544086E+00
   C  0.637501067E+01 -0.263178833E-02  0.714798050E+00
   H -0.362684009E+02  0.151152759E+01  0.516061972E+01
   H  0.350560588E+02 -0.115184014E+01 -0.544782375E+01
     4
 # iter = 68500  time[fs]=68.50000
   C -0.674061834E+01 -0.272466320E-02 -0.390974256E+00
   C  0.644249091E+01 -0.260838204E-02  0.722845828E+00
   H -0.366362413E+02  0.152699718E+01  0.521372138E+01
   H  0.354100848E+02 -0.116357461E+01 -0.550366025E+01
     4
 # iter = 69000  time[fs]=69.00000
   C -0.681163277E+01 -0.297478893E-02 -0.395408087E+00
   C  0.651000830E+01 -0.258490085E-02  0.730897417E+00
   H -0.370041433E+02  0.154246954E+01  0.526683279E+01
   H  0.357641750E+02 -0.117531140E+01 -0.555950833E+01
     4
 # iter = 69500  time[fs]=69.50000
   C -0.688268377E+01 -0.322502632E-02 -0.399845505E+00
   C  0.657756204E+01 -0.256134538E-02  0.738952742E+00
   H -0.373721056E+02  0.155794462E+01  0.531995377E+01
   H  0.361183280E+02 -0.118705046E+01 -0.561536776E+01
     4
 # iter = 70000  time[fs]=70.00000
   C -0.695377060E+01 -0.347537402E-02 -0.404286439E+00
   C  0.664515140E+01 -0.253771628E-02  0.747011729E+00
   H -0.377401271E+02  0.157342237E+01  0.537308413E+01
   H  0.364725428E+02 -0.119879174E+01 -0.567123832E+01
     4
 # iter = 70500  time[fs]=70.50000
   C -0.702489252E+01 -0.372583068E-02 -0.408730822E+00
   C  0.671277564E+01 -0.251401421E-02  0.755074307E+00
   H -0.381082065E+02  0.158890273E+01  0.542622370E+01
   H  0.368268180E+02 -0.121053520E+01 -0.572711980E+01
     4
 # iter = 71000  time[fs]=71.00000
   C -0.709604883E+01 -0.397639498E-02 -0.413178585E+00
   C  0.678043407E+01 -0.249023981E-02  0.763140406E+00
   H -0.384763428E+02  0.160438565E+01  0.547937229E+01
   H  0.371811525E+02 -0.122228081E+01 -0.578301199E+01
     4
 # iter = 71500  time[fs]=71.50000
   C -0.716723885E+01 -0.422706562E-02 -0.417629665E+00
   C  0.684812600E+01 -0.246639375E-02  0.771209959E+00
   H -0.388445349E+02  0.161987110E+01  0.553252975E+01
   H  0.375355452E+02 -0.123402851E+01 -0.583891470E+01
     4
 # iter = 72000  time[fs]=72.00000
   C -0.723846190E+01 -0.447784129E-02 -0.422083998E+00
   C  0.691585077E+01 -0.244247669E-02  0.779282901E+00
   H -0.392127818E+02  0.163535901E+01  0.558569590E+01
   H  0.378899951E+02 -0.124577828E+01 -0.589482773E+01
     4
 # iter = 72500  time[fs]=72.50000
   C -0.730971733E+01 -0.472872071E-02 -0.426541522E+00
   C  0.698360774E+01 -0.241848929E-02  0.787359168E+00
   H -0.395810824E+02  0.165084934E+01  0.563887059E+01
   H  0.382445010E+02 -0.125753007E+01 -0.595075089E+01
     4
 # iter = 73000  time[fs]=73.00000
   C -0.738100452E+01 -0.497970263E-02 -0.431002179E+00
   C  0.705139627E+01 -0.239443221E-02  0.795438697E+00
   H -0.399494357E+02  0.166634206E+01  0.569205366E+01
   H  0.385990619E+02 -0.126928384E+01 -0.600668399E+01
     4
 # iter = 73500  time[fs]=73.50000
   C -0.745232286E+01 -0.523078579E-02 -0.435465910E+00
   C  0.711921576E+01 -0.237030613E-02  0.803521429E+00
   H -0.403178408E+02  0.168183711E+01  0.574524495E+01
   H  0.389536768E+02 -0.128103957E+01 -0.606262687E+01
     4
 # iter = 74000  time[fs]=74.00000
   C -0.752367175E+01 -0.548196896E-02 -0.439932659E+00
   C  0.718706562E+01 -0.234611169E-02  0.811607305E+00
   H -0.406862968E+02  0.169733446E+01  0.579844434E+01
   H  0.393083447E+02 -0.129279721E+01 -0.611857934E+01
     4
 # iter = 74500  time[fs]=74.50000
   C -0.759505062E+01 -0.573325093E-02 -0.444402371E+00
   C  0.725494528E+01 -0.232184958E-02  0.819696267E+00
   H -0.410548027E+02  0.171283407E+01  0.585165166E+01
   H  0.396630648E+02 -0.130455674E+01 -0.617454123E+01
     4
 # iter = 75000  time[fs]=75.00000
   C -0.766645890E+01 -0.598463050E-02 -0.448874993E+00
   C  0.732285417E+01 -0.229752044E-02  0.827788261E+00
   H -0.414233576E+02  0.172833589E+01  0.590486677E+01
   H  0.400178360E+02 -0.131631811E+01 -0.623051239E+01
     4
 # iter = 75500  time[fs]=75.50000
   C -0.773789605E+01 -0.623610648E-02 -0.453350472E+00
   C  0.739079176E+01 -0.227312494E-02  0.835883232E+00
   H -0.417919607E+02  0.174383988E+01  0.595808956E+01
   H  0.403726574E+02 -0.132808130E+01 -0.628649264E+01
     4
 # iter = 76000  time[fs]=76.00000
   C -0.780936154E+01 -0.648767771E-02 -0.457828758E+00
   C  0.745875751E+01 -0.224866373E-02  0.843981128E+00
   H -0.421606111E+02  0.175934602E+01  0.601131987E+01
   H  0.407275282E+02 -0.133984627E+01 -0.634248184E+01
     4
 # iter = 76500  time[fs]=76.50000
   C -0.788085484E+01 -0.673934302E-02 -0.462309802E+00
   C  0.752675092E+01 -0.222413746E-02  0.852081897E+00
   H -0.425293080E+02  0.177485425E+01  0.606455758E+01
   H  0.410824476E+02 -0.135161300E+01 -0.639847982E+01
     4
 # iter = 77000  time[fs]=77.00000
   C -0.795237547E+01 -0.699110130E-02 -0.466793555E+00
   C  0.759477148E+01 -0.219954679E-02  0.860185490E+00
   H -0.428980506E+02  0.179036456E+01  0.611780257E+01
   H  0.414374147E+02 -0.136338145E+01 -0.645448645E+01
     4
 # iter = 77500  time[fs]=77.50000
   C -0.802392292E+01 -0.724295141E-02 -0.471279972E+00
   C  0.766281870E+01 -0.217489236E-02  0.868291857E+00
   H -0.432668382E+02  0.180587689E+01  0.617105472E+01
   H  0.417924286E+02 -0.137515160E+01 -0.651050157E+01
     4
 # iter = 78000  time[fs]=78.00000
   C -0.809549671E+01 -0.749489226E-02 -0.475769005E+00
   C  0.773089211E+01 -0.215017480E-02  0.876400951E+00
   H -0.436356699E+02  0.182139122E+01  0.622431389E+01
   H  0.421474886E+02 -0.138692341E+01 -0.656652505E+01
     4
 # iter = 78500  time[fs]=78.50000
   C -0.816709640E+01 -0.774692276E-02 -0.480260611E+00
   C  0.779899125E+01 -0.212539477E-02  0.884512727E+00
   H -0.440045450E+02  0.183690752E+01  0.627757999E+01
   H  0.425025939E+02 -0.139869686E+01 -0.662255674E+01
     4
 # iter = 79000  time[fs]=79.00000
   C -0.823872152E+01 -0.799904183E-02 -0.484754746E+00
   C  0.786711566E+01 -0.210055288E-02  0.892627138E+00
   H -0.443734629E+02  0.185242575E+01  0.633085289E+01
   H  0.428577438E+02 -0.141047192E+01 -0.667859652E+01
     4
 # iter = 79500  time[fs]=79.50000
   C -0.831037163E+01 -0.825124842E-02 -0.489251369E+00
   C  0.793526492E+01 -0.207564977E-02  0.900744141E+00
   H -0.447424227E+02  0.186794588E+01  0.638413248E+01
   H  0.432129376E+02 -0.142224857E+01 -0.673464425E+01
     4
 # iter = 80000  time[fs]=80.00000
   C -0.838204630E+01 -0.850354149E-02 -0.493750437E+00
   C  0.800343859E+01 -0.205068605E-02  0.908863693E+00
   H -0.451114239E+02  0.188346788E+01  0.643741866E+01
   H  0.435681744E+02 -0.143402677E+01 -0.679069979E+01
