     4
 # iter = 25000  time[fs]=25.00000
   C -0.979538726E+00  0.427235840E-01  0.550569021E-01
   C  0.101022027E+01  0.451560768E-02  0.374259055E-01
   H -0.527277714E+01  0.481721644E+00 -0.447501200E+00
   H  0.531419251E+01 -0.509021670E+00 -0.322482363E+00
     4
 # iter = 25500  time[fs]=25.50000
   C -0.102573631E+01  0.412472881E-01  0.571266182E-01
   C  0.105144228E+01  0.510539549E-02  0.382694044E-01
   H -0.561334958E+01  0.503642914E+00 -0.485082640E+00
   H  0.562650223E+01 -0.548767568E+00 -0.352017630E+00
     4
 # iter = 26000  time[fs]=26.00000
   C -0.107589748E+01  0.388180864E-01  0.582774266E-01
   C  0.109468536E+01  0.471064157E-02  0.381651412E-01
   H -0.596473139E+01  0.520661447E+00 -0.528612875E+00
   H  0.593878408E+01 -0.594508611E+00 -0.387351317E+00
     4
 # iter = 26500  time[fs]=26.50000
   C -0.112683053E+01  0.383790957E-01  0.614527415E-01
   C  0.114254532E+01  0.618073740E-02  0.399537867E-01
   H -0.631020786E+01  0.548801283E+00 -0.561945236E+00
   H  0.626656123E+01 -0.630091199E+00 -0.412351376E+00
     4
 # iter = 27000  time[fs]=27.00000
   C -0.117816202E+01  0.400701095E-01  0.667926648E-01
   C  0.119493389E+01  0.966183611E-02  0.437744372E-01
   H -0.664846638E+01  0.588810404E+00 -0.584231967E+00
   H  0.661012890E+01 -0.654664640E+00 -0.426185901E+00
     4
 # iter = 27500  time[fs]=27.50000
   C -0.123187508E+01  0.416909954E-01  0.720972742E-01
   C  0.124952591E+01  0.130435719E-01  0.475110728E-01
   H -0.699104762E+01  0.628683328E+00 -0.607396765E+00
   H  0.695707102E+01 -0.680153619E+00 -0.440796041E+00
     4
 # iter = 28000  time[fs]=28.00000
   C -0.128932849E+01  0.416843927E-01  0.758090689E-01
   C  0.130463193E+01  0.148332721E-01  0.496664578E-01
   H -0.734605043E+01  0.659919735E+00 -0.639869414E+00
   H  0.729853494E+01 -0.714987865E+00 -0.464625617E+00
     4
 # iter = 28500  time[fs]=28.50000
   C -0.134971829E+01  0.406741711E-01  0.785513654E-01
   C  0.136067947E+01  0.156385532E-01  0.508445064E-01
   H -0.770972418E+01  0.685912063E+00 -0.678194506E+00
   H  0.763762206E+01 -0.755707735E+00 -0.494226898E+00
     4
 # iter = 29000  time[fs]=29.00000
   C -0.141134505E+01  0.401967765E-01  0.818597878E-01
   C  0.141899054E+01  0.169451450E-01  0.525279765E-01
   H -0.807338365E+01  0.715028533E+00 -0.713948073E+00
   H  0.798245391E+01 -0.793883434E+00 -0.521180306E+00
     4
 # iter = 29500  time[fs]=29.50000
   C -0.147353186E+01  0.407814453E-01  0.862626437E-01
   C  0.147993160E+01  0.192673165E-01  0.552287953E-01
   H -0.843387835E+01  0.750145097E+00 -0.744205922E+00
   H  0.833568524E+01 -0.826587584E+00 -0.542567458E+00
     4
 # iter = 30000  time[fs]=30.00000
   C -0.153689243E+01  0.416808241E-01  0.910116039E-01
   C  0.154265299E+01  0.218884874E-01  0.582285604E-01
   H -0.879505656E+01  0.787176579E+00 -0.773011654E+00
   H  0.869302853E+01 -0.857863802E+00 -0.562439973E+00
     4
 # iter = 30500  time[fs]=30.50000
   C -0.160213912E+01  0.420618526E-01  0.952725713E-01
   C  0.160623488E+01  0.240088086E-01  0.607260063E-01
   H -0.916126209E+01  0.821571008E+00 -0.804880710E+00
   H  0.904975129E+01 -0.892227826E+00 -0.585320675E+00
     4
 # iter = 31000  time[fs]=31.00000
   C -0.166917607E+01  0.419116580E-01  0.990315676E-01
   C  0.167055879E+01  0.256181284E-01  0.627098781E-01
   H -0.953238707E+01  0.853249879E+00 -0.839858858E+00
   H  0.940561826E+01 -0.929723748E+00 -0.611259896E+00
     4
 # iter = 31500  time[fs]=31.50000
   C -0.173736390E+01  0.417715762E-01  0.102828784E+00
   C  0.173605019E+01  0.272398221E-01  0.647027004E-01
   H -0.990531972E+01  0.885157459E+00 -0.874972377E+00
   H  0.976343682E+01 -0.967374926E+00 -0.637286505E+00
     4
 # iter = 32000  time[fs]=32.00000
   C -0.180627864E+01  0.419770398E-01  0.106998512E+00
   C  0.180294532E+01  0.291985029E-01  0.670284436E-01
   H -0.102780889E+02  0.919115195E+00 -0.908373475E+00
   H  0.101249053E+02 -0.100333138E+01 -0.661555451E+00
     4
 # iter = 32500  time[fs]=32.50000
   C -0.187598330E+01  0.423849570E-01  0.111396544E+00
   C  0.187102764E+01  0.313574168E-01  0.695498809E-01
   H -0.106513492E+02  0.954334936E+00 -0.940826802E+00
   H  0.104891230E+02 -0.103835700E+01 -0.684835052E+00
     4
 # iter = 33000  time[fs]=33.00000
   C -0.194669968E+01  0.427010445E-01  0.115727509E+00
   C  0.193994229E+01  0.334338850E-01  0.719839947E-01
   H -0.110265933E+02  0.989204333E+00 -0.973923610E+00
   H  0.108543752E+02 -0.107404274E+01 -0.708720279E+00
     4
 # iter = 33500  time[fs]=33.50000
   C -0.201844846E+01  0.428389199E-01  0.119903970E+00
   C  0.200954130E+01  0.353453360E-01  0.742479792E-01
   H -0.114041906E+02  0.102324541E+01 -0.100812277E+01
   H  0.112200919E+02 -0.111084670E+01 -0.733672828E+00
     4
 # iter = 34000  time[fs]=34.00000
   C -0.209104497E+01  0.429236622E-01  0.124049982E+00
   C  0.207988631E+01  0.372127763E-01  0.764626882E-01
   H -0.117833671E+02  0.105713393E+01 -0.104273114E+01
   H  0.115868664E+02 -0.114807444E+01 -0.759001534E+00
     4
 # iter = 34500  time[fs]=34.50000
   C -0.216431268E+01  0.430776339E-01  0.128286921E+00
   C  0.215104159E+01  0.391544606E-01  0.787462900E-01
   H -0.121633719E+02  0.109153113E+01 -0.107707167E+01
   H  0.119552851E+02 -0.118504772E+01 -0.784031112E+00
     4
 # iter = 35000  time[fs]=35.00000
   C -0.223820441E+01  0.432986896E-01  0.132611702E+00
   C  0.222295622E+01  0.411685724E-01  0.810969337E-01
   H -0.125441411E+02  0.112641942E+01 -0.111114754E+01
   H  0.123252617E+02 -0.122176895E+01 -0.808766682E+00
     4
 # iter = 35500  time[fs]=35.50000
   C -0.231274534E+01  0.435166616E-01  0.136953259E+00
   C  0.229551797E+01  0.431876673E-01  0.834471821E-01
   H -0.129259888E+02  0.116141050E+01 -0.114533388E+01
   H  0.126963447E+02 -0.125861278E+01 -0.833585343E+00
     4
 # iter = 36000  time[fs]=36.00000
   C -0.238793256E+01  0.436933590E-01  0.141272546E+00
   C  0.236864921E+01  0.451750388E-01  0.857603676E-01
   H -0.133090604E+02  0.119629081E+01 -0.117983221E+01
   H  0.130682628E+02 -0.129578014E+01 -0.858690306E+00
     4
 # iter = 36500  time[fs]=36.50000
   C -0.246371182E+01  0.438454287E-01  0.145585395E+00
   C  0.244232860E+01  0.471467590E-01  0.880526251E-01
   H -0.136932075E+02  0.123114622E+01 -0.121454557E+01
   H  0.134410491E+02 -0.133317344E+01 -0.883986046E+00
     4
 # iter = 37000  time[fs]=37.00000
   C -0.254001937E+01  0.440021493E-01  0.149920312E+00
   C  0.251655001E+01  0.491310244E-01  0.903522333E-01
   H -0.140782177E+02  0.126613173E+01 -0.124930875E+01
   H  0.138148099E+02 -0.137062681E+01 -0.909308590E+00
     4
 # iter = 37500  time[fs]=37.50000
   C -0.261681632E+01  0.441707556E-01  0.154283797E+00
   C  0.259128888E+01  0.511347562E-01  0.926662087E-01
   H -0.144640028E+02  0.130128237E+01 -0.128407729E+01
   H  0.141895354E+02 -0.140809524E+01 -0.934614704E+00
     4
 # iter = 38000  time[fs]=38.00000
   C -0.269408455E+01  0.443402534E-01  0.158664160E+00
   C  0.266650555E+01  0.531472828E-01  0.949839861E-01
   H -0.148505783E+02  0.133653399E+01 -0.131890666E+01
   H  0.145651199E+02 -0.144563374E+01 -0.959961021E+00
     4
 # iter = 38500  time[fs]=38.50000
   C -0.277180670E+01  0.445012008E-01  0.163051299E+00
   C  0.274216417E+01  0.551594053E-01  0.972964800E-01
   H -0.152379541E+02  0.137183111E+01 -0.135384425E+01
   H  0.149414696E+02 -0.148328930E+01 -0.985396022E+00
     4
 # iter = 39000  time[fs]=39.00000
   C -0.284995760E+01  0.446540109E-01  0.167445000E+00
   C  0.281824039E+01  0.571714026E-01  0.996040874E-01
   H -0.156260899E+02  0.140717224E+01 -0.138888407E+01
   H  0.153185472E+02 -0.152105550E+01 -0.101091469E+01
     4
 # iter = 39500  time[fs]=39.50000
   C -0.292850963E+01  0.448034456E-01  0.171849434E+00
   C  0.289471593E+01  0.591877297E-01  0.101911385E+00
   H -0.160149242E+02  0.144257981E+01 -0.142399675E+01
   H  0.156963422E+02 -0.155890255E+01 -0.103648853E+01
     4
 # iter = 40000  time[fs]=40.00000
   C -0.300743933E+01  0.449518092E-01  0.176266341E+00
   C  0.297157181E+01  0.612104641E-01  0.104220572E+00
   H -0.164044116E+02  0.147806304E+01 -0.145916657E+01
   H  0.160748329E+02 -0.159681438E+01 -0.106210267E+01
     4
 # iter = 40500  time[fs]=40.50000
   C -0.308672804E+01  0.450981389E-01  0.180694226E+00
   C  0.304878746E+01  0.632385278E-01  0.106530695E+00
   H -0.167945266E+02  0.151361349E+01 -0.149439594E+01
   H  0.164539822E+02 -0.163479304E+01 -0.108776029E+01
     4
 # iter = 41000  time[fs]=41.00000
   C -0.316635902E+01  0.452409610E-01  0.185131111E+00
   C  0.312634319E+01  0.652703457E-01  0.108840300E+00
   H -0.171852488E+02  0.154922011E+01 -0.152969025E+01
   H  0.168337523E+02 -0.167284363E+01 -0.111346753E+01
     4
 # iter = 41500  time[fs]=41.50000
   C -0.324631563E+01  0.453800152E-01  0.189576254E+00
   C  0.320422177E+01  0.673055086E-01  0.111149099E+00
   H -0.175765530E+02  0.158487865E+01 -0.156504851E+01
   H  0.172141139E+02 -0.171096482E+01 -0.113922406E+01
     4
 # iter = 42000  time[fs]=42.00000
   C -0.332658153E+01  0.455158652E-01  0.194029767E+00
   C  0.328240791E+01  0.693443997E-01  0.113457595E+00
   H -0.179684113E+02  0.162058945E+01 -0.160046538E+01
   H  0.175950438E+02 -0.174915103E+01 -0.116502519E+01
     4
 # iter = 42500  time[fs]=42.50000
   C -0.340714160E+01  0.456489555E-01  0.198491660E+00
   C  0.336088728E+01  0.713872867E-01  0.115766172E+00
   H -0.183607979E+02  0.165635239E+01 -0.163593639E+01
   H  0.179765200E+02 -0.178739749E+01 -0.119086704E+01
     4
 # iter = 43000  time[fs]=43.00000
   C -0.348798209E+01  0.457793264E-01  0.202961566E+00
   C  0.343964615E+01  0.734340485E-01  0.118074823E+00
   H -0.187536908E+02  0.169216524E+01 -0.167145938E+01
   H  0.183585195E+02 -0.182570182E+01 -0.121674800E+01
     4
 # iter = 43500  time[fs]=43.50000
   C -0.356909031E+01  0.459068755E-01  0.207438991E+00
   C  0.351867153E+01  0.754844279E-01  0.120383402E+00
   H -0.191470701E+02  0.172802513E+01 -0.170703314E+01
   H  0.187410202E+02 -0.186406255E+01 -0.124266739E+01
     4
 # iter = 44000  time[fs]=44.00000
   C -0.365045426E+01  0.460315964E-01  0.211923561E+00
   C  0.359795134E+01  0.775382621E-01  0.122691854E+00
   H -0.195409165E+02  0.176392983E+01 -0.174265603E+01
   H  0.191240016E+02 -0.190247783E+01 -0.126862408E+01
     4
 # iter = 44500  time[fs]=44.50000
   C -0.373206264E+01  0.461535846E-01  0.216415017E+00
   C  0.367747436E+01  0.795954890E-01  0.125000222E+00
   H -0.199352116E+02  0.179987777E+01 -0.177832600E+01
   H  0.195074449E+02 -0.194094541E+01 -0.129461646E+01
     4
 # iter = 45000  time[fs]=45.00000
   C -0.381390481E+01  0.462729445E-01  0.220913131E+00
   C  0.375723009E+01  0.816560579E-01  0.127308557E+00
   H -0.203299376E+02  0.183586753E+01 -0.181404103E+01
   H  0.198913325E+02 -0.197946306E+01 -0.132064296E+01
     4
 # iter = 45500  time[fs]=45.50000
   C -0.389597082E+01  0.463897458E-01  0.225417652E+00
   C  0.383720862E+01  0.837198875E-01  0.129616877E+00
   H -0.207250781E+02  0.187189759E+01 -0.184979941E+01
   H  0.202756476E+02 -0.201802888E+01 -0.134670227E+01
     4
 # iter = 46000  time[fs]=46.00000
   C -0.397825133E+01  0.465040374E-01  0.229928328E+00
   C  0.391740063E+01  0.857868803E-01  0.131925178E+00
   H -0.211206177E+02  0.190796642E+01 -0.188559959E+01
   H  0.206603743E+02 -0.205664115E+01 -0.137279325E+01
     4
 # iter = 46500  time[fs]=46.50000
   C -0.406073754E+01  0.466158713E-01  0.234444919E+00
   C  0.399779734E+01  0.878569450E-01  0.134233462E+00
   H -0.215165418E+02  0.194407257E+01 -0.192144012E+01
   H  0.210454973E+02 -0.209529826E+01 -0.139891480E+01
     4
 # iter = 47000  time[fs]=47.00000
   C -0.414342117E+01  0.467253071E-01  0.238967211E+00
   C  0.407839048E+01  0.899300011E-01  0.136541737E+00
   H -0.219128364E+02  0.198021473E+01 -0.195731956E+01
   H  0.214310025E+02 -0.213399861E+01 -0.142506584E+01
     4
 # iter = 47500  time[fs]=47.50000
   C -0.422629439E+01  0.468324052E-01  0.243495000E+00
   C  0.415917228E+01  0.920059728E-01  0.138850014E+00
   H -0.223094885E+02  0.201639168E+01 -0.199323655E+01
   H  0.218168763E+02 -0.217274068E+01 -0.145124534E+01
     4
 # iter = 48000  time[fs]=48.00000
   C -0.430934981E+01  0.469372232E-01  0.248028094E+00
   C  0.424013539E+01  0.940847851E-01  0.141158300E+00
   H -0.227064855E+02  0.205260221E+01 -0.202918979E+01
   H  0.222031059E+02 -0.221152303E+01 -0.147745230E+01
     4
 # iter = 48500  time[fs]=48.50000
   C -0.439258047E+01  0.470398153E-01  0.252566306E+00
   C  0.432127284E+01  0.961663634E-01  0.143466600E+00
   H -0.231038156E+02  0.208884521E+01 -0.206517806E+01
   H  0.225896792E+02 -0.225034431E+01 -0.150368582E+01
     4
 # iter = 49000  time[fs]=49.00000
   C -0.447597976E+01  0.471402344E-01  0.257109462E+00
   C  0.440257808E+01  0.982506357E-01  0.145774920E+00
   H -0.235014675E+02  0.212511960E+01 -0.210120021E+01
   H  0.229765846E+02 -0.228920323E+01 -0.152994502E+01
     4
 # iter = 49500  time[fs]=49.50000
   C -0.455954144E+01  0.472385326E-01  0.261657393E+00
   C  0.448404488E+01  0.100337533E+00  0.148083265E+00
   H -0.238994307E+02  0.216142435E+01 -0.213725513E+01
   H  0.233638111E+02 -0.232809856E+01 -0.155622906E+01
     4
 # iter = 50000  time[fs]=50.00000
   C -0.464325959E+01  0.473347608E-01  0.266209941E+00
   C  0.456566735E+01  0.102426987E+00  0.150391640E+00
   H -0.242976948E+02  0.219775849E+01 -0.217334177E+01
   H  0.237513482E+02 -0.236702914E+01 -0.158253714E+01
     4
 # iter = 50500  time[fs]=50.50000
   C -0.472712861E+01  0.474289684E-01  0.270766956E+00
   C  0.464743991E+01  0.104518934E+00  0.152700048E+00
   H -0.246962502E+02  0.223412109E+01 -0.220945913E+01
   H  0.241391860E+02 -0.240599385E+01 -0.160886851E+01
     4
 # iter = 51000  time[fs]=51.00000
   C -0.481114317E+01  0.475212032E-01  0.275328293E+00
   C  0.472935726E+01  0.106613311E+00  0.155008493E+00
   H -0.250950877E+02  0.227051128E+01 -0.224560624E+01
   H  0.245273149E+02 -0.244499163E+01 -0.163522244E+01
     4
 # iter = 51500  time[fs]=51.50000
   C -0.489529821E+01  0.476115119E-01  0.279893816E+00
   C  0.481141435E+01  0.108710058E+00  0.157316980E+00
   H -0.254941985E+02  0.230692820E+01 -0.228178220E+01
   H  0.249157259E+02 -0.248402145E+01 -0.166159824E+01
     4
 # iter = 52000  time[fs]=52.00000
   C -0.497958893E+01  0.476999397E-01  0.284463393E+00
   C  0.489360641E+01  0.110809114E+00  0.159625512E+00
   H -0.258935741E+02  0.234337105E+01 -0.231798614E+01
   H  0.253044103E+02 -0.252308237E+01 -0.168799525E+01
     4
 # iter = 52500  time[fs]=52.50000
   C -0.506401076E+01  0.477865307E-01  0.289036900E+00
   C  0.497592888E+01  0.112910425E+00  0.161934090E+00
   H -0.262932066E+02  0.237983907E+01 -0.235421722E+01
   H  0.256933598E+02 -0.256217344E+01 -0.171441284E+01
     4
 # iter = 53000  time[fs]=53.00000
   C -0.514855935E+01  0.478713274E-01  0.293614216E+00
   C  0.505837744E+01  0.115013933E+00  0.164242719E+00
   H -0.266930882E+02  0.241633150E+01 -0.239047464E+01
   H  0.260825666E+02 -0.260129378E+01 -0.174085041E+01
     4
 # iter = 53500  time[fs]=53.50000
   C -0.523323055E+01  0.479543714E-01  0.298195229E+00
   C  0.514094795E+01  0.117119587E+00  0.166551401E+00
   H -0.270932116E+02  0.245284765E+01 -0.242675765E+01
   H  0.264720231E+02 -0.264044254E+01 -0.176730738E+01
     4
 # iter = 54000  time[fs]=54.00000
   C -0.531802042E+01  0.480357028E-01  0.302779829E+00
   C  0.522363649E+01  0.119227334E+00  0.168860137E+00
   H -0.274935698E+02  0.248938684E+01 -0.246306551E+01
   H  0.268617220E+02 -0.267961892E+01 -0.179378320E+01
     4
 # iter = 54500  time[fs]=54.50000
   C -0.540292517E+01  0.481153607E-01  0.307367911E+00
   C  0.530643930E+01  0.121337125E+00  0.171168929E+00
   H -0.278941561E+02  0.252594843E+01 -0.249939753E+01
   H  0.272516565E+02 -0.271882214E+01 -0.182027733E+01
     4
 # iter = 55000  time[fs]=55.00000
   C -0.548794123E+01  0.481933830E-01  0.311959376E+00
   C  0.538935280E+01  0.123448911E+00  0.173477781E+00
   H -0.282949641E+02  0.256253178E+01 -0.253575303E+01
   H  0.276418199E+02 -0.275805145E+01 -0.184678927E+01
     4
 # iter = 55500  time[fs]=55.50000
   C -0.557306514E+01  0.482698064E-01  0.316554128E+00
   C  0.547237358E+01  0.125562646E+00  0.175786692E+00
   H -0.286959874E+02  0.259913632E+01 -0.257213137E+01
   H  0.280322058E+02 -0.279730613E+01 -0.187331853E+01
     4
 # iter = 56000  time[fs]=56.00000
   C -0.565829364E+01  0.483446666E-01  0.321152074E+00
   C  0.555549836E+01  0.127678285E+00  0.178095665E+00
   H -0.290972204E+02  0.263576146E+01 -0.260853193E+01
   H  0.284228081E+02 -0.283658550E+01 -0.189986465E+01
     4
 # iter = 56500  time[fs]=56.50000
   C -0.574362357E+01  0.484179982E-01  0.325753128E+00
   C  0.563872402E+01  0.129795783E+00  0.180404700E+00
   H -0.294986571E+02  0.267240666E+01 -0.264495413E+01
   H  0.288136209E+02 -0.287588890E+01 -0.192642717E+01
     4
 # iter = 57000  time[fs]=57.00000
   C -0.582905194E+01  0.484898349E-01  0.330357203E+00
   C  0.572204757E+01  0.131915098E+00  0.182713800E+00
   H -0.299002923E+02  0.270907139E+01 -0.268139738E+01
   H  0.292046387E+02 -0.291521570E+01 -0.195300566E+01
     4
 # iter = 57500  time[fs]=57.50000
   C -0.591457587E+01  0.485602092E-01  0.334964220E+00
   C  0.580546615E+01  0.134036190E+00  0.185022965E+00
   H -0.303021206E+02  0.274575514E+01 -0.271786115E+01
   H  0.295958561E+02 -0.295456529E+01 -0.197959972E+01
     4
 # iter = 58000  time[fs]=58.00000
   C -0.600019261E+01  0.486291529E-01  0.339574099E+00
   C  0.588897701E+01  0.136159017E+00  0.187332195E+00
   H -0.307041370E+02  0.278245743E+01 -0.275434491E+01
   H  0.299872677E+02 -0.299393708E+01 -0.200620893E+01
     4
 # iter = 58500  time[fs]=58.50000
   C -0.608589950E+01  0.486966966E-01  0.344186767E+00
   C  0.597257753E+01  0.138283543E+00  0.189641492E+00
   H -0.311063367E+02  0.281917779E+01 -0.279084815E+01
   H  0.303788687E+02 -0.303333051E+01 -0.203283291E+01
     4
 # iter = 59000  time[fs]=59.00000
   C -0.617169403E+01  0.487628701E-01  0.348802150E+00
   C  0.605626519E+01  0.140409729E+00  0.191950857E+00
   H -0.315087149E+02  0.285591576E+01 -0.282737038E+01
   H  0.307706542E+02 -0.307274504E+01 -0.205947130E+01
     4
 # iter = 59500  time[fs]=59.50000
   C -0.625757376E+01  0.488277026E-01  0.353420180E+00
   C  0.614003757E+01  0.142537539E+00  0.194260289E+00
   H -0.319112673E+02  0.289267090E+01 -0.286391114E+01
   H  0.311626195E+02 -0.311218014E+01 -0.208612374E+01
     4
 # iter = 60000  time[fs]=60.00000
   C -0.634353635E+01  0.488912220E-01  0.358040789E+00
   C  0.622389234E+01  0.144666938E+00  0.196569790E+00
   H -0.323139894E+02  0.292944281E+01 -0.290046996E+01
   H  0.315547603E+02 -0.315163531E+01 -0.211278988E+01
     4
 # iter = 60500  time[fs]=60.50000
   C -0.642957958E+01  0.489534557E-01  0.362663914E+00
   C  0.630782728E+01  0.146797892E+00  0.198879360E+00
   H -0.327168771E+02  0.296623108E+01 -0.293704642E+01
   H  0.319470723E+02 -0.319111008E+01 -0.213946940E+01
     4
 # iter = 61000  time[fs]=61.00000
   C -0.651570128E+01  0.490144303E-01  0.367289491E+00
   C  0.639184025E+01  0.148930368E+00  0.201188999E+00
   H -0.331199265E+02  0.300303531E+01 -0.297364010E+01
   H  0.323395511E+02 -0.323060396E+01 -0.216616197E+01
     4
 # iter = 61500  time[fs]=61.50000
   C -0.660189938E+01  0.490741715E-01  0.371917463E+00
   C  0.647592919E+01  0.151064334E+00  0.203498707E+00
   H -0.335231335E+02  0.303985513E+01 -0.301025058E+01
   H  0.327321930E+02 -0.327011651E+01 -0.219286729E+01
     4
 # iter = 62000  time[fs]=62.00000
   C -0.668817189E+01  0.491327044E-01  0.376547770E+00
   C  0.656009211E+01  0.153199758E+00  0.205808485E+00
   H -0.339264945E+02  0.307669018E+01 -0.304687748E+01
   H  0.331249940E+02 -0.330964729E+01 -0.221958506E+01
     4
 # iter = 62500  time[fs]=62.50000
   C -0.677451691E+01  0.491900533E-01  0.381180357E+00
   C  0.664432711E+01  0.155336612E+00  0.208118332E+00
   H -0.343300059E+02  0.311354010E+01 -0.308352041E+01
   H  0.335179504E+02 -0.334919588E+01 -0.224631499E+01
     4
 # iter = 63000  time[fs]=63.00000
   C -0.686093258E+01  0.492462419E-01  0.385815171E+00
   C  0.672863235E+01  0.157474864E+00  0.210428250E+00
   H -0.347336642E+02  0.315040456E+01 -0.312017902E+01
   H  0.339110586E+02 -0.338876188E+01 -0.227305681E+01
     4
 # iter = 63500  time[fs]=63.50000
   C -0.694741712E+01  0.493012932E-01  0.390452160E+00
   C  0.681300607E+01  0.159614487E+00  0.212738237E+00
   H -0.351374660E+02  0.318728323E+01 -0.315685294E+01
   H  0.343043151E+02 -0.342834489E+01 -0.229981024E+01
     4
 # iter = 64000  time[fs]=64.00000
   C -0.703396883E+01  0.493552295E-01  0.395091273E+00
   C  0.689744656E+01  0.161755454E+00  0.215048294E+00
   H -0.355414081E+02  0.322417579E+01 -0.319354184E+01
   H  0.346977166E+02 -0.346794453E+01 -0.232657504E+01
     4
 # iter = 64500  time[fs]=64.50000
   C -0.712058605E+01  0.494080726E-01  0.399732463E+00
   C  0.698195218E+01  0.163897736E+00  0.217358421E+00
   H -0.359454873E+02  0.326108194E+01 -0.323024539E+01
   H  0.350912598E+02 -0.350756044E+01 -0.235335094E+01
     4
 # iter = 65000  time[fs]=65.00000
   C -0.720726719E+01  0.494598437E-01  0.404375682E+00
   C  0.706652135E+01  0.166041309E+00  0.219668618E+00
   H -0.363497006E+02  0.329800138E+01 -0.326696326E+01
   H  0.354849417E+02 -0.354719225E+01 -0.238013770E+01
     4
 # iter = 65500  time[fs]=65.50000
   C -0.729401072E+01  0.495105633E-01  0.409020886E+00
   C  0.715115254E+01  0.168186147E+00  0.221978884E+00
   H -0.367540451E+02  0.333493383E+01 -0.330369515E+01
   H  0.358787591E+02 -0.358683963E+01 -0.240693510E+01
     4
 # iter = 66000  time[fs]=66.00000
   C -0.738081516E+01  0.495602514E-01  0.413668031E+00
   C  0.723584427E+01  0.170332226E+00  0.224289220E+00
   H -0.371585179E+02  0.337187900E+01 -0.334044076E+01
   H  0.362727091E+02 -0.362650225E+01 -0.243374290E+01
     4
 # iter = 66500  time[fs]=66.50000
   C -0.746767907E+01  0.496089275E-01  0.418317074E+00
   C  0.732059513E+01  0.172479520E+00  0.226599624E+00
   H -0.375631162E+02  0.340883663E+01 -0.337719980E+01
   H  0.366667888E+02 -0.366617977E+01 -0.246056089E+01
     4
 # iter = 67000  time[fs]=67.00000
   C -0.755460108E+01  0.496566106E-01  0.422967974E+00
   C  0.740540373E+01  0.174628008E+00  0.228910098E+00
   H -0.379678374E+02  0.344580646E+01 -0.341397198E+01
   H  0.370609957E+02 -0.370587190E+01 -0.248738884E+01
     4
 # iter = 67500  time[fs]=67.50000
   C -0.764157984E+01  0.497033192E-01  0.427620692E+00
   C  0.749026875E+01  0.176777666E+00  0.231220641E+00
   H -0.383726789E+02  0.348278823E+01 -0.345075704E+01
   H  0.374553268E+02 -0.374557832E+01 -0.251422656E+01
     4
 # iter = 68000  time[fs]=68.00000
   C -0.772861407E+01  0.497490711E-01  0.432275190E+00
   C  0.757518891E+01  0.178928473E+00  0.233531252E+00
   H -0.387776382E+02  0.351978171E+01 -0.348755471E+01
   H  0.378497798E+02 -0.378529874E+01 -0.254107384E+01
     4
 # iter = 68500  time[fs]=68.50000
   C -0.781570252E+01  0.497938839E-01  0.436931430E+00
   C  0.766016297E+01  0.181080407E+00  0.235841931E+00
   H -0.391827128E+02  0.355678664E+01 -0.352436473E+01
   H  0.382443519E+02 -0.382503287E+01 -0.256793049E+01
     4
 # iter = 69000  time[fs]=69.00000
   C -0.790284397E+01  0.498377746E-01  0.441589376E+00
   C  0.774518971E+01  0.183233446E+00  0.238152678E+00
   H -0.395879005E+02  0.359380281E+01 -0.356118686E+01
   H  0.386390410E+02 -0.386478045E+01 -0.259479633E+01
     4
 # iter = 69500  time[fs]=69.50000
   C -0.799003728E+01  0.498807599E-01  0.446248993E+00
   C  0.783026799E+01  0.185387572E+00  0.240463492E+00
   H -0.399931989E+02  0.363082999E+01 -0.359802085E+01
   H  0.390338445E+02 -0.390454121E+01 -0.262167116E+01
     4
 # iter = 70000  time[fs]=70.00000
   C -0.807728129E+01  0.499228558E-01  0.450910247E+00
   C  0.791539668E+01  0.187542763E+00  0.242774374E+00
   H -0.403986059E+02  0.366786796E+01 -0.363486648E+01
   H  0.394287602E+02 -0.394431487E+01 -0.264855481E+01
     4
 # iter = 70500  time[fs]=70.50000
   C -0.816457492E+01  0.499640782E-01  0.455573105E+00
   C  0.800057468E+01  0.189699002E+00  0.245085322E+00
   H -0.408041192E+02  0.370491652E+01 -0.367172351E+01
   H  0.398237858E+02 -0.398410120E+01 -0.267544711E+01
     4
 # iter = 71000  time[fs]=71.00000
   C -0.825191711E+01  0.500044425E-01  0.460237536E+00
   C  0.808580095E+01  0.191856268E+00  0.247396337E+00
   H -0.412097368E+02  0.374197545E+01 -0.370859173E+01
   H  0.402189193E+02 -0.402389995E+01 -0.270234789E+01
     4
 # iter = 71500  time[fs]=71.50000
   C -0.833930683E+01  0.500439635E-01  0.464903508E+00
   C  0.817107445E+01  0.194014544E+00  0.249707418E+00
   H -0.416154566E+02  0.377904456E+01 -0.374547092E+01
   H  0.406141585E+02 -0.406371087E+01 -0.272925698E+01
     4
 # iter = 72000  time[fs]=72.00000
   C -0.842674308E+01  0.500826559E-01  0.469570992E+00
   C  0.825639421E+01  0.196173813E+00  0.252018565E+00
   H -0.420212767E+02  0.381612366E+01 -0.378236086E+01
   H  0.410095014E+02 -0.410353374E+01 -0.275617424E+01
     4
 # iter = 72500  time[fs]=72.50000
   C -0.851422491E+01  0.501205340E-01  0.474239958E+00
   C  0.834175926E+01  0.198334056E+00  0.254329776E+00
   H -0.424271952E+02  0.385321255E+01 -0.381926137E+01
   H  0.414049460E+02 -0.414336833E+01 -0.278309951E+01
     4
 # iter = 73000  time[fs]=73.00000
   C -0.860175136E+01  0.501576115E-01  0.478910377E+00
   C  0.842716867E+01  0.200495256E+00  0.256641053E+00
   H -0.428332103E+02  0.389031107E+01 -0.385617224E+01
   H  0.418004904E+02 -0.418321443E+01 -0.281003263E+01
     4
 # iter = 73500  time[fs]=73.50000
   C -0.868932155E+01  0.501939021E-01  0.483582222E+00
   C  0.851262154E+01  0.202657398E+00  0.258952393E+00
   H -0.432393200E+02  0.392741902E+01 -0.389309328E+01
   H  0.421961327E+02 -0.422307182E+01 -0.283697347E+01
     4
 # iter = 74000  time[fs]=74.00000
   C -0.877693457E+01  0.502294190E-01  0.488255466E+00
   C  0.859811699E+01  0.204820465E+00  0.261263798E+00
   H -0.436455227E+02  0.396453624E+01 -0.393002431E+01
   H  0.425918711E+02 -0.426294029E+01 -0.286392188E+01
     4
 # iter = 74500  time[fs]=74.50000
   C -0.886458959E+01  0.502641750E-01  0.492930084E+00
   C  0.868365418E+01  0.206984442E+00  0.263575266E+00
   H -0.440518167E+02  0.400166255E+01 -0.396696515E+01
   H  0.429877038E+02 -0.430281964E+01 -0.289087772E+01
     4
 # iter = 75000  time[fs]=75.00000
   C -0.895228576E+01  0.502981828E-01  0.497606049E+00
   C  0.876923226E+01  0.209149313E+00  0.265886797E+00
   H -0.444582002E+02  0.403879780E+01 -0.400391561E+01
   H  0.433836292E+02 -0.434270968E+01 -0.291784086E+01
     4
 # iter = 75500  time[fs]=75.50000
   C -0.904002229E+01  0.503314547E-01  0.502283338E+00
   C  0.885485045E+01  0.211315063E+00  0.268198391E+00
   H -0.448646717E+02  0.407594183E+01 -0.404087553E+01
   H  0.437796456E+02 -0.438261022E+01 -0.294481118E+01
     4
 # iter = 76000  time[fs]=76.00000
   C -0.912779839E+01  0.503640025E-01  0.506961925E+00
   C  0.894050797E+01  0.213481678E+00  0.270510047E+00
   H -0.452712295E+02  0.411309448E+01 -0.407784473E+01
   H  0.441757512E+02 -0.442252107E+01 -0.297178854E+01
     4
 # iter = 76500  time[fs]=76.50000
   C -0.921561329E+01  0.503958381E-01  0.511641788E+00
   C  0.902620405E+01  0.215649144E+00  0.272821764E+00
   H -0.456778723E+02  0.415025560E+01 -0.411482307E+01
   H  0.445719446E+02 -0.446244205E+01 -0.299877281E+01
     4
 # iter = 77000  time[fs]=77.00000
   C -0.930346626E+01  0.504269729E-01  0.516322904E+00
   C  0.911193797E+01  0.217817446E+00  0.275133543E+00
   H -0.460845984E+02  0.418742505E+01 -0.415181038E+01
   H  0.449682243E+02 -0.450237299E+01 -0.302576389E+01
     4
 # iter = 77500  time[fs]=77.50000
   C -0.939135659E+01  0.504574180E-01  0.521005251E+00
   C  0.919770900E+01  0.219986572E+00  0.277445382E+00
   H -0.464914064E+02  0.422460267E+01 -0.418880650E+01
   H  0.453645886E+02 -0.454231371E+01 -0.305276165E+01
     4
 # iter = 78000  time[fs]=78.00000
   C -0.947928356E+01  0.504871843E-01  0.525688807E+00
   C  0.928351645E+01  0.222156507E+00  0.279757282E+00
   H -0.468982949E+02  0.426178834E+01 -0.422581128E+01
   H  0.457610361E+02 -0.458226404E+01 -0.307976598E+01
     4
 # iter = 78500  time[fs]=78.50000
   C -0.956724651E+01  0.505162826E-01  0.530373551E+00
   C  0.936935966E+01  0.224327240E+00  0.282069241E+00
   H -0.473052626E+02  0.429898191E+01 -0.426282458E+01
   H  0.461575655E+02 -0.462222383E+01 -0.310677677E+01
     4
 # iter = 79000  time[fs]=79.00000
   C -0.965524476E+01  0.505447232E-01  0.535059463E+00
   C  0.945523795E+01  0.226498757E+00  0.284381260E+00
   H -0.477123080E+02  0.433618326E+01 -0.429984626E+01
   H  0.465541753E+02 -0.466219291E+01 -0.313379391E+01
     4
 # iter = 79500  time[fs]=79.50000
   C -0.974327768E+01  0.505725164E-01  0.539746523E+00
   C  0.954115069E+01  0.228671046E+00  0.286693337E+00
   H -0.481194298E+02  0.437339225E+01 -0.433687618E+01
   H  0.469508641E+02 -0.470217113E+01 -0.316081729E+01
     4
 # iter = 80000  time[fs]=80.00000
   C -0.983134464E+01  0.505996720E-01  0.544434711E+00
   C  0.962709725E+01  0.230844095E+00  0.289005473E+00
   H -0.485266269E+02  0.441060875E+01 -0.437391419E+01
   H  0.473476307E+02 -0.474215834E+01 -0.318784681E+01
