     4
 # iter = 25000  time[fs]=25.00000
   C -0.977322552E+00  0.107161156E-01  0.657395769E-01
   C  0.991077614E+00  0.205373367E-02 -0.462433031E-01
   H -0.523860401E+01 -0.382695273E+00 -0.665225510E+00
   H  0.526726415E+01 -0.229351998E+00  0.221576434E+00
     4
 # iter = 25500  time[fs]=25.50000
   C -0.102373549E+01  0.116245065E-01  0.705617245E-01
   C  0.103154848E+01  0.127005772E-02 -0.492295389E-01
   H -0.557397893E+01 -0.413207468E+00 -0.714907181E+00
   H  0.557573906E+01 -0.251399957E+00  0.230982020E+00
     4
 # iter = 26000  time[fs]=26.00000
   C -0.107501060E+01  0.117412354E-01  0.748167152E-01
   C  0.107494124E+01 -0.627230651E-03 -0.535615027E-01
   H -0.591739794E+01 -0.449322840E+00 -0.770366799E+00
   H  0.588154843E+01 -0.278974462E+00  0.235127155E+00
     4
 # iter = 26500  time[fs]=26.50000
   C -0.112833943E+01  0.135292461E-01  0.809504874E-01
   C  0.112419989E+01 -0.349897571E-03 -0.559333832E-01
   H -0.625247285E+01 -0.474934197E+00 -0.815477509E+00
   H  0.620050314E+01 -0.295968402E+00  0.250092423E+00
     4
 # iter = 27000  time[fs]=27.00000
   C -0.118327302E+01  0.171085224E-01  0.890666306E-01
   C  0.117916039E+01  0.226421595E-02 -0.561659906E-01
   H -0.657816147E+01 -0.489226920E+00 -0.849408885E+00
   H  0.653314897E+01 -0.301574799E+00  0.276661357E+00
     4
 # iter = 27500  time[fs]=27.50000
   C -0.124133906E+01  0.206433575E-01  0.973138939E-01
   C  0.123707115E+01  0.476766920E-02 -0.566905494E-01
   H -0.690622926E+01 -0.504152224E+00 -0.884099329E+00
   H  0.686728878E+01 -0.307759085E+00  0.302847649E+00
     4
 # iter = 28000  time[fs]=28.00000
   C -0.130355484E+01  0.228343295E-01  0.104378362E+00
   C  0.129592176E+01  0.542901200E-02 -0.592234443E-01
   H -0.724496934E+01 -0.528163736E+00 -0.927991402E+00
   H  0.719425913E+01 -0.322985827E+00  0.320168802E+00
     4
 # iter = 28500  time[fs]=28.50000
   C -0.136914331E+01  0.242036622E-01  0.110768906E+00
   C  0.135615938E+01  0.494829103E-02 -0.630508546E-01
   H -0.759080381E+01 -0.557827765E+00 -0.977641419E+00
   H  0.751732394E+01 -0.343823748E+00  0.332041030E+00
     4
 # iter = 29000  time[fs]=29.00000
   C -0.143659075E+01  0.260355159E-01  0.117757461E+00
   C  0.141927271E+01  0.504250881E-02 -0.664432195E-01
   H -0.793519983E+01 -0.584739797E+00 -0.102463594E+01
   H  0.784474571E+01 -0.361866874E+00  0.346857395E+00
     4
 # iter = 29500  time[fs]=29.50000
   C -0.150524752E+01  0.287723527E-01  0.125775328E+00
   C  0.148564917E+01  0.630492509E-02 -0.687958039E-01
   H -0.827513842E+01 -0.605991999E+00 -0.106605939E+01
   H  0.817930334E+01 -0.374209077E+00  0.367512530E+00
     4
 # iter = 30000  time[fs]=30.00000
   C -0.157555100E+01  0.317899820E-01  0.134188156E+00
   C  0.155427271E+01  0.790473483E-02 -0.709289434E-01
   H -0.861458085E+01 -0.625641401E+00 -0.110596215E+01
   H  0.851681942E+01 -0.384913311E+00  0.389933088E+00
     4
 # iter = 30500  time[fs]=30.50000
   C -0.164802951E+01  0.343924080E-01  0.142290738E+00
   C  0.162405037E+01  0.891518750E-02 -0.737598912E-01
   H -0.895797005E+01 -0.648215201E+00 -0.114886554E+01
   H  0.885265893E+01 -0.398512581E+00  0.409576762E+00
     4
 # iter = 31000  time[fs]=31.00000
   C -0.172254408E+01  0.365685985E-01  0.150063711E+00
   C  0.169482096E+01  0.932389682E-02 -0.772924592E-01
   H -0.930528700E+01 -0.673770225E+00 -0.119482106E+01
   H  0.918667264E+01 -0.415066129E+00  0.426376087E+00
     4
 # iter = 31500  time[fs]=31.50000
   C -0.179850872E+01  0.387703557E-01  0.157951344E+00
   C  0.176705659E+01  0.973624953E-02 -0.809135228E-01
   H -0.965349976E+01 -0.699343069E+00 -0.124086049E+01
   H  0.952174416E+01 -0.431610634E+00  0.443287082E+00
     4
 # iter = 32000  time[fs]=32.00000
   C -0.187552334E+01  0.412774254E-01  0.166226573E+00
   C  0.184101327E+01  0.105277316E-01 -0.842405977E-01
   H -0.100007081E+02 -0.723094992E+00 -0.128514075E+01
   H  0.985963999E+01 -0.446308008E+00  0.462141253E+00
     4
 # iter = 32500  time[fs]=32.50000
   C -0.195359980E+01  0.439697998E-01  0.174763225E+00
   C  0.191642524E+01  0.115399287E-01 -0.874257581E-01
   H -0.103476295E+02 -0.745798323E+00 -0.132843029E+01
   H  0.101995206E+02 -0.459932850E+00  0.482158003E+00
     4
 # iter = 33000  time[fs]=33.00000
   C -0.203288714E+01  0.466011487E-01  0.183309387E+00
   C  0.199286882E+01  0.124456340E-01 -0.907904656E-01
   H -0.106958126E+02 -0.769051074E+00 -0.137232359E+01
   H  0.105397264E+02 -0.474085834E+00  0.501731195E+00
     4
 # iter = 33500  time[fs]=33.50000
   C -0.211337053E+01  0.490987775E-01  0.191787306E+00
   C  0.207016171E+01  0.131493673E-01 -0.944249941E-01
   H -0.110456776E+02 -0.793318401E+00 -0.141728262E+01
   H  0.108797371E+02 -0.489233823E+00  0.520388995E+00
     4
 # iter = 34000  time[fs]=34.00000
   C -0.219486716E+01  0.515666139E-01  0.200296321E+00
   C  0.214836589E+01  0.137913643E-01 -0.981843865E-01
   H -0.113964963E+02 -0.817913057E+00 -0.146261720E+01
   H  0.112201908E+02 -0.504690340E+00  0.538813359E+00
     4
 # iter = 34500  time[fs]=34.50000
   C -0.227720413E+01  0.541063202E-01  0.208933925E+00
   C  0.222754778E+01  0.145087174E-01 -0.101927260E+00
   H -0.117475598E+02 -0.842163336E+00 -0.150765293E+01
   H  0.115617145E+02 -0.519784349E+00  0.557671186E+00
     4
 # iter = 35000  time[fs]=35.00000
   C -0.236031929E+01  0.567155708E-01  0.217693996E+00
   C  0.230764155E+01  0.152995575E-01 -0.105651576E+00
   H -0.120988418E+02 -0.866077164E+00 -0.155239528E+01
   H  0.119042586E+02 -0.534524832E+00  0.576949693E+00
     4
 # iter = 35500  time[fs]=35.50000
   C -0.244421329E+01  0.593352355E-01  0.226513945E+00
   C  0.238851141E+01  0.160860701E-01 -0.109431588E+00
   H -0.124506906E+02 -0.890033947E+00 -0.159722140E+01
   H  0.122474056E+02 -0.549292415E+00  0.596264743E+00
     4
 # iter = 36000  time[fs]=36.00000
   C -0.252886543E+01  0.619329074E-01  0.235358209E+00
   C  0.247006250E+01  0.168260401E-01 -0.113306256E+00
   H -0.128032830E+02 -0.914239113E+00 -0.164233462E+01
   H  0.125909148E+02 -0.564293547E+00  0.615406652E+00
     4
 # iter = 36500  time[fs]=36.50000
   C -0.261421396E+01  0.645219997E-01  0.244237313E+00
   C  0.255226577E+01  0.175383579E-01 -0.117253715E+00
   H -0.131564991E+02 -0.938599384E+00 -0.168763974E+01
   H  0.129348472E+02 -0.579435684E+00  0.634464974E+00
     4
 # iter = 37000  time[fs]=37.00000
   C -0.270019081E+01  0.671264951E-01  0.253172595E+00
   C  0.263511047E+01  0.182559537E-01 -0.121238307E+00
   H -0.135101529E+02 -0.962952901E+00 -0.173297311E+01
   H  0.132793353E+02 -0.594557591E+00  0.653598172E+00
     4
 # iter = 37500  time[fs]=37.50000
   C -0.278675014E+01  0.697519831E-01  0.262167217E+00
   C  0.271856499E+01  0.189871289E-01 -0.125249228E+00
   H -0.138641805E+02 -0.987258303E+00 -0.177829171E+01
   H  0.136243927E+02 -0.609618561E+00  0.672844381E+00
     4
 # iter = 38000  time[fs]=38.00000
   C -0.287386469E+01  0.723888465E-01  0.271209333E+00
   C  0.280258075E+01  0.197198169E-01 -0.129296245E+00
   H -0.142186191E+02 -0.101157388E+01 -0.182365230E+01
   H  0.139699357E+02 -0.624677553E+00  0.692142248E+00
     4
 # iter = 38500  time[fs]=38.50000
   C -0.296150897E+01  0.750287835E-01  0.280288588E+00
   C  0.288711388E+01  0.204436525E-01 -0.133387602E+00
   H -0.145734996E+02 -0.103594964E+01 -0.186910344E+01
   H  0.143158905E+02 -0.639785206E+00  0.711438902E+00
     4
 # iter = 39000  time[fs]=39.00000
   C -0.304965198E+01  0.776717425E-01  0.289403037E+00
   C  0.297213422E+01  0.211592360E-01 -0.137520744E+00
   H -0.149288002E+02 -0.106038203E+01 -0.191464025E+01
   H  0.146622387E+02 -0.654938502E+00  0.730735279E+00
     4
 # iter = 39500  time[fs]=39.50000
   C -0.313826153E+01  0.803213225E-01  0.298554532E+00
   C  0.305761890E+01  0.218719957E-01 -0.141688438E+00
   H -0.152844772E+02 -0.108484393E+01 -0.196023433E+01
   H  0.150089868E+02 -0.670110801E+00  0.750056072E+00
     4
 # iter = 40000  time[fs]=40.00000
   C -0.322730973E+01  0.829790874E-01  0.307743018E+00
   C  0.314354450E+01  0.225845995E-01 -0.145886343E+00
   H -0.156405013E+02 -0.110932173E+01 -0.200587094E+01
   H  0.153561292E+02 -0.685288970E+00  0.769412589E+00
     4
 # iter = 40500  time[fs]=40.50000
   C -0.331677339E+01  0.856438895E-01  0.316965850E+00
   C  0.322988594E+01  0.232960543E-01 -0.150113905E+00
   H -0.159968622E+02 -0.113381978E+01 -0.205155329E+01
   H  0.157036437E+02 -0.700477791E+00  0.788798340E+00
     4
 # iter = 41000  time[fs]=41.00000
   C -0.340663159E+01  0.883141705E-01  0.326220081E+00
   C  0.331661937E+01  0.240047831E-01 -0.154371263E+00
   H -0.163535534E+02 -0.115834530E+01 -0.209728759E+01
   H  0.160515062E+02 -0.715684905E+00  0.808204078E+00
     4
 # iter = 41500  time[fs]=41.50000
   C -0.349686399E+01  0.909894013E-01  0.335503889E+00
   C  0.340372393E+01  0.247105499E-01 -0.158657315E+00
   H -0.167105628E+02 -0.118289899E+01 -0.214307356E+01
   H  0.163997004E+02 -0.730911389E+00  0.827627215E+00
     4
 # iter = 42000  time[fs]=42.00000
   C -0.358745111E+01  0.936697561E-01  0.344816248E+00
   C  0.349118115E+01  0.254140273E-01 -0.162970147E+00
   H -0.170678747E+02 -0.120747711E+01 -0.218890656E+01
   H  0.167482152E+02 -0.746153874E+00  0.847069697E+00
     4
 # iter = 42500  time[fs]=42.50000
   C -0.367837488E+01  0.963553234E-01  0.354156126E+00
   C  0.357897378E+01  0.261157455E-01 -0.167308067E+00
   H -0.174254748E+02 -0.123207665E+01 -0.223478272E+01
   H  0.170970397E+02 -0.761409691E+00  0.866532856E+00
     4
 # iter = 43000  time[fs]=43.00000
   C -0.376961883E+01  0.990458679E-01  0.363522244E+00
   C  0.366708536E+01  0.268157761E-01 -0.171669923E+00
   H -0.177833516E+02 -0.125669688E+01 -0.228070048E+01
   H  0.174461616E+02 -0.776678410E+00  0.886015853E+00
     4
 # iter = 43500  time[fs]=43.50000
   C -0.386116771E+01  0.101741048E+00  0.372913285E+00
   C  0.375550038E+01  0.275140248E-01 -0.176054797E+00
   H -0.181414953E+02 -0.128133787E+01 -0.232665916E+01
   H  0.177955685E+02 -0.791960419E+00  0.905517108E+00
     4
 # iter = 44000  time[fs]=44.00000
   C -0.395300726E+01  0.104440613E+00  0.382328085E+00
   C  0.384420449E+01  0.282104986E-01 -0.180461736E+00
   H -0.184998961E+02 -0.130599923E+01 -0.237265764E+01
   H  0.181452492E+02 -0.807255607E+00  0.925035600E+00
     4
 # iter = 44500  time[fs]=44.50000
   C -0.404512404E+01  0.107144412E+00  0.391765638E+00
   C  0.393318436E+01  0.289053127E-01 -0.184889738E+00
   H -0.188585441E+02 -0.133068006E+01 -0.241869432E+01
   H  0.184951937E+02 -0.822563334E+00  0.944570898E+00
     4
 # iter = 45000  time[fs]=45.00000
   C -0.413750550E+01  0.109852309E+00  0.401225008E+00
   C  0.402242756E+01  0.295985886E-01 -0.189337849E+00
   H -0.192174299E+02 -0.135537943E+01 -0.246476765E+01
   H  0.188453924E+02 -0.837882932E+00  0.964122655E+00
     4
 # iter = 45500  time[fs]=45.50000
   C -0.423013988E+01  0.112564150E+00  0.410705288E+00
   C  0.411192242E+01  0.302904046E-01 -0.193805210E+00
   H -0.195765450E+02 -0.138009665E+01 -0.251087629E+01
   H  0.191958362E+02 -0.853213943E+00  0.983690368E+00
     4
 # iter = 46000  time[fs]=46.00000
   C -0.432301621E+01  0.115279776E+00  0.420205611E+00
   C  0.420165795E+01  0.309808133E-01 -0.198291035E+00
   H -0.199358812E+02 -0.140483116E+01 -0.255701912E+01
   H  0.195465165E+02 -0.868556036E+00  0.100327345E+01
     4
 # iter = 46500  time[fs]=46.50000
   C -0.441612415E+01  0.117999036E+00  0.429725162E+00
   C  0.429162386E+01  0.316698677E-01 -0.202794578E+00
   H -0.202954308E+02 -0.142958242E+01 -0.260319502E+01
   H  0.198974249E+02 -0.883908880E+00  0.102287137E+01
     4
 # iter = 47000  time[fs]=47.00000
   C -0.450945401E+01  0.120721796E+00  0.439263181E+00
   C  0.438181048E+01  0.323576267E-01 -0.207315130E+00
   H -0.206551866E+02 -0.145434985E+01 -0.264940291E+01
   H  0.202485537E+02 -0.899272113E+00  0.104248366E+01
     4
 # iter = 47500  time[fs]=47.50000
   C -0.460299664E+01  0.123447933E+00  0.448818951E+00
   C  0.447220873E+01  0.330441486E-01 -0.211852018E+00
   H -0.210151414E+02 -0.147913292E+01 -0.269564173E+01
   H  0.205998955E+02 -0.914645381E+00  0.106210988E+01
     4
 # iter = 48000  time[fs]=48.00000
   C -0.469674345E+01  0.126177324E+00  0.458391796E+00
   C  0.456281003E+01  0.337294866E-01 -0.216404610E+00
   H -0.213752888E+02 -0.150393110E+01 -0.274191049E+01
   H  0.209514432E+02 -0.930028353E+00  0.108174962E+01
     4
 # iter = 48500  time[fs]=48.50000
   C -0.479068633E+01  0.128909856E+00  0.467981074E+00
   C  0.465360633E+01  0.344136887E-01 -0.220972308E+00
   H -0.217356223E+02 -0.152874393E+01 -0.278820825E+01
   H  0.213031901E+02 -0.945420725E+00  0.110140246E+01
     4
 # iter = 49000  time[fs]=49.00000
   C -0.488481763E+01  0.131645419E+00  0.477586178E+00
   C  0.474458999E+01  0.350968006E-01 -0.225554550E+00
   H -0.220961361E+02 -0.155357094E+01 -0.283453412E+01
   H  0.216551299E+02 -0.960822206E+00  0.112106803E+01
     4
 # iter = 49500  time[fs]=49.50000
   C -0.497913012E+01  0.134383910E+00  0.487206533E+00
   C  0.483575382E+01  0.357788655E-01 -0.230150800E+00
   H -0.224568243E+02 -0.157841169E+01 -0.288088724E+01
   H  0.220072563E+02 -0.976232517E+00  0.114074593E+01
     4
 # iter = 50000  time[fs]=50.00000
   C -0.507361698E+01  0.137125230E+00  0.496841594E+00
   C  0.492709102E+01  0.364599249E-01 -0.234760554E+00
   H -0.228176816E+02 -0.160326577E+01 -0.292726680E+01
   H  0.223595638E+02 -0.991651390E+00  0.116043582E+01
     4
 # iter = 50500  time[fs]=50.50000
   C -0.516827173E+01  0.139869285E+00  0.506490846E+00
   C  0.501859516E+01  0.371400179E-01 -0.239383329E+00
   H -0.231787027E+02 -0.162813277E+01 -0.297367201E+01
   H  0.227120467E+02 -0.100707857E+01  0.118013735E+01
     4
 # iter = 51000  time[fs]=51.00000
   C -0.526308826E+01  0.142615988E+00  0.516153797E+00
   C  0.511026012E+01  0.378191813E-01 -0.244018672E+00
   H -0.235398826E+02 -0.165301232E+01 -0.302010213E+01
   H  0.230646997E+02 -0.102251381E+01  0.119985021E+01
     4
 # iter = 51500  time[fs]=51.50000
   C -0.535806075E+01  0.145365253E+00  0.525829981E+00
   C  0.520208015E+01  0.384974500E-01 -0.248666149E+00
   H -0.239012168E+02 -0.167790405E+01 -0.306655644E+01
   H  0.234175177E+02 -0.103795688E+01  0.121957407E+01
     4
 # iter = 52000  time[fs]=52.00000
   C -0.545318370E+01  0.148116999E+00  0.535518954E+00
   C  0.529404974E+01  0.391748574E-01 -0.253325349E+00
   H -0.242627005E+02 -0.170280761E+01 -0.311303427E+01
   H  0.237704961E+02 -0.105340756E+01  0.123930864E+01
     4
 # iter = 52500  time[fs]=52.50000
   C -0.554845187E+01  0.150871149E+00  0.545220297E+00
   C  0.538616370E+01  0.398514348E-01 -0.257995881E+00
   H -0.246243295E+02 -0.172772267E+01 -0.315953495E+01
   H  0.241236300E+02 -0.106886563E+01  0.125905363E+01
     4
 # iter = 53000  time[fs]=53.00000
   C -0.564386031E+01  0.153627630E+00  0.554933605E+00
   C  0.547841707E+01  0.405272121E-01 -0.262677372E+00
   H -0.249860997E+02 -0.175264890E+01 -0.320605786E+01
   H  0.244769152E+02 -0.108433089E+01  0.127880876E+01
     4
 # iter = 53500  time[fs]=53.50000
   C -0.573940427E+01  0.156386370E+00  0.564658497E+00
   C  0.557080516E+01  0.412022179E-01 -0.267369467E+00
   H -0.253480069E+02 -0.177758601E+01 -0.325260239E+01
   H  0.248303473E+02 -0.109980314E+01  0.129857378E+01
     4
 # iter = 54000  time[fs]=54.00000
   C -0.583507927E+01  0.159147303E+00  0.574394607E+00
   C  0.566332348E+01  0.418764791E-01 -0.272071829E+00
   H -0.257100476E+02 -0.180253368E+01 -0.329916798E+01
   H  0.251839223E+02 -0.111528219E+01  0.131834841E+01
     4
 # iter = 54500  time[fs]=54.50000
   C -0.593088101E+01  0.161910364E+00  0.584141587E+00
   C  0.575596778E+01  0.425500215E-01 -0.276784135E+00
   H -0.260722179E+02 -0.182749165E+01 -0.334575405E+01
   H  0.255376362E+02 -0.113076786E+01  0.133813243E+01
     4
 # iter = 55000  time[fs]=55.00000
   C -0.602680541E+01  0.164675492E+00  0.593899104E+00
   C  0.584873398E+01  0.432228696E-01 -0.281506076E+00
   H -0.264345143E+02 -0.185245964E+01 -0.339236008E+01
   H  0.258914855E+02 -0.114625998E+01  0.135792559E+01
     4
 # iter = 55500  time[fs]=55.50000
   C -0.612284858E+01  0.167442627E+00  0.603666840E+00
   C  0.594161821E+01  0.438950467E-01 -0.286237359E+00
   H -0.267969336E+02 -0.187743738E+01 -0.343898556E+01
   H  0.262454664E+02 -0.116175838E+01  0.137772766E+01
     4
 # iter = 56000  time[fs]=56.00000
   C -0.621900681E+01  0.170211713E+00  0.613444490E+00
   C  0.603461678E+01  0.445665751E-01 -0.290977701E+00
   H -0.271594724E+02 -0.190242464E+01 -0.348563000E+01
   H  0.265995755E+02 -0.117726290E+01  0.139753843E+01
     4
 # iter = 56500  time[fs]=56.50000
   C -0.631527653E+01  0.172982696E+00  0.623231765E+00
   C  0.612772614E+01  0.452374761E-01 -0.295726835E+00
   H -0.275221277E+02 -0.192742116E+01 -0.353229291E+01
   H  0.269538094E+02 -0.119277338E+01  0.141735768E+01
     4
 # iter = 57000  time[fs]=57.00000
   C -0.641165437E+01  0.175755523E+00  0.633028384E+00
   C  0.622094293E+01  0.459077700E-01 -0.300484502E+00
   H -0.278848965E+02 -0.195242671E+01 -0.357897384E+01
   H  0.273081651E+02 -0.120828968E+01  0.143718522E+01
     4
 # iter = 57500  time[fs]=57.50000
   C -0.650813707E+01  0.178530145E+00  0.642834082E+00
   C  0.631426391E+01  0.465774760E-01 -0.305250456E+00
   H -0.282477758E+02 -0.197744108E+01 -0.362567235E+01
   H  0.276626393E+02 -0.122381164E+01  0.145702084E+01
     4
 # iter = 58000  time[fs]=58.00000
   C -0.660472153E+01  0.181306514E+00  0.652648601E+00
   C  0.640768601E+01  0.472466128E-01 -0.310024461E+00
   H -0.286107630E+02 -0.200246404E+01 -0.367238802E+01
   H  0.280172292E+02 -0.123933915E+01  0.147686437E+01
     4
 # iter = 58500  time[fs]=58.50000
   C -0.670140478E+01  0.184084583E+00  0.662471698E+00
   C  0.650120625E+01  0.479151981E-01 -0.314806290E+00
   H -0.289738553E+02 -0.202749539E+01 -0.371912044E+01
   H  0.283719319E+02 -0.125487205E+01  0.149671560E+01
     4
 # iter = 59000  time[fs]=59.00000
   C -0.679818398E+01  0.186864309E+00  0.672303137E+00
   C  0.659482182E+01  0.485832487E-01 -0.319595727E+00
   H -0.293370502E+02 -0.205253493E+01 -0.376586920E+01
   H  0.287267447E+02 -0.127041023E+01  0.151657438E+01
     4
 # iter = 59500  time[fs]=59.50000
   C -0.689505640E+01  0.189645649E+00  0.682142691E+00
   C  0.668853000E+01  0.492507810E-01 -0.324392562E+00
   H -0.297003452E+02 -0.207758247E+01 -0.381263395E+01
   H  0.290816649E+02 -0.128595355E+01  0.153644053E+01
     4
 # iter = 60000  time[fs]=60.00000
   C -0.699201941E+01  0.192428561E+00  0.691990144E+00
   C  0.678232819E+01  0.499178104E-01 -0.329196596E+00
   H -0.300637380E+02 -0.210263781E+01 -0.385941429E+01
   H  0.294366899E+02 -0.130150190E+01  0.155631388E+01
     4
 # iter = 60500  time[fs]=60.50000
   C -0.708907052E+01  0.195213006E+00  0.701845287E+00
   C  0.687621388E+01  0.505843518E-01 -0.334007636E+00
   H -0.304272261E+02 -0.212770078E+01 -0.390620989E+01
   H  0.297918173E+02 -0.131705517E+01  0.157619427E+01
     4
 # iter = 61000  time[fs]=61.00000
   C -0.718620731E+01  0.197998946E+00  0.711707919E+00
   C  0.697018469E+01  0.512504195E-01 -0.338825498E+00
   H -0.307908075E+02 -0.215277121E+01 -0.395302039E+01
   H  0.301470447E+02 -0.133261324E+01  0.159608156E+01
     4
 # iter = 61500  time[fs]=61.50000
   C -0.728342746E+01  0.200786345E+00  0.721577848E+00
   C  0.706423831E+01  0.519160272E-01 -0.343650003E+00
   H -0.311544798E+02 -0.217784892E+01 -0.399984546E+01
   H  0.305023699E+02 -0.134817600E+01  0.161597559E+01
     4
 # iter = 62000  time[fs]=62.00000
   C -0.738072877E+01  0.203575167E+00  0.731454887E+00
   C  0.715837253E+01  0.525811880E-01 -0.348480981E+00
   H -0.315182412E+02 -0.220293376E+01 -0.404668479E+01
   H  0.308577905E+02 -0.136374336E+01  0.163587621E+01
     4
 # iter = 62500  time[fs]=62.50000
   C -0.747810907E+01  0.206365378E+00  0.741338858E+00
   C  0.725258522E+01  0.532459145E-01 -0.353318267E+00
   H -0.318820895E+02 -0.222802556E+01 -0.409353806E+01
   H  0.312133045E+02 -0.137931520E+01  0.165578330E+01
     4
 # iter = 63000  time[fs]=63.00000
   C -0.757556634E+01  0.209156945E+00  0.751229589E+00
   C  0.734687435E+01  0.539102189E-01 -0.358161703E+00
   H -0.322460228E+02 -0.225312419E+01 -0.414040498E+01
   H  0.315689098E+02 -0.139489143E+01  0.167569671E+01
     4
 # iter = 63500  time[fs]=63.50000
   C -0.767309857E+01  0.211949837E+00  0.761126914E+00
   C  0.744123793E+01  0.545741128E-01 -0.363011136E+00
   H -0.326100392E+02 -0.227822948E+01 -0.418728525E+01
   H  0.319246043E+02 -0.141047196E+01  0.169561632E+01
     4
 # iter = 64000  time[fs]=64.00000
   C -0.777070387E+01  0.214744022E+00  0.771030672E+00
   C  0.753567409E+01  0.552376074E-01 -0.367866419E+00
   H -0.329741370E+02 -0.230334130E+01 -0.423417859E+01
   H  0.322803862E+02 -0.142605670E+01  0.171554199E+01
     4
 # iter = 64500  time[fs]=64.50000
   C -0.786838040E+01  0.217539471E+00  0.780940710E+00
   C  0.763018099E+01  0.559007134E-01 -0.372727410E+00
   H -0.333383144E+02 -0.232845951E+01 -0.428108473E+01
   H  0.326362536E+02 -0.144164555E+01  0.173547360E+01
     4
 # iter = 65000  time[fs]=65.00000
   C -0.796612640E+01  0.220336156E+00  0.790856878E+00
   C  0.772475687E+01  0.565634413E-01 -0.377593972E+00
   H -0.337025697E+02 -0.235358397E+01 -0.432800341E+01
   H  0.329922045E+02 -0.145723844E+01  0.175541104E+01
     4
 # iter = 65500  time[fs]=65.50000
   C -0.806394016E+01  0.223134049E+00  0.800779032E+00
   C  0.781940004E+01  0.572258009E-01 -0.382465973E+00
   H -0.340669012E+02 -0.237871457E+01 -0.437493437E+01
   H  0.333482374E+02 -0.147283527E+01  0.177535418E+01
     4
 # iter = 66000  time[fs]=66.00000
   C -0.816182004E+01  0.225933123E+00  0.810707035E+00
   C  0.791410887E+01  0.578878019E-01 -0.387343286E+00
   H -0.344313073E+02 -0.240385116E+01 -0.442187735E+01
   H  0.337043504E+02 -0.148843598E+01  0.179530292E+01
     4
 # iter = 66500  time[fs]=66.50000
   C -0.825976445E+01  0.228733353E+00  0.820640751E+00
   C  0.800888179E+01  0.585494536E-01 -0.392225787E+00
   H -0.347957866E+02 -0.242899364E+01 -0.446883213E+01
   H  0.340605420E+02 -0.150404047E+01  0.181525715E+01
     4
 # iter = 67000  time[fs]=67.00000
   C -0.835777186E+01  0.231534712E+00  0.830580051E+00
   C  0.810371726E+01  0.592107648E-01 -0.397113357E+00
   H -0.351603374E+02 -0.245414188E+01 -0.451579846E+01
   H  0.344168104E+02 -0.151964868E+01  0.183521676E+01
     4
 # iter = 67500  time[fs]=67.50000
   C -0.845584080E+01  0.234337178E+00  0.840524810E+00
   C  0.819861382E+01  0.598717441E-01 -0.402005882E+00
   H -0.355249584E+02 -0.247929576E+01 -0.456277613E+01
   H  0.347731542E+02 -0.153526053E+01  0.185518165E+01
     4
 # iter = 68000  time[fs]=68.00000
   C -0.855396983E+01  0.237140726E+00  0.850474907E+00
   C  0.829357005E+01  0.605323999E-01 -0.406903251E+00
   H -0.358896482E+02 -0.250445519E+01 -0.460976490E+01
   H  0.351295719E+02 -0.155087595E+01  0.187515172E+01
     4
 # iter = 68500  time[fs]=68.50000
   C -0.865215758E+01  0.239945334E+00  0.860430224E+00
   C  0.838858458E+01  0.611927401E-01 -0.411805355E+00
   H -0.362544053E+02 -0.252962004E+01 -0.465676457E+01
   H  0.354860619E+02 -0.156649487E+01  0.189512687E+01
     4
 # iter = 69000  time[fs]=69.00000
   C -0.875040272E+01  0.242750979E+00  0.870390647E+00
   C  0.848365609E+01  0.618527725E-01 -0.416712091E+00
   H -0.366192284E+02 -0.255479023E+01 -0.470377493E+01
   H  0.358426230E+02 -0.158211722E+01  0.191510700E+01
     4
 # iter = 69500  time[fs]=69.50000
   C -0.884870395E+01  0.245557641E+00  0.880356068E+00
   C  0.857878330E+01  0.625125045E-01 -0.421623357E+00
   H -0.369841163E+02 -0.257996563E+01 -0.475079578E+01
   H  0.361992536E+02 -0.159774294E+01  0.193509203E+01
     4
 # iter = 70000  time[fs]=70.00000
   C -0.894706004E+01  0.248365299E+00  0.890326380E+00
   C  0.867396495E+01  0.631719433E-01 -0.426539058E+00
   H -0.373490678E+02 -0.260514616E+01 -0.479782691E+01
   H  0.365559524E+02 -0.161337196E+01  0.195508187E+01
     4
 # iter = 70500  time[fs]=70.50000
   C -0.904546976E+01  0.251173932E+00  0.900301479E+00
   C  0.876919987E+01  0.638310959E-01 -0.431459098E+00
   H -0.377140815E+02 -0.263033172E+01 -0.484486815E+01
   H  0.369127182E+02 -0.162900423E+01  0.197507642E+01
     4
 # iter = 71000  time[fs]=71.00000
   C -0.914393197E+01  0.253983521E+00  0.910281266E+00
   C  0.886448688E+01  0.644899690E-01 -0.436383385E+00
   H -0.380791563E+02 -0.265552222E+01 -0.489191930E+01
   H  0.372695497E+02 -0.164463968E+01  0.199507561E+01
     4
 # iter = 71500  time[fs]=71.50000
   C -0.924244552E+01  0.256794047E+00  0.920265644E+00
   C  0.895982486E+01  0.651485690E-01 -0.441311832E+00
   H -0.384442911E+02 -0.268071756E+01 -0.493898018E+01
   H  0.376264457E+02 -0.166027825E+01  0.201507935E+01
     4
 # iter = 72000  time[fs]=72.00000
   C -0.934100932E+01  0.259605493E+00  0.930254519E+00
   C  0.905521273E+01  0.658069024E-01 -0.446244352E+00
   H -0.388094848E+02 -0.270591765E+01 -0.498605063E+01
   H  0.379834049E+02 -0.167591989E+01  0.203508757E+01
     4
 # iter = 72500  time[fs]=72.50000
   C -0.943962230E+01  0.262417839E+00  0.940247800E+00
   C  0.915064942E+01  0.664649751E-01 -0.451180861E+00
   H -0.391747362E+02 -0.273112242E+01 -0.503313046E+01
   H  0.383404262E+02 -0.169156455E+01  0.205510017E+01
     4
 # iter = 73000  time[fs]=73.00000
   C -0.953828345E+01  0.265231068E+00  0.950245399E+00
   C  0.924613392E+01  0.671227930E-01 -0.456121280E+00
   H -0.395400444E+02 -0.275633178E+01 -0.508021951E+01
   H  0.386975084E+02 -0.170721216E+01  0.207511710E+01
     4
 # iter = 73500  time[fs]=73.50000
   C -0.963699177E+01  0.268045165E+00  0.960247230E+00
   C  0.934166524E+01  0.677803619E-01 -0.461065529E+00
   H -0.399054082E+02 -0.278154564E+01 -0.512731763E+01
   H  0.390546506E+02 -0.172286268E+01  0.209513827E+01
     4
 # iter = 74000  time[fs]=74.00000
   C -0.973574628E+01  0.270860111E+00  0.970253209E+00
   C  0.943724241E+01  0.684376873E-01 -0.466013533E+00
   H -0.402708267E+02 -0.280676394E+01 -0.517442465E+01
   H  0.394118515E+02 -0.173851605E+01  0.211516362E+01
     4
 # iter = 74500  time[fs]=74.50000
   C -0.983454605E+01  0.273675893E+00  0.980263257E+00
   C  0.953286450E+01  0.690947745E-01 -0.470965218E+00
   H -0.406362990E+02 -0.283198658E+01 -0.522154041E+01
   H  0.397691102E+02 -0.175417223E+01  0.213519306E+01
     4
 # iter = 75000  time[fs]=75.00000
   C -0.993339017E+01  0.276492493E+00  0.990277293E+00
   C  0.962853061E+01  0.697516287E-01 -0.475920511E+00
   H -0.410018240E+02 -0.285721349E+01 -0.526866478E+01
   H  0.401264256E+02 -0.176983116E+01  0.215522654E+01
     4
 # iter = 75500  time[fs]=75.50000
   C -0.100322778E+02  0.279309898E+00  0.100029524E+01
   C  0.972423987E+01  0.704082549E-01 -0.480879344E+00
   H -0.413674008E+02 -0.288244461E+01 -0.531579760E+01
   H  0.404837967E+02 -0.178549281E+01  0.217526399E+01
     4
 # iter = 76000  time[fs]=76.00000
   C -0.101312079E+02  0.282128091E+00  0.101031703E+01
   C  0.981999141E+01  0.710646579E-01 -0.485841648E+00
   H -0.417330286E+02 -0.290767986E+01 -0.536293873E+01
   H  0.408412227E+02 -0.180115712E+01  0.219530533E+01
     4
 # iter = 76500  time[fs]=76.50000
   C -0.102301799E+02  0.284947060E+00  0.102034259E+01
   C  0.991578441E+01  0.717208426E-01 -0.490807357E+00
   H -0.420987065E+02 -0.293291917E+01 -0.541008803E+01
   H  0.411987025E+02 -0.181682405E+01  0.221535052E+01
     4
 # iter = 77000  time[fs]=77.00000
   C -0.103291929E+02  0.287766790E+00  0.103037184E+01
   C  0.100116181E+02  0.723768134E-01 -0.495776409E+00
   H -0.424644336E+02 -0.295816248E+01 -0.545724538E+01
   H  0.415562352E+02 -0.183249355E+01  0.223539948E+01
     4
 # iter = 77500  time[fs]=77.50000
   C -0.104282460E+02  0.290587268E+00  0.104040472E+01
   C  0.101074916E+02  0.730325748E-01 -0.500748739E+00
   H -0.428302091E+02 -0.298340971E+01 -0.550441063E+01
   H  0.419138200E+02 -0.184816559E+01  0.225545215E+01
     4
 # iter = 78000  time[fs]=78.00000
   C -0.105273385E+02  0.293408481E+00  0.105044116E+01
   C  0.102034043E+02  0.736881312E-01 -0.505724289E+00
   H -0.431960322E+02 -0.300866081E+01 -0.555158365E+01
   H  0.422714559E+02 -0.186384012E+01  0.227550848E+01
     4
 # iter = 78500  time[fs]=78.50000
   C -0.106264697E+02  0.296230415E+00  0.106048111E+01
   C  0.102993553E+02  0.743434867E-01 -0.510702998E+00
   H -0.435619020E+02 -0.303391570E+01 -0.559876433E+01
   H  0.426291421E+02 -0.187951710E+01  0.229556841E+01
     4
 # iter = 79000  time[fs]=79.00000
   C -0.107256389E+02  0.299053059E+00  0.107052448E+01
   C  0.103953440E+02  0.749986453E-01 -0.515684811E+00
   H -0.439278179E+02 -0.305917433E+01 -0.564595254E+01
   H  0.429868779E+02 -0.189519649E+01  0.231563189E+01
     4
 # iter = 79500  time[fs]=79.50000
   C -0.108248453E+02  0.301876400E+00  0.108057123E+01
   C  0.104913697E+02  0.756536111E-01 -0.520669670E+00
   H -0.442937791E+02 -0.308443665E+01 -0.569314816E+01
   H  0.433446623E+02 -0.191087826E+01  0.233569885E+01
     4
 # iter = 80000  time[fs]=80.00000
   C -0.109240882E+02  0.304700426E+00  0.109062130E+01
   C  0.105874316E+02  0.763083878E-01 -0.525657522E+00
   H -0.446597847E+02 -0.310970258E+01 -0.574035107E+01
   H  0.437024947E+02 -0.192656236E+01  0.235576924E+01
