     4
 # iter = 25000  time[fs]=25.00000
   C -0.972877031E+00 -0.470225566E-01  0.108063493E-01
   C  0.100284901E+01 -0.273397270E-01 -0.636007990E-01
   H -0.522170516E+01  0.410071365E+00  0.291234983E+00
   H  0.522914546E+01  0.327460524E+00  0.305936814E+00
     4
 # iter = 25500  time[fs]=25.50000
   C -0.101836404E+01 -0.512815307E-01  0.879779757E-02
   C  0.104354121E+01 -0.306739107E-01 -0.677406344E-01
   H -0.556232246E+01  0.428533716E+00  0.299918271E+00
   H  0.554040571E+01  0.340362212E+00  0.319323779E+00
     4
 # iter = 26000  time[fs]=26.00000
   C -0.106778603E+01 -0.565612294E-01  0.592993000E-02
   C  0.108621842E+01 -0.349965310E-01 -0.730156640E-01
   H -0.591381411E+01  0.442083831E+00  0.303518592E+00
   H  0.585191415E+01  0.348260273E+00  0.327702031E+00
     4
 # iter = 26500  time[fs]=26.50000
   C -0.111807111E+01 -0.600234671E-01  0.502562320E-02
   C  0.113356851E+01 -0.373739320E-01 -0.764786487E-01
   H -0.625946453E+01  0.466737971E+00  0.318071556E+00
   H  0.617916400E+01  0.367202407E+00  0.347120636E+00
     4
 # iter = 27000  time[fs]=27.00000
   C -0.116885166E+01 -0.615221263E-01  0.621721741E-02
   C  0.118550945E+01 -0.376600580E-01 -0.779711657E-01
   H -0.659795169E+01  0.503243997E+00  0.344340828E+00
   H  0.652241858E+01  0.397946820E+00  0.378338916E+00
     4
 # iter = 27500  time[fs]=27.50000
   C -0.122202162E+01 -0.631582252E-01  0.739134173E-02
   C  0.123965067E+01 -0.380357188E-01 -0.796628331E-01
   H -0.694080011E+01  0.539602603E+00  0.370340122E+00
   H  0.686922937E+01  0.428487697E+00  0.409351966E+00
     4
 # iter = 28000  time[fs]=28.00000
   C -0.127887640E+01 -0.664174322E-01  0.705126262E-02
   C  0.129425638E+01 -0.400439785E-01 -0.830866487E-01
   H -0.729609628E+01  0.567318029E+00  0.387584933E+00
   H  0.721071707E+01  0.450325534E+00  0.431661014E+00
     4
 # iter = 28500  time[fs]=28.50000
   C -0.133863680E+01 -0.706935359E-01  0.579328785E-02
   C  0.134977377E+01 -0.430609260E-01 -0.876096841E-01
   H -0.766008603E+01  0.589781590E+00  0.399476619E+00
   H  0.754996405E+01  0.466860524E+00  0.448666848E+00
     4
 # iter = 29000  time[fs]=29.00000
   C -0.139966505E+01 -0.745056780E-01  0.508942498E-02
   C  0.140757200E+01 -0.455564052E-01 -0.916937151E-01
   H -0.802408473E+01  0.615358004E+00  0.414388805E+00
   H  0.789507749E+01  0.486471171E+00  0.468748455E+00
     4
 # iter = 29500  time[fs]=29.50000
   C -0.146130510E+01 -0.773404357E-01  0.544519904E-02
   C  0.146803391E+01 -0.470019346E-01 -0.948030396E-01
   H -0.838494010E+01  0.646922381E+00  0.435204339E+00
   H  0.824869920E+01  0.512039727E+00  0.494788474E+00
     4
 # iter = 30000  time[fs]=30.00000
   C -0.152413985E+01 -0.799101820E-01  0.614118849E-02
   C  0.153028722E+01 -0.481383286E-01 -0.976720078E-01
   H -0.874649516E+01  0.680392041E+00  0.457847251E+00
   H  0.860652932E+01  0.539482519E+00  0.522703536E+00
     4
 # iter = 30500  time[fs]=30.50000
   C -0.158884741E+01 -0.830101977E-01  0.637581445E-02
   C  0.159338685E+01 -0.497919823E-01 -0.101121229E+00
   H -0.911308864E+01  0.711217709E+00  0.477774178E+00
   H  0.896382442E+01  0.564248254E+00  0.547942589E+00
     4
 # iter = 31000  time[fs]=31.00000
   C -0.165533083E+01 -0.866492750E-01  0.613464688E-02
   C  0.165721390E+01 -0.519744233E-01 -0.105157053E+00
   H -0.948461048E+01  0.739321382E+00  0.494912431E+00
   H  0.932034024E+01  0.586261303E+00  0.570430195E+00
     4
 # iter = 31500  time[fs]=31.50000
   C -0.172297210E+01 -0.903048643E-01  0.593518161E-02
   C  0.172221030E+01 -0.541466108E-01 -0.109235797E+00
   H -0.985794875E+01  0.767646331E+00  0.512210078E+00
   H  0.967887672E+01  0.608470247E+00  0.593115088E+00
     4
 # iter = 32000  time[fs]=32.00000
   C -0.179136035E+01 -0.936524014E-01  0.609744695E-02
   C  0.178862242E+01 -0.559743688E-01 -0.113019117E+00
   H -0.102311319E+02  0.798013536E+00  0.531492400E+00
   H  0.100411258E+02  0.632699975E+00  0.617822272E+00
     4
 # iter = 32500  time[fs]=32.50000
   C -0.186055235E+01 -0.968268536E-01  0.648239816E-02
   C  0.185622929E+01 -0.575993058E-01 -0.116644872E+00
   H -0.106048128E+02  0.829635612E+00  0.551975866E+00
   H  0.104061809E+02  0.658164061E+00  0.643765408E+00
     4
 # iter = 33000  time[fs]=33.00000
   C -0.193075755E+01 -0.100108564E+00  0.680601909E-02
   C  0.192466700E+01 -0.593134386E-01 -0.120401702E+00
   H -0.109804824E+02  0.860901353E+00  0.572052742E+00
   H  0.107723221E+02  0.683251188E+00  0.669333242E+00
     4
 # iter = 33500  time[fs]=33.50000
   C -0.200199277E+01 -0.103578629E+00  0.698389878E-02
   C  0.199378486E+01 -0.612022576E-01 -0.124372047E+00
   H -0.113585089E+02  0.891333346E+00  0.591248769E+00
   H  0.111389749E+02  0.707484835E+00  0.694049300E+00
     4
 # iter = 34000  time[fs]=34.00000
   C -0.207407803E+01 -0.107115442E+00  0.713464337E-02
   C  0.206364824E+01 -0.631411670E-01 -0.128428555E+00
   H -0.117381178E+02  0.921607332E+00  0.610242564E+00
   H  0.115067287E+02  0.731542687E+00  0.718591295E+00
     4
 # iter = 34500  time[fs]=34.50000
   C -0.214684141E+01 -0.110600191E+00  0.737434829E-02
   C  0.213432504E+01 -0.650083446E-01 -0.132446907E+00
   H -0.121185580E+02  0.952384514E+00  0.629697957E+00
   H  0.118761662E+02  0.756087768E+00  0.743622270E+00
     4
 # iter = 35000  time[fs]=35.00000
   C -0.222023537E+01 -0.114033698E+00  0.769972330E-02
   C  0.220576417E+01 -0.668057774E-01 -0.136426821E+00
   H -0.124997651E+02  0.983647583E+00  0.649600036E+00
   H  0.122471979E+02  0.781103787E+00  0.769125940E+00
     4
 # iter = 35500  time[fs]=35.50000
   C -0.229428195E+01 -0.117482195E+00  0.804228890E-02
   C  0.227785120E+01 -0.686031079E-01 -0.140435877E+00
   H -0.128820524E+02  0.101500868E+01  0.669563142E+00
   H  0.126193697E+02  0.806203426E+00  0.794714988E+00
     4
 # iter = 36000  time[fs]=36.00000
   C -0.236897645E+01 -0.120981351E+00  0.836432833E-02
   C  0.235050728E+01 -0.704382334E-01 -0.144510092E+00
   H -0.132655649E+02  0.104625459E+01  0.689376071E+00
   H  0.129924076E+02  0.831174098E+00  0.820176816E+00
     4
 # iter = 36500  time[fs]=36.50000
   C -0.244426506E+01 -0.124514320E+00  0.868081860E-02
   C  0.242371146E+01 -0.722945765E-01 -0.148631172E+00
   H -0.136501539E+02  0.107747133E+01  0.709126711E+00
   H  0.133663424E+02  0.856102694E+00  0.845598305E+00
     4
 # iter = 37000  time[fs]=37.00000
   C -0.252008500E+01 -0.128052222E+00  0.901892562E-02
   C  0.249745848E+01 -0.741430288E-01 -0.152768437E+00
   H -0.140356068E+02  0.110881405E+01  0.728971929E+00
   H  0.137412784E+02  0.881145234E+00  0.871135456E+00
     4
 # iter = 37500  time[fs]=37.50000
   C -0.259639749E+01 -0.131587410E+00  0.938472471E-02
   C  0.257172391E+01 -0.759764106E-01 -0.156913267E+00
   H -0.144218351E+02  0.114031795E+01  0.748948515E+00
   H  0.141172040E+02  0.906337614E+00  0.896824142E+00
     4
 # iter = 38000  time[fs]=38.00000
   C -0.267318377E+01 -0.135129803E+00  0.976685652E-02
   C  0.264646772E+01 -0.778056760E-01 -0.161075294E+00
   H -0.148088541E+02  0.117191909E+01  0.768993984E+00
   H  0.144940117E+02  0.931616415E+00  0.922600923E+00
     4
 # iter = 38500  time[fs]=38.50000
   C -0.275042594E+01 -0.138687886E+00  0.101555047E-01
   C  0.272165371E+01 -0.796402475E-01 -0.165262725E+00
   H -0.151966735E+02  0.120356217E+01  0.789054430E+00
   H  0.148716061E+02  0.956926866E+00  0.948411001E+00
     4
 # iter = 39000  time[fs]=39.00000
   C -0.282809871E+01 -0.142260747E+00  0.105503589E-01
   C  0.279725749E+01 -0.814797615E-01 -0.169474073E+00
   H -0.155852528E+02  0.123524588E+01  0.809129787E+00
   H  0.152499487E+02  0.982268145E+00  0.974253526E+00
     4
 # iter = 39500  time[fs]=39.50000
   C -0.290617450E+01 -0.145843346E+00  0.109553271E-01
   C  0.287326089E+01 -0.833195392E-01 -0.173703627E+00
   H -0.159745304E+02  0.126699276E+01  0.829243804E+00
   H  0.156290276E+02  0.100766332E+01  0.100015153E+01
     4
 # iter = 40000  time[fs]=40.00000
   C -0.298462981E+01 -0.149433044E+00  0.113720014E-01
   C  0.294964497E+01 -0.851573492E-01 -0.177948197E+00
   H -0.163644607E+02  0.129881218E+01  0.849406934E+00
   H  0.160088200E+02  0.103312218E+01  0.102611480E+01
     4
 # iter = 40500  time[fs]=40.50000
   C -0.306344584E+01 -0.153030376E+00  0.117988776E-01
   C  0.302638907E+01 -0.869942117E-01 -0.182207918E+00
   H -0.167550183E+02  0.133069583E+01  0.869611912E+00
   H  0.163892877E+02  0.105863685E+01  0.105213540E+01
     4
 # iter = 41000  time[fs]=41.00000
   C -0.314260568E+01 -0.156636401E+00  0.122339972E-01
   C  0.310347345E+01 -0.888316569E-01 -0.186483498E+00
   H -0.171461826E+02  0.136263278E+01  0.889848783E+00
   H  0.167703919E+02  0.108419677E+01  0.107820274E+01
     4
 # iter = 41500  time[fs]=41.50000
   C -0.322209257E+01 -0.160251043E+00  0.126765995E-01
   C  0.318088082E+01 -0.906700106E-01 -0.190774499E+00
   H -0.175379282E+02  0.139461890E+01  0.910114296E+00
   H  0.171521023E+02  0.110979814E+01  0.110431302E+01
     4
 # iter = 42000  time[fs]=42.00000
   C -0.330189010E+01 -0.163873462E+00  0.131267454E-01
   C  0.325859589E+01 -0.925087808E-01 -0.195079719E+00
   H -0.179302272E+02  0.142665464E+01  0.930409779E+00
   H  0.175343951E+02  0.113544178E+01  0.113046699E+01
     4
 # iter = 42500  time[fs]=42.50000
   C -0.338198310E+01 -0.167502958E+00  0.135844099E-01
   C  0.333660433E+01 -0.943475942E-01 -0.199398123E+00
   H -0.183230539E+02  0.145873998E+01  0.950735991E+00
   H  0.179172473E+02  0.116112796E+01  0.115666492E+01
     4
 # iter = 43000  time[fs]=43.00000
   C -0.346235773E+01 -0.171139240E+00  0.140492067E-01
   C  0.341489237E+01 -0.961864789E-01 -0.203729122E+00
   H -0.187163862E+02  0.149087279E+01  0.971091563E+00
   H  0.183006354E+02  0.118685485E+01  0.118290493E+01
     4
 # iter = 43500  time[fs]=43.50000
   C -0.354300121E+01 -0.174782174E+00  0.145206371E-01
   C  0.349344699E+01 -0.980256046E-01 -0.208072310E+00
   H -0.191102040E+02  0.152305029E+01  0.991474422E+00
   H  0.186845364E+02  0.121261995E+01  0.120918451E+01
     4
 # iter = 44000  time[fs]=44.00000
   C -0.362390150E+01 -0.178431551E+00  0.149983175E-01
   C  0.357225612E+01 -0.998650445E-01 -0.212427220E+00
   H -0.195044882E+02  0.155527034E+01  0.101188309E+01
   H  0.190689294E+02  0.123842136E+01  0.123550171E+01
     4
 # iter = 44500  time[fs]=44.50000
   C -0.370504722E+01 -0.182087081E+00  0.154819833E-01
   C  0.365130851E+01 -0.101704770E+00 -0.216793318E+00
   H -0.198992201E+02  0.158753144E+01  0.103231670E+01
   H  0.194537949E+02  0.126425785E+01  0.126185529E+01
     4
 # iter = 45000  time[fs]=45.00000
   C -0.378642769E+01 -0.185748479E+00  0.159713982E-01
   C  0.373059364E+01 -0.103544740E+00 -0.221170092E+00
   H -0.202943821E+02  0.161983226E+01  0.105277452E+01
   H  0.198391148E+02  0.129012830E+01  0.128824408E+01
     4
 # iter = 45500  time[fs]=45.50000
   C -0.386803289E+01 -0.189415507E+00  0.164663109E-01
   C  0.381010159E+01 -0.105384951E+00 -0.225557092E+00
   H -0.206899578E+02  0.165217135E+01  0.107325567E+01
   H  0.202248719E+02  0.131603147E+01  0.131466684E+01
     4
 # iter = 46000  time[fs]=46.00000
   C -0.394985344E+01 -0.193087960E+00  0.169664676E-01
   C  0.388982304E+01 -0.107225415E+00 -0.229953912E+00
   H -0.210859316E+02  0.168454725E+01  0.109375920E+01
   H  0.206110496E+02  0.134196612E+01  0.134112227E+01
     4
 # iter = 46500  time[fs]=46.50000
   C -0.403188050E+01 -0.196765641E+00  0.174716331E-01
   C  0.396974918E+01 -0.109066140E+00 -0.234360169E+00
   H -0.214822890E+02  0.171695859E+01  0.111428426E+01
   H  0.209976325E+02  0.136793106E+01  0.136760919E+01
     4
 # iter = 47000  time[fs]=47.00000
   C -0.411410574E+01 -0.200448353E+00  0.179815947E-01
   C  0.404987176E+01 -0.110907126E+00 -0.238775492E+00
   H -0.218790160E+02  0.174940410E+01  0.113483006E+01
   H  0.213846058E+02  0.139392523E+01  0.139412648E+01
     4
 # iter = 47500  time[fs]=47.50000
   C -0.419652130E+01 -0.204135911E+00  0.184961544E-01
   C  0.413018298E+01 -0.112748369E+00 -0.243199529E+00
   H -0.222760996E+02  0.178188263E+01  0.115539591E+01
   H  0.217719557E+02  0.141994762E+01  0.142067312E+01
     4
 # iter = 48000  time[fs]=48.00000
   C -0.427911974E+01 -0.207828140E+00  0.190151243E-01
   C  0.421067548E+01 -0.114589868E+00 -0.247631948E+00
   H -0.226735271E+02  0.181439304E+01  0.117598109E+01
   H  0.221596691E+02  0.144599726E+01  0.144724812E+01
     4
 # iter = 48500  time[fs]=48.50000
   C -0.436189408E+01 -0.211524874E+00  0.195383259E-01
   C  0.429134230E+01 -0.116431621E+00 -0.252072439E+00
   H -0.230712869E+02  0.184693426E+01  0.119658495E+01
   H  0.225477333E+02  0.147207325E+01  0.147385055E+01
     4
 # iter = 49000  time[fs]=49.00000
   C -0.444483766E+01 -0.215225958E+00  0.200655905E-01
   C  0.437217687E+01 -0.118273630E+00 -0.256520707E+00
   H -0.234693676E+02  0.187950527E+01  0.121720685E+01
   H  0.229361367E+02  0.149817470E+01  0.150047950E+01
     4
 # iter = 49500  time[fs]=49.50000
   C -0.452794423E+01 -0.218931243E+00  0.205967595E-01
   C  0.445317296E+01 -0.120115891E+00 -0.260976473E+00
   H -0.238677585E+02  0.191210508E+01  0.123784619E+01
   H  0.233248677E+02  0.152430078E+01  0.152713411E+01
     4
 # iter = 50000  time[fs]=50.00000
   C -0.461120784E+01 -0.222640587E+00  0.211316831E-01
   C  0.453432468E+01 -0.121958403E+00 -0.265439470E+00
   H -0.242664495E+02  0.194473278E+01  0.125850241E+01
   H  0.237139158E+02  0.155045071E+01  0.155381358E+01
     4
 # iter = 50500  time[fs]=50.50000
   C -0.469462285E+01 -0.226353857E+00  0.216702198E-01
   C  0.461562644E+01 -0.123801165E+00 -0.269909449E+00
   H -0.246654309E+02  0.197738748E+01  0.127917497E+01
   H  0.241032706E+02  0.157662372E+01  0.158051713E+01
     4
 # iter = 51000  time[fs]=51.00000
   C -0.477818390E+01 -0.230070924E+00  0.222122352E-01
   C  0.469707292E+01 -0.125644174E+00 -0.274386168E+00
   H -0.250646935E+02  0.201006835E+01  0.129986334E+01
   H  0.244929225E+02  0.160281910E+01  0.160724401E+01
     4
 # iter = 51500  time[fs]=51.50000
   C -0.486188594E+01 -0.233791665E+00  0.227576022E-01
   C  0.477865910E+01 -0.127487429E+00 -0.278869403E+00
   H -0.254642284E+02  0.204277458E+01  0.132056703E+01
   H  0.248828620E+02  0.162903616E+01  0.163399353E+01
     4
 # iter = 52000  time[fs]=52.00000
   C -0.494572411E+01 -0.237515965E+00  0.233062003E-01
   C  0.486038019E+01 -0.129330926E+00 -0.283358935E+00
   H -0.258640274E+02  0.207550541E+01  0.134128558E+01
   H  0.252730804E+02  0.165527425E+01  0.166076500E+01
     4
 # iter = 52500  time[fs]=52.50000
   C -0.502969384E+01 -0.241243714E+00  0.238579149E-01
   C  0.494223163E+01 -0.131174664E+00 -0.287854560E+00
   H -0.262640822E+02  0.210826010E+01  0.136201852E+01
   H  0.256635692E+02  0.168153274E+01  0.168755777E+01
     4
 # iter = 53000  time[fs]=53.00000
   C -0.511379076E+01 -0.244974804E+00  0.244126375E-01
   C  0.502420908E+01 -0.133018641E+00 -0.292356082E+00
   H -0.266643854E+02  0.214103795E+01  0.138276545E+01
   H  0.260543203E+02  0.170781102E+01  0.171437124E+01
     4
 # iter = 53500  time[fs]=53.50000
   C -0.519801069E+01 -0.248709134E+00  0.249702647E-01
   C  0.510630843E+01 -0.134862853E+00 -0.296863314E+00
   H -0.270649295E+02  0.217383829E+01  0.140352594E+01
   H  0.264453259E+02  0.173410854E+01  0.174120481E+01
     4
 # iter = 54000  time[fs]=54.00000
   C -0.528234968E+01 -0.252446609E+00  0.255306983E-01
   C  0.518852573E+01 -0.136707298E+00 -0.301376077E+00
   H -0.274657075E+02  0.220666048E+01  0.142429959E+01
   H  0.268365786E+02  0.176042473E+01  0.176805791E+01
     4
 # iter = 54500  time[fs]=54.50000
   C -0.536680394E+01 -0.256187136E+00  0.260938446E-01
   C  0.527085723E+01 -0.138551974E+00 -0.305894201E+00
   H -0.278667128E+02  0.223950390E+01  0.144508604E+01
   H  0.272280713E+02  0.178675907E+01  0.179493000E+01
     4
 # iter = 55000  time[fs]=55.00000
   C -0.545136985E+01 -0.259930625E+00  0.266596147E-01
   C  0.535329936E+01 -0.140396878E+00 -0.310417525E+00
   H -0.282679389E+02  0.227236798E+01  0.146588493E+01
   H  0.276197972E+02  0.181311106E+01  0.182182055E+01
     4
 # iter = 55500  time[fs]=55.50000
   C -0.553604396E+01 -0.263676993E+00  0.272279236E-01
   C  0.543584868E+01 -0.142242008E+00 -0.314945891E+00
   H -0.286693796E+02  0.230525213E+01  0.148669590E+01
   H  0.280117499E+02  0.183948022E+01  0.184872907E+01
     4
 # iter = 56000  time[fs]=56.00000
   C -0.562082299E+01 -0.267426157E+00  0.277986903E-01
   C  0.551850193E+01 -0.144087360E+00 -0.319479152E+00
   H -0.290710290E+02  0.233815582E+01  0.150751864E+01
   H  0.284039230E+02  0.186586607E+01  0.187565507E+01
     4
 # iter = 56500  time[fs]=56.50000
   C -0.570570378E+01 -0.271178041E+00  0.283718374E-01
   C  0.560125599E+01 -0.145932932E+00 -0.324017166E+00
   H -0.294728815E+02  0.237107852E+01  0.152835280E+01
   H  0.287963105E+02  0.189226817E+01  0.190259810E+01
     4
 # iter = 57000  time[fs]=57.00000
   C -0.579068330E+01 -0.274932568E+00  0.289472911E-01
   C  0.568410787E+01 -0.147778722E+00 -0.328559795E+00
   H -0.298749315E+02  0.240401974E+01  0.154919811E+01
   H  0.291889068E+02  0.191868610E+01  0.192955771E+01
     4
 # iter = 57500  time[fs]=57.50000
   C -0.587575867E+01 -0.278689669E+00  0.295249809E-01
   C  0.576705469E+01 -0.149624726E+00 -0.333106910E+00
   H -0.302771740E+02  0.243697899E+01  0.157005425E+01
   H  0.295817062E+02  0.194511944E+01  0.195653347E+01
     4
 # iter = 58000  time[fs]=58.00000
   C -0.596092714E+01 -0.282449272E+00  0.301048391E-01
   C  0.585009373E+01 -0.151470942E+00 -0.337658385E+00
   H -0.306796037E+02  0.246995581E+01  0.159092095E+01
   H  0.299747035E+02  0.197156779E+01  0.198352497E+01
     4
 # iter = 58500  time[fs]=58.50000
   C -0.604618603E+01 -0.286211314E+00  0.306868013E-01
   C  0.593322234E+01 -0.153317367E+00 -0.342214101E+00
   H -0.310822160E+02  0.250294976E+01  0.161179793E+01
   H  0.303678935E+02  0.199803078E+01  0.201053183E+01
     4
 # iter = 59000  time[fs]=59.00000
   C -0.613153282E+01 -0.289975729E+00  0.312708056E-01
   C  0.601643802E+01 -0.155163999E+00 -0.346773940E+00
   H -0.314850061E+02  0.253596041E+01  0.163268494E+01
   H  0.307612714E+02  0.202450804E+01  0.203755365E+01
     4
 # iter = 59500  time[fs]=59.50000
   C -0.621696506E+01 -0.293742457E+00  0.318567928E-01
   C  0.609973834E+01 -0.157010834E+00 -0.351337794E+00
   H -0.318879695E+02  0.256898734E+01  0.165358172E+01
   H  0.311548323E+02  0.205099921E+01  0.206459007E+01
     4
 # iter = 60000  time[fs]=60.00000
   C -0.630248041E+01 -0.297511438E+00  0.324447061E-01
   C  0.618312097E+01 -0.158857871E+00 -0.355905556E+00
   H -0.322911020E+02  0.260203015E+01  0.167448803E+01
   H  0.315485718E+02  0.207750396E+01  0.209164073E+01
     4
 # iter = 60500  time[fs]=60.50000
   C -0.638807662E+01 -0.301282616E+00  0.330344912E-01
   C  0.626658370E+01 -0.160705107E+00 -0.360477123E+00
   H -0.326943994E+02  0.263508846E+01  0.169540365E+01
   H  0.319424853E+02  0.210402195E+01  0.211870530E+01
     4
 # iter = 61000  time[fs]=61.00000
   C -0.647375153E+01 -0.305055937E+00  0.336260957E-01
   C  0.635012438E+01 -0.162552538E+00 -0.365052396E+00
   H -0.330978577E+02  0.266816191E+01  0.171632833E+01
   H  0.323365688E+02  0.213055287E+01  0.214578345E+01
     4
 # iter = 61500  time[fs]=61.50000
   C -0.655950307E+01 -0.308831347E+00  0.342194695E-01
   C  0.643374095E+01 -0.164400163E+00 -0.369631283E+00
   H -0.335014730E+02  0.270125013E+01  0.173726187E+01
   H  0.327308181E+02  0.215709641E+01  0.217287486E+01
     4
 # iter = 62000  time[fs]=62.00000
   C -0.664532922E+01 -0.312608796E+00  0.348145645E-01
   C  0.651743142E+01 -0.166247979E+00 -0.374213690E+00
   H -0.339052415E+02  0.273435278E+01  0.175820406E+01
   H  0.331252292E+02  0.218365228E+01  0.219997922E+01
     4
 # iter = 62500  time[fs]=62.50000
   C -0.673122808E+01 -0.316388236E+00  0.354113345E-01
   C  0.660119390E+01 -0.168095983E+00 -0.378799530E+00
   H -0.343091598E+02  0.276746953E+01  0.177915469E+01
   H  0.335197985E+02  0.221022019E+01  0.222709624E+01
     4
 # iter = 63000  time[fs]=63.00000
   C -0.681719779E+01 -0.320169618E+00  0.360097348E-01
   C  0.668502655E+01 -0.169944173E+00 -0.383388720E+00
   H -0.347132243E+02  0.280060005E+01  0.180011357E+01
   H  0.339145221E+02  0.223679987E+01  0.225422563E+01
     4
 # iter = 63500  time[fs]=63.50000
   C -0.690323656E+01 -0.323952898E+00  0.366097229E-01
   C  0.676892759E+01 -0.171792546E+00 -0.387981176E+00
   H -0.351174316E+02  0.283374404E+01  0.182108051E+01
   H  0.343093966E+02  0.226339106E+01  0.228136711E+01
     4
 # iter = 64000  time[fs]=64.00000
   C -0.698934268E+01 -0.327738030E+00  0.372112575E-01
   C  0.685289533E+01 -0.173641100E+00 -0.392576822E+00
   H -0.355217786E+02  0.286690120E+01  0.184205533E+01
   H  0.347044185E+02  0.228999349E+01  0.230852042E+01
     4
 # iter = 64500  time[fs]=64.50000
   C -0.707551449E+01 -0.331524974E+00  0.378142989E-01
   C  0.693692813E+01 -0.175489832E+00 -0.397175580E+00
   H -0.359262621E+02  0.290007122E+01  0.186303785E+01
   H  0.350995845E+02  0.231660691E+01  0.233568530E+01
     4
 # iter = 65000  time[fs]=65.00000
   C -0.716175039E+01 -0.335313687E+00  0.384188091E-01
   C  0.702102440E+01 -0.177338741E+00 -0.401777377E+00
   H -0.363308790E+02  0.293325385E+01  0.188402791E+01
   H  0.354948914E+02  0.234323110E+01  0.236286149E+01
     4
 # iter = 65500  time[fs]=65.50000
   C -0.724804885E+01 -0.339104130E+00  0.390247513E-01
   C  0.710518262E+01 -0.179187824E+00 -0.406382144E+00
   H -0.367356264E+02  0.296644879E+01  0.190502533E+01
   H  0.358903361E+02  0.236986580E+01  0.239004876E+01
     4
 # iter = 66000  time[fs]=66.00000
   C -0.733440837E+01 -0.342896265E+00  0.396320899E-01
   C  0.718940131E+01 -0.181037077E+00 -0.410989811E+00
   H -0.371405016E+02  0.299965579E+01  0.192602997E+01
   H  0.362859157E+02  0.239651081E+01  0.241724687E+01
     4
 # iter = 66500  time[fs]=66.50000
   C -0.742082753E+01 -0.346690055E+00  0.402407909E-01
   C  0.727367905E+01 -0.182886500E+00 -0.415600313E+00
   H -0.375455016E+02  0.303287459E+01  0.194704166E+01
   H  0.366816272E+02  0.242316589E+01  0.244445559E+01
     4
 # iter = 67000  time[fs]=67.00000
   C -0.750730492E+01 -0.350485462E+00  0.408508213E-01
   C  0.735801446E+01 -0.184736090E+00 -0.420213585E+00
   H -0.379506240E+02  0.306610495E+01  0.196806025E+01
   H  0.370774677E+02  0.244983084E+01  0.247167471E+01
     4
 # iter = 67500  time[fs]=67.50000
   C -0.759383922E+01 -0.354282454E+00  0.414621492E-01
   C  0.744240622E+01 -0.186585845E+00 -0.424829567E+00
   H -0.383558661E+02  0.309934663E+01  0.198908560E+01
   H  0.374734347E+02  0.247650546E+01  0.249890400E+01
     4
 # iter = 68000  time[fs]=68.00000
   C -0.768042913E+01 -0.358080996E+00  0.420747439E-01
   C  0.752685305E+01 -0.188435762E+00 -0.429448198E+00
   H -0.387612254E+02  0.313259939E+01  0.201011757E+01
   H  0.378695254E+02  0.250318954E+01  0.252614326E+01
     4
 # iter = 68500  time[fs]=68.50000
   C -0.776707340E+01 -0.361881055E+00  0.426885759E-01
   C  0.761135370E+01 -0.190285839E+00 -0.434069421E+00
   H -0.391666995E+02  0.316586301E+01  0.203115603E+01
   H  0.382657373E+02  0.252988290E+01  0.255339230E+01
     4
 # iter = 69000  time[fs]=69.00000
   C -0.785377081E+01 -0.365682599E+00  0.433036164E-01
   C  0.769590697E+01 -0.192136075E+00 -0.438693180E+00
   H -0.395722860E+02  0.319913727E+01  0.205220084E+01
   H  0.386620679E+02  0.255658534E+01  0.258065091E+01
     4
 # iter = 69500  time[fs]=69.50000
   C -0.794052019E+01 -0.369485599E+00  0.439198377E-01
   C  0.778051170E+01 -0.193986466E+00 -0.443319420E+00
   H -0.399779828E+02  0.323242196E+01  0.207325187E+01
   H  0.390585148E+02  0.258329669E+01  0.260791891E+01
     4
 # iter = 70000  time[fs]=70.00000
   C -0.802732041E+01 -0.373290025E+00  0.445372130E-01
   C  0.786516677E+01 -0.195837012E+00 -0.447948090E+00
   H -0.403837874E+02  0.326571688E+01  0.209430901E+01
   H  0.394550757E+02  0.261001677E+01  0.263519611E+01
     4
 # iter = 70500  time[fs]=70.50000
   C -0.811417037E+01 -0.377095846E+00  0.451557165E-01
   C  0.794987110E+01 -0.197687710E+00 -0.452579138E+00
   H -0.407896980E+02  0.329902182E+01  0.211537212E+01
   H  0.398517483E+02  0.263674540E+01  0.266248233E+01
     4
 # iter = 71000  time[fs]=71.00000
   C -0.820106900E+01 -0.380903037E+00  0.457753230E-01
   C  0.803462361E+01 -0.199538557E+00 -0.457212516E+00
   H -0.411957123E+02  0.333233659E+01  0.213644110E+01
   H  0.402485304E+02  0.266348243E+01  0.268977741E+01
     4
 # iter = 71500  time[fs]=71.50000
   C -0.828801529E+01 -0.384711568E+00  0.463960084E-01
   C  0.811942330E+01 -0.201389553E+00 -0.461848174E+00
   H -0.416018283E+02  0.336566100E+01  0.215751582E+01
   H  0.406454199E+02  0.269022769E+01  0.271708117E+01
     4
 # iter = 72000  time[fs]=72.00000
   C -0.837500821E+01 -0.388521415E+00  0.470177492E-01
   C  0.820426918E+01 -0.203240695E+00 -0.466486069E+00
   H -0.420080441E+02  0.339899487E+01  0.217859618E+01
   H  0.410424147E+02  0.271698102E+01  0.274439345E+01
     4
 # iter = 72500  time[fs]=72.50000
   C -0.846204682E+01 -0.392332551E+00  0.476405226E-01
   C  0.828916028E+01 -0.205091981E+00 -0.471126153E+00
   H -0.424143577E+02  0.343233802E+01  0.219968208E+01
   H  0.414395128E+02  0.274374228E+01  0.277171408E+01
     4
 # iter = 73000  time[fs]=73.00000
   C -0.854913017E+01 -0.396144952E+00  0.482643065E-01
   C  0.837409568E+01 -0.206943410E+00 -0.475768384E+00
   H -0.428207674E+02  0.346569028E+01  0.222077340E+01
   H  0.418367122E+02  0.277051131E+01  0.279904293E+01
     4
 # iter = 73500  time[fs]=73.50000
   C -0.863625734E+01 -0.399958594E+00  0.488890797E-01
   C  0.845907447E+01 -0.208794979E+00 -0.480412720E+00
   H -0.432272713E+02  0.349905148E+01  0.224187005E+01
   H  0.422340111E+02  0.279728797E+01  0.282637983E+01
     4
 # iter = 74000  time[fs]=74.00000
   C -0.872342746E+01 -0.403773452E+00  0.495148215E-01
   C  0.854409578E+01 -0.210646686E+00 -0.485059118E+00
   H -0.436338676E+02  0.353242146E+01  0.226297193E+01
   H  0.426314076E+02  0.282407213E+01  0.285372463E+01
     4
 # iter = 74500  time[fs]=74.50000
   C -0.881063966E+01 -0.407589504E+00  0.501415118E-01
   C  0.862915876E+01 -0.212498531E+00 -0.489707540E+00
   H -0.440405547E+02  0.356580006E+01  0.228407893E+01
   H  0.430288999E+02  0.285086363E+01  0.288107721E+01
     4
 # iter = 75000  time[fs]=75.00000
   C -0.889789312E+01 -0.411406729E+00  0.507691310E-01
   C  0.871426257E+01 -0.214350511E+00 -0.494357947E+00
   H -0.444473309E+02  0.359918712E+01  0.230519098E+01
   H  0.434264862E+02  0.287766237E+01  0.290843741E+01
     4
 # iter = 75500  time[fs]=75.50000
   C -0.898518703E+01 -0.415225103E+00  0.513976605E-01
   C  0.879940643E+01 -0.216202624E+00 -0.499010300E+00
   H -0.448541946E+02  0.363258249E+01  0.232630798E+01
   H  0.438241648E+02  0.290446819E+01  0.293580510E+01
     4
 # iter = 76000  time[fs]=76.00000
   C -0.907252059E+01 -0.419044607E+00  0.520270818E-01
   C  0.888458956E+01 -0.218054870E+00 -0.503664564E+00
   H -0.452611443E+02  0.366598602E+01  0.234742983E+01
   H  0.442219342E+02  0.293128099E+01  0.296318016E+01
     4
 # iter = 76500  time[fs]=76.50000
   C -0.915989305E+01 -0.422865220E+00  0.526573771E-01
   C  0.896981119E+01 -0.219907245E+00 -0.508320702E+00
   H -0.456681783E+02  0.369939758E+01  0.236855646E+01
   H  0.446197926E+02  0.295810063E+01  0.299056245E+01
     4
 # iter = 77000  time[fs]=77.00000
   C -0.924730367E+01 -0.426686922E+00  0.532885292E-01
   C  0.905507059E+01 -0.221759749E+00 -0.512978680E+00
   H -0.460752953E+02  0.373281702E+01  0.238968778E+01
   H  0.450177385E+02  0.298492700E+01  0.301795184E+01
     4
 # iter = 77500  time[fs]=77.50000
   C -0.933475171E+01 -0.430509694E+00  0.539205213E-01
   C  0.914036705E+01 -0.223612379E+00 -0.517638465E+00
   H -0.464824937E+02  0.376624421E+01  0.241082370E+01
   H  0.454157704E+02  0.301175997E+01  0.304534823E+01
     4
 # iter = 78000  time[fs]=78.00000
   C -0.942223649E+01 -0.434333517E+00  0.545533371E-01
   C  0.922569988E+01 -0.225465135E+00 -0.522300023E+00
   H -0.468897722E+02  0.379967902E+01  0.243196416E+01
   H  0.458138867E+02  0.303859945E+01  0.307275148E+01
     4
 # iter = 78500  time[fs]=78.50000
   C -0.950975732E+01 -0.438158372E+00  0.551869608E-01
   C  0.931106839E+01 -0.227318015E+00 -0.526963322E+00
   H -0.472971294E+02  0.383312131E+01  0.245310906E+01
   H  0.462120861E+02  0.306544532E+01  0.310016148E+01
     4
 # iter = 79000  time[fs]=79.00000
   C -0.959731354E+01 -0.441984242E+00  0.558213770E-01
   C  0.939647194E+01 -0.229171016E+00 -0.531628332E+00
   H -0.477045639E+02  0.386657096E+01  0.247425835E+01
   H  0.466103671E+02  0.309229746E+01  0.312757813E+01
     4
 # iter = 79500  time[fs]=79.50000
   C -0.968490450E+01 -0.445811108E+00  0.564565707E-01
   C  0.948190987E+01 -0.231024139E+00 -0.536295023E+00
   H -0.481120745E+02  0.390002785E+01  0.249541193E+01
   H  0.470087283E+02  0.311915578E+01  0.315500130E+01
     4
 # iter = 80000  time[fs]=80.00000
   C -0.977252957E+01 -0.449638955E+00  0.570925273E-01
   C  0.956738158E+01 -0.232877380E+00 -0.540963364E+00
   H -0.485196598E+02  0.393349186E+01  0.251656975E+01
   H  0.474071684E+02  0.314602018E+01  0.318243090E+01
