     4
 # iter = 25000  time[fs]=25.00000
   C -0.962029942E+00 -0.328464445E-01 -0.189052908E-02
   C  0.998473464E+00  0.219666188E-01  0.569496731E-02
   H -0.515926707E+01 -0.366906423E+00  0.455864813E+00
   H  0.525697793E+01  0.338364594E+00 -0.447557896E+00
     4
 # iter = 25500  time[fs]=25.50000
   C -0.100811122E+01 -0.333674758E-01 -0.529971538E-02
   C  0.104069643E+01  0.202923830E-01  0.546638165E-02
   H -0.549826931E+01 -0.395883336E+00  0.474485514E+00
   H  0.556396885E+01  0.352357825E+00 -0.486341442E+00
     4
 # iter = 26000  time[fs]=26.00000
   C -0.105865158E+01 -0.348883630E-01 -0.965023031E-02
   C  0.108543587E+01  0.176745500E-01  0.423426255E-02
   H -0.584543559E+01 -0.430469586E+00  0.487963632E+00
   H  0.586828530E+01  0.361132097E+00 -0.530793794E+00
     4
 # iter = 26500  time[fs]=26.50000
   C -0.111063034E+01 -0.346792264E-01 -0.122259691E-01
   C  0.113546046E+01  0.171754148E-01  0.507563330E-02
   H -0.618435502E+01 -0.454552381E+00  0.512355678E+00
   H  0.618573933E+01  0.380763651E+00 -0.564793872E+00
     4
 # iter = 27000  time[fs]=27.00000
   C -0.116362784E+01 -0.325949072E-01 -0.128932750E-01
   C  0.119063596E+01  0.189360739E-01  0.814356228E-02
   H -0.651396920E+01 -0.467315900E+00  0.548432116E+00
   H  0.651687768E+01  0.412031996E+00 -0.587522443E+00
     4
 # iter = 27500  time[fs]=27.50000
   C -0.121940110E+01 -0.306479426E-01 -0.136741592E-01
   C  0.124841021E+01  0.206592452E-01  0.111503670E-01
   H -0.684603280E+01 -0.480713903E+00  0.584202266E+00
   H  0.684950396E+01  0.442947085E+00 -0.610934144E+00
     4
 # iter = 28000  time[fs]=28.00000
   C -0.127913883E+01 -0.302610028E-01 -0.159989013E-01
   C  0.130692294E+01  0.207181583E-01  0.124769736E-01
   H -0.718882984E+01 -0.503201739E+00  0.611179224E+00
   H  0.717495530E+01  0.465023219E+00 -0.643484166E+00
     4
 # iter = 28500  time[fs]=28.50000
   C -0.134204454E+01 -0.308495483E-01 -0.192889526E-01
   C  0.136660930E+01  0.197601590E-01  0.127768996E-01
   H -0.753877277E+01 -0.531344178E+00  0.632770313E+00
   H  0.749649598E+01  0.481674025E+00 -0.681733144E+00
     4
 # iter = 29000  time[fs]=29.00000
   C -0.140650324E+01 -0.309900779E-01 -0.221255079E-01
   C  0.142887625E+01  0.193842218E-01  0.136540173E-01
   H -0.788731962E+01 -0.556733849E+00  0.657358354E+00
   H  0.782238878E+01  0.501290405E+00 -0.717268049E+00
     4
 # iter = 29500  time[fs]=29.50000
   C -0.147184750E+01 -0.301881591E-01 -0.240178312E-01
   C  0.149409985E+01  0.201396692E-01  0.156614685E-01
   H -0.823144483E+01 -0.576461752E+00  0.687831179E+00
   H  0.815541278E+01  0.526765027E+00 -0.747176517E+00
     4
 # iter = 30000  time[fs]=30.00000
   C -0.153860369E+01 -0.291263353E-01 -0.256513680E-01
   C  0.156134286E+01  0.212453179E-01  0.180210073E-01
   H -0.857510572E+01 -0.594585851E+00  0.720112615E+00
   H  0.849139070E+01  0.554022710E+00 -0.775515946E+00
     4
 # iter = 30500  time[fs]=30.50000
   C -0.160739369E+01 -0.285670388E-01 -0.277907953E-01
   C  0.162959469E+01  0.218308962E-01  0.198646115E-01
   H -0.892274207E+01 -0.615634460E+00  0.749658387E+00
   H  0.882568767E+01  0.578519512E+00 -0.806814373E+00
     4
 # iter = 31000  time[fs]=31.00000
   C -0.167809910E+01 -0.285180305E-01 -0.304455757E-01
   C  0.169871420E+01  0.218813814E-01  0.211789770E-01
   H -0.927433125E+01 -0.639664242E+00  0.776397560E+00
   H  0.915815456E+01  0.600186578E+00 -0.841126581E+00
     4
 # iter = 31500  time[fs]=31.50000
   C -0.175010451E+01 -0.284772566E-01 -0.331149257E-01
   C  0.176915094E+01  0.219596824E-01  0.225283094E-01
   H -0.962683746E+01 -0.663710778E+00  0.803281733E+00
   H  0.949167512E+01  0.621978740E+00 -0.875485242E+00
     4
 # iter = 32000  time[fs]=32.00000
   C -0.182299611E+01 -0.281328653E-01 -0.354879309E-01
   C  0.184115134E+01  0.224141960E-01  0.242619599E-01
   H -0.997835743E+01 -0.685934674E+00  0.832138844E+00
   H  0.982801593E+01  0.645726436E+00 -0.908048659E+00
     4
 # iter = 32500  time[fs]=32.50000
   C -0.189681135E+01 -0.276142215E-01 -0.376946357E-01
   C  0.191447321E+01  0.230945820E-01  0.262302656E-01
   H -0.103296066E+02 -0.707108416E+00  0.862186187E+00
   H  0.101663375E+02  0.670648077E+00 -0.939588178E+00
     4
 # iter = 33000  time[fs]=33.00000
   C -0.197173635E+01 -0.271903306E-01 -0.400045193E-01
   C  0.198872592E+01  0.236930011E-01  0.281258489E-01
   H -0.106821320E+02 -0.728830429E+00  0.891816162E+00
   H  0.105049804E+02  0.695136626E+00 -0.971701516E+00
     4
 # iter = 33500  time[fs]=33.50000
   C -0.204777406E+01 -0.269390221E-01 -0.424957199E-01
   C  0.206374369E+01  0.241184625E-01  0.298580145E-01
   H -0.110363524E+02 -0.751565962E+00  0.920555212E+00
   H  0.108434244E+02  0.718719452E+00 -0.100485284E+01
     4
 # iter = 34000  time[fs]=34.00000
   C -0.212474015E+01 -0.267436180E-01 -0.450517378E-01
   C  0.213958848E+01  0.245005204E-01  0.315564835E-01
   H -0.113915379E+02 -0.774627528E+00  0.949083263E+00
   H  0.111823076E+02  0.742077808E+00 -0.103835319E+01
     4
 # iter = 34500  time[fs]=34.50000
   C -0.220245933E+01 -0.264901661E-01 -0.475586985E-01
   C  0.221632582E+01  0.249659730E-01  0.333481194E-01
   H -0.117469782E+02 -0.797343198E+00  0.978065359E+00
   H  0.115222571E+02  0.765877960E+00 -0.107152927E+01
     4
 # iter = 35000  time[fs]=35.00000
   C -0.228087688E+01 -0.261795834E-01 -0.500175198E-01
   C  0.229389718E+01  0.255118816E-01  0.352299688E-01
   H -0.121026458E+02 -0.819720888E+00  0.100748730E+01
   H  0.118632236E+02  0.790106538E+00 -0.110438800E+01
     4
 # iter = 35500  time[fs]=35.50000
   C -0.236000592E+01 -0.258755995E-01 -0.524918724E-01
   C  0.237217822E+01  0.260644535E-01  0.371281626E-01
   H -0.124588881E+02 -0.842140113E+00  0.103696385E+01
   H  0.122047893E+02  0.814378873E+00 -0.113730808E+01
     4
 # iter = 36000  time[fs]=36.00000
   C -0.243983475E+01 -0.256126235E-01 -0.550160611E-01
   C  0.245108253E+01  0.265832889E-01  0.390021783E-01
   H -0.128158811E+02 -0.864806363E+00  0.106628424E+01
   H  0.125467137E+02  0.838484796E+00 -0.117049420E+01
     4
 # iter = 36500  time[fs]=36.50000
   C -0.252030531E+01 -0.253746678E-01 -0.575739590E-01
   C  0.253058491E+01  0.270852079E-01  0.408686789E-01
   H -0.131735043E+02 -0.887626335E+00  0.109553693E+01
   H  0.128890581E+02  0.862513421E+00 -0.120385220E+01
     4
 # iter = 37000  time[fs]=37.00000
   C -0.260135164E+01 -0.251342051E-01 -0.601378738E-01
   C  0.261067699E+01  0.276002437E-01  0.427575146E-01
   H -0.135315707E+02 -0.910438133E+00  0.112487936E+01
   H  0.132319547E+02  0.886622811E+00 -0.123721933E+01
     4
 # iter = 37500  time[fs]=37.50000
   C -0.268293135E+01 -0.248840937E-01 -0.627004804E-01
   C  0.269133071E+01  0.281354860E-01  0.446755737E-01
   H -0.138900159E+02 -0.933200395E+00  0.115434875E+01
   H  0.135754175E+02  0.910850736E+00 -0.127055347E+01
     4
 # iter = 38000  time[fs]=38.00000
   C -0.276502187E+01 -0.246340519E-01 -0.652713006E-01
   C  0.277250192E+01  0.286790545E-01  0.466107618E-01
   H -0.142488767E+02 -0.955971439E+00  0.118388298E+01
   H  0.139193627E+02  0.935135501E+00 -0.130391228E+01
     4
 # iter = 38500  time[fs]=38.50000
   C -0.284760182E+01 -0.243924268E-01 -0.678584770E-01
   C  0.285415076E+01  0.292207194E-01  0.485526265E-01
   H -0.146081833E+02 -0.978801315E+00  0.121342844E+01
   H  0.142637166E+02  0.959423927E+00 -0.133734519E+01
     4
 # iter = 39000  time[fs]=39.00000
   C -0.293064320E+01 -0.241585390E-01 -0.704611202E-01
   C  0.293624999E+01  0.297605540E-01  0.505010140E-01
   H -0.149679137E+02 -0.100168648E+01  0.124298538E+01
   H  0.146084608E+02  0.983716660E+00 -0.137084806E+01
     4
 # iter = 39500  time[fs]=39.50000
   C -0.301411614E+01 -0.239277467E-01 -0.730743767E-01
   C  0.301877908E+01  0.303031911E-01  0.524603279E-01
   H -0.153280237E+02 -0.102459983E+01  0.127257786E+01
   H  0.149536020E+02  0.100803813E+01 -0.140439317E+01
     4
 # iter = 40000  time[fs]=40.00000
   C -0.309799500E+01 -0.236977089E-01 -0.756956930E-01
   C  0.310171689E+01  0.308507250E-01  0.544324339E-01
   H -0.156884836E+02 -0.104752777E+01  0.130221660E+01
   H  0.152991345E+02  0.103239941E+01 -0.143796641E+01
     4
 # iter = 40500  time[fs]=40.50000
   C -0.318225895E+01 -0.234691259E-01 -0.783255589E-01
   C  0.318504062E+01  0.314018650E-01  0.564158145E-01
   H -0.160492829E+02 -0.107047467E+01  0.133189456E+01
   H  0.156450363E+02  0.105679377E+01 -0.147157163E+01
     4
 # iter = 41000  time[fs]=41.00000
   C -0.326688922E+01 -0.232431960E-01 -0.809649650E-01
   C  0.326872855E+01  0.319548073E-01  0.584084421E-01
   H -0.164104148E+02 -0.109344778E+01  0.136160200E+01
   H  0.159912834E+02  0.108121176E+01 -0.150521560E+01
     4
 # iter = 41500  time[fs]=41.50000
   C -0.335186737E+01 -0.230200236E-01 -0.836138115E-01
   C  0.335276167E+01  0.325090310E-01  0.604095766E-01
   H -0.167718670E+02 -0.111644782E+01  0.139133586E+01
   H  0.163378594E+02  0.110565061E+01 -0.153889858E+01
     4
 # iter = 42000  time[fs]=42.00000
   C -0.343717557E+01 -0.227989745E-01 -0.862712646E-01
   C  0.343712315E+01  0.330648906E-01  0.624193580E-01
   H -0.171336235E+02 -0.113947107E+01  0.142109765E+01
   H  0.166847533E+02  0.113011206E+01 -0.157261643E+01
     4
 # iter = 42500  time[fs]=42.50000
   C -0.352279727E+01 -0.225795424E-01 -0.889366233E-01
   C  0.352179725E+01  0.336226308E-01  0.644378222E-01
   H -0.174956697E+02 -0.116251455E+01  0.145088831E+01
   H  0.170319543E+02  0.115459730E+01 -0.160636575E+01
     4
 # iter = 43000  time[fs]=43.00000
   C -0.360871743E+01 -0.223616080E-01 -0.916095794E-01
   C  0.360676891E+01  0.341820891E-01  0.664646034E-01
   H -0.178579942E+02 -0.118557753E+01  0.148070661E+01
   H  0.173794502E+02  0.117910532E+01 -0.164014543E+01
     4
 # iter = 43500  time[fs]=43.50000
   C -0.369492213E+01 -0.221451975E-01 -0.942899749E-01
   C  0.369202395E+01  0.347429666E-01  0.684992055E-01
   H -0.182205868E+02 -0.120866013E+01  0.151055062E+01
   H  0.177272285E+02  0.120363439E+01 -0.167395521E+01
     4
 # iter = 44000  time[fs]=44.00000
   C -0.378139832E+01 -0.219302594E-01 -0.969775807E-01
   C  0.377754917E+01  0.353050761E-01  0.705412503E-01
   H -0.185834375E+02 -0.123176198E+01  0.154041899E+01
   H  0.180752782E+02  0.122818336E+01 -0.170779436E+01
     4
 # iter = 44500  time[fs]=44.50000
   C -0.386813366E+01 -0.217166592E-01 -0.996720899E-01
   C  0.386333236E+01  0.358683473E-01  0.725904827E-01
   H -0.189465364E+02 -0.125488218E+01  0.157031097E+01
   H  0.184235893E+02  0.125275168E+01 -0.174166168E+01
     4
 # iter = 45000  time[fs]=45.00000
   C -0.395511662E+01 -0.215042620E-01 -0.102373201E+00
   C  0.394936210E+01  0.364327291E-01  0.746466731E-01
   H -0.193098741E+02 -0.127801984E+01  0.160022594E+01
   H  0.187721522E+02  0.127733887E+01 -0.177555594E+01
     4
 # iter = 45500  time[fs]=45.50000
   C -0.404233640E+01 -0.212929733E-01 -0.105080660E+00
   C  0.403562763E+01  0.369981432E-01  0.767095707E-01
   H -0.196734417E+02 -0.130117429E+01  0.163016310E+01
   H  0.191209581E+02  0.130194432E+01 -0.180947616E+01
     4
 # iter = 46000  time[fs]=46.00000
   C -0.412978288E+01 -0.210827235E-01 -0.107794240E+00
   C  0.412211884E+01  0.375644985E-01  0.787789180E-01
   H -0.200372311E+02 -0.132434499E+01  0.166012163E+01
   H  0.194699981E+02  0.132656734E+01 -0.184342153E+01
     4
 # iter = 46500  time[fs]=46.50000
   C -0.421744657E+01 -0.208734465E-01 -0.110513727E+00
   C  0.420882625E+01  0.381317147E-01  0.808544741E-01
   H -0.204012345E+02 -0.134753141E+01  0.169010074E+01
   H  0.198192640E+02  0.135120729E+01 -0.187739124E+01
     4
 # iter = 47000  time[fs]=47.00000
   C -0.430531850E+01 -0.206650739E-01 -0.113238909E+00
   C  0.429574092E+01  0.386997266E-01  0.829360191E-01
   H -0.207654444E+02 -0.137073301E+01  0.172009973E+01
   H  0.201687482E+02  0.137586362E+01 -0.191138448E+01
     4
 # iter = 47500  time[fs]=47.50000
   C -0.439339024E+01 -0.204575407E-01 -0.115969580E+00
   C  0.438285445E+01  0.392684770E-01  0.850233467E-01
   H -0.211298538E+02 -0.139394926E+01  0.175011797E+01
   H  0.205184432E+02  0.140053580E+01 -0.194540047E+01
     4
 # iter = 48000  time[fs]=48.00000
   C -0.448165384E+01 -0.202507885E-01 -0.118705550E+00
   C  0.447015893E+01  0.398379116E-01  0.871162590E-01
   H -0.214944561E+02 -0.141717967E+01  0.178015483E+01
   H  0.208683421E+02  0.142522334E+01 -0.197943849E+01
     4
 # iter = 48500  time[fs]=48.50000
   C -0.457010182E+01 -0.200447652E-01 -0.121446636E+00
   C  0.455764689E+01  0.404079791E-01  0.892145659E-01
   H -0.218592447E+02 -0.144042377E+01  0.181020970E+01
   H  0.212184381E+02  0.144992575E+01 -0.201349784E+01
     4
 # iter = 49000  time[fs]=49.00000
   C -0.465872707E+01 -0.198394226E-01 -0.124192667E+00
   C  0.464531125E+01  0.409786318E-01  0.913180866E-01
   H -0.222242138E+02 -0.146368114E+01  0.184028201E+01
   H  0.215687250E+02  0.147464256E+01 -0.204757787E+01
     4
 # iter = 49500  time[fs]=49.50000
   C -0.474752291E+01 -0.196347158E-01 -0.126943478E+00
   C  0.473314535E+01  0.415498266E-01  0.934266493E-01
   H -0.225893575E+02 -0.148695135E+01  0.187037121E+01
   H  0.219191968E+02  0.149937332E+01 -0.208167794E+01
     4
 # iter = 50000  time[fs]=50.00000
   C -0.483648301E+01 -0.194306031E-01 -0.129698913E+00
   C  0.482114287E+01  0.421215237E-01  0.955400906E-01
   H -0.229546703E+02 -0.151023399E+01  0.190047680E+01
   H  0.222698475E+02  0.152411763E+01 -0.211579745E+01
     4
 # iter = 50500  time[fs]=50.50000
   C -0.492560134E+01 -0.192270460E-01 -0.132458821E+00
   C  0.490929784E+01  0.426936865E-01  0.976582544E-01
   H -0.233201470E+02 -0.153352870E+01  0.193059826E+01
   H  0.226206719E+02  0.154887507E+01 -0.214993583E+01
     4
 # iter = 51000  time[fs]=51.00000
   C -0.501487224E+01 -0.190240087E-01 -0.135223060E+00
   C  0.499760457E+01  0.432662810E-01  0.997809919E-01
   H -0.236857826E+02 -0.155683509E+01  0.196073513E+01
   H  0.229716645E+02  0.157364526E+01 -0.218409253E+01
     4
 # iter = 51500  time[fs]=51.50000
   C -0.510429030E+01 -0.188214583E-01 -0.137991494E+00
   C  0.508605771E+01  0.438392757E-01  0.101908161E+00
   H -0.240515723E+02 -0.158015284E+01  0.199088696E+01
   H  0.233228204E+02  0.159842784E+01 -0.221826701E+01
     4
 # iter = 52000  time[fs]=52.00000
   C -0.519385039E+01 -0.186193640E-01 -0.140763994E+00
   C  0.517465213E+01  0.444126416E-01  0.104039626E+00
   H -0.244175115E+02 -0.160348159E+01  0.202105332E+01
   H  0.236741348E+02  0.162322245E+01 -0.225245879E+01
     4
 # iter = 52500  time[fs]=52.50000
   C -0.528354765E+01 -0.184176973E-01 -0.143540435E+00
   C  0.526338299E+01  0.449863517E-01  0.106175256E+00
   H -0.247835959E+02 -0.162682104E+01  0.205123378E+01
   H  0.240256031E+02  0.164802875E+01 -0.228666737E+01
     4
 # iter = 53000  time[fs]=53.00000
   C -0.537337745E+01 -0.182164316E-01 -0.146320698E+00
   C  0.535224568E+01  0.455603809E-01  0.108314928E+00
   H -0.251498213E+02 -0.165017087E+01  0.208142795E+01
   H  0.243772209E+02  0.167284643E+01 -0.232089229E+01
     4
 # iter = 53500  time[fs]=53.50000
   C -0.546333537E+01 -0.180155421E-01 -0.149104670E+00
   C  0.544123580E+01  0.461347061E-01  0.110458522E+00
   H -0.255161837E+02 -0.167353080E+01  0.211163546E+01
   H  0.247289840E+02  0.169767516E+01 -0.235513311E+01
     4
 # iter = 54000  time[fs]=54.00000
   C -0.555341722E+01 -0.178150058E-01 -0.151892242E+00
   C  0.553034918E+01  0.467093056E-01  0.112605926E+00
   H -0.258826792E+02 -0.169690055E+01  0.214185593E+01
   H  0.250808884E+02  0.172251466E+01 -0.238938941E+01
     4
 # iter = 54500  time[fs]=54.50000
   C -0.564361900E+01 -0.176148011E-01 -0.154683310E+00
   C  0.561958183E+01  0.472841596E-01  0.114757029E+00
   H -0.262493042E+02 -0.172027985E+01  0.217208902E+01
   H  0.254329302E+02  0.174736463E+01 -0.242366076E+01
     4
 # iter = 55000  time[fs]=55.00000
   C -0.573393690E+01 -0.174149081E-01 -0.157477774E+00
   C  0.570892995E+01  0.478592493E-01  0.116911727E+00
   H -0.266160552E+02 -0.174366844E+01  0.220233439E+01
   H  0.257851056E+02  0.177222480E+01 -0.245794679E+01
     4
 # iter = 55500  time[fs]=55.50000
   C -0.582436727E+01 -0.172153079E-01 -0.160275539E+00
   C  0.579838991E+01  0.484345573E-01  0.119069921E+00
   H -0.269829287E+02 -0.176706607E+01  0.223259173E+01
   H  0.261374112E+02  0.179709491E+01 -0.249224711E+01
     4
 # iter = 56000  time[fs]=56.00000
   C -0.591490665E+01 -0.170159830E-01 -0.163076512E+00
   C  0.588795826E+01  0.490100675E-01  0.121231512E+00
   H -0.273499216E+02 -0.179047251E+01  0.226286070E+01
   H  0.264898435E+02  0.182197471E+01 -0.252656135E+01
     4
 # iter = 56500  time[fs]=56.50000
   C -0.600555169E+01 -0.168169170E-01 -0.165880606E+00
   C  0.597763169E+01  0.495857647E-01  0.123396410E+00
   H -0.277170306E+02 -0.181388752E+01  0.229314103E+01
   H  0.268423991E+02  0.184686394E+01 -0.256088918E+01
     4
 # iter = 57000  time[fs]=57.00000
   C -0.609629924E+01 -0.166180944E-01 -0.168687736E+00
   C  0.606740702E+01  0.501616351E-01  0.125564526E+00
   H -0.280842529E+02 -0.183731090E+01  0.232343243E+01
   H  0.271950750E+02  0.187176238E+01 -0.259523025E+01
     4
 # iter = 57500  time[fs]=57.50000
   C -0.618714625E+01 -0.164195010E-01 -0.171497820E+00
   C  0.615728125E+01  0.507376653E-01  0.127735773E+00
   H -0.284515854E+02 -0.186074242E+01  0.235373461E+01
   H  0.275478681E+02  0.189666980E+01 -0.262958423E+01
     4
 # iter = 58000  time[fs]=58.00000
   C -0.627808981E+01 -0.162211231E-01 -0.174310781E+00
   C  0.624725146E+01  0.513138432E-01  0.129910071E+00
   H -0.288190254E+02 -0.188418189E+01  0.238404731E+01
   H  0.279007754E+02  0.192158597E+01 -0.266395082E+01
     4
 # iter = 58500  time[fs]=58.50000
   C -0.636912713E+01 -0.160229481E-01 -0.177126543E+00
   C  0.633731489E+01  0.518901573E-01  0.132087339E+00
   H -0.291865703E+02 -0.190762910E+01  0.241437028E+01
   H  0.282537942E+02  0.194651069E+01 -0.269832971E+01
     4
 # iter = 59000  time[fs]=59.00000
   C -0.646025555E+01 -0.158249641E-01 -0.179945033E+00
   C  0.642746888E+01  0.524665968E-01  0.134267503E+00
   H -0.295542175E+02 -0.193108387E+01  0.244470326E+01
   H  0.286069216E+02  0.197144376E+01 -0.273272062E+01
     4
 # iter = 59500  time[fs]=59.50000
   C -0.655147250E+01 -0.156271599E-01 -0.182766184E+00
   C  0.651771088E+01  0.530431518E-01  0.136450489E+00
   H -0.299219644E+02 -0.195454603E+01  0.247504603E+01
   H  0.289601552E+02  0.199638498E+01 -0.276712325E+01
     4
 # iter = 60000  time[fs]=60.00000
   C -0.664277553E+01 -0.154295251E-01 -0.185589927E+00
   C  0.660803844E+01  0.536198130E-01  0.138636226E+00
   H -0.302898087E+02 -0.197801538E+01  0.250539835E+01
   H  0.293134923E+02  0.202133416E+01 -0.280153735E+01
     4
 # iter = 60500  time[fs]=60.50000
   C -0.673416228E+01 -0.152320496E-01 -0.188416197E+00
   C  0.669844921E+01  0.541965714E-01  0.140824648E+00
   H -0.306577481E+02 -0.200149177E+01  0.253575999E+01
   H  0.296669305E+02  0.204629112E+01 -0.283596265E+01
     4
 # iter = 61000  time[fs]=61.00000
   C -0.682563048E+01 -0.150347242E-01 -0.191244933E+00
   C  0.678894095E+01  0.547734189E-01  0.143015687E+00
   H -0.310257803E+02 -0.202497502E+01  0.256613076E+01
   H  0.300204674E+02  0.207125568E+01 -0.287039889E+01
     4
 # iter = 61500  time[fs]=61.50000
   C -0.691717796E+01 -0.148375401E-01 -0.194076075E+00
   C  0.687951148E+01  0.553503478E-01  0.145209281E+00
   H -0.313939032E+02 -0.204846499E+01  0.259651043E+01
   H  0.303741009E+02  0.209622768E+01 -0.290484584E+01
     4
 # iter = 62000  time[fs]=62.00000
   C -0.700880263E+01 -0.146404892E-01 -0.196909564E+00
   C  0.697015872E+01  0.559273508E-01  0.147405370E+00
   H -0.317621147E+02 -0.207196153E+01  0.262689880E+01
   H  0.307278286E+02  0.212120694E+01 -0.293930325E+01
     4
 # iter = 62500  time[fs]=62.50000
   C -0.710050247E+01 -0.144435634E-01 -0.199745345E+00
   C  0.706088068E+01  0.565044212E-01  0.149603894E+00
   H -0.321304128E+02 -0.209546447E+01  0.265729570E+01
   H  0.310816485E+02  0.214619330E+01 -0.297377091E+01
     4
 # iter = 63000  time[fs]=63.00000
   C -0.719227554E+01 -0.142467557E-01 -0.202583364E+00
   C  0.715167541E+01  0.570815527E-01  0.151804797E+00
   H -0.324987956E+02 -0.211897368E+01  0.268770092E+01
   H  0.314355584E+02  0.217118662E+01 -0.300824858E+01
     4
 # iter = 63500  time[fs]=63.50000
   C -0.728411999E+01 -0.140500589E-01 -0.205423569E+00
   C  0.724254108E+01  0.576587392E-01  0.154008024E+00
   H -0.328672612E+02 -0.214248903E+01  0.271811428E+01
   H  0.317895565E+02  0.219618675E+01 -0.304273605E+01
     4
 # iter = 64000  time[fs]=64.00000
   C -0.737603402E+01 -0.138534666E-01 -0.208265910E+00
   C  0.733347589E+01  0.582359752E-01  0.156213521E+00
   H -0.332358077E+02 -0.216601038E+01  0.274853562E+01
   H  0.321436408E+02  0.222119353E+01 -0.307723311E+01
     4
 # iter = 64500  time[fs]=64.50000
   C -0.746801590E+01 -0.136569726E-01 -0.211110338E+00
   C  0.742447812E+01  0.588132554E-01  0.158421238E+00
   H -0.336044334E+02 -0.218953759E+01  0.277896477E+01
   H  0.324978094E+02  0.224620684E+01 -0.311173958E+01
     4
 # iter = 65000  time[fs]=65.00000
   C -0.756006396E+01 -0.134605710E-01 -0.213956805E+00
   C  0.751554611E+01  0.593905748E-01  0.160631125E+00
   H -0.339731366E+02 -0.221307056E+01  0.280940155E+01
   H  0.328520606E+02  0.227122653E+01 -0.314625524E+01
     4
 # iter = 65500  time[fs]=65.50000
   C -0.765217659E+01 -0.132642563E-01 -0.216805267E+00
   C  0.760667827E+01  0.599679289E-01  0.162843135E+00
   H -0.343419157E+02 -0.223660915E+01  0.283984582E+01
   H  0.332063926E+02  0.229625247E+01 -0.318077992E+01
     4
 # iter = 66000  time[fs]=66.00000
   C -0.774435224E+01 -0.130680233E-01 -0.219655680E+00
   C  0.769787304E+01  0.605453133E-01  0.165057220E+00
   H -0.347107691E+02 -0.226015325E+01  0.287029741E+01
   H  0.335608036E+02  0.232128454E+01 -0.321531342E+01
     4
 # iter = 66500  time[fs]=66.50000
   C -0.783658942E+01 -0.128718671E-01 -0.222508000E+00
   C  0.778912894E+01  0.611227238E-01  0.167273336E+00
   H -0.350796952E+02 -0.228370274E+01  0.290075617E+01
   H  0.339152922E+02  0.234632261E+01 -0.324985558E+01
     4
 # iter = 67000  time[fs]=67.00000
   C -0.792888668E+01 -0.126757830E-01 -0.225362187E+00
   C  0.788044454E+01  0.617001566E-01  0.169491439E+00
   H -0.354486925E+02 -0.230725752E+01  0.293122197E+01
   H  0.342698566E+02  0.237136656E+01 -0.328440621E+01
     4
 # iter = 67500  time[fs]=67.50000
   C -0.802124262E+01 -0.124797665E-01 -0.228218201E+00
   C  0.797181843E+01  0.622776081E-01  0.171711488E+00
   H -0.358177596E+02 -0.233081747E+01  0.296169466E+01
   H  0.346244954E+02  0.239641628E+01 -0.331896516E+01
     4
 # iter = 68000  time[fs]=68.00000
   C -0.811365590E+01 -0.122838135E-01 -0.231076004E+00
   C  0.806324929E+01  0.628550749E-01  0.173933441E+00
   H -0.361868950E+02 -0.235438251E+01  0.299217411E+01
   H  0.349792070E+02  0.242147166E+01 -0.335353227E+01
     4
 # iter = 68500  time[fs]=68.50000
   C -0.820612521E+01 -0.120879200E-01 -0.233935557E+00
   C  0.815473582E+01  0.634325538E-01  0.176157259E+00
   H -0.365560975E+02 -0.237795251E+01  0.302266018E+01
   H  0.353339900E+02  0.244653257E+01 -0.338810736E+01
     4
 # iter = 69000  time[fs]=69.00000
   C -0.829864929E+01 -0.118920822E-01 -0.236796825E+00
   C  0.824627675E+01  0.640100418E-01  0.178382904E+00
   H -0.369253656E+02 -0.240152740E+01  0.305315275E+01
   H  0.356888430E+02  0.247159893E+01 -0.342269030E+01
     4
 # iter = 69500  time[fs]=69.50000
   C -0.839122692E+01 -0.116962966E-01 -0.239659772E+00
   C  0.833787088E+01  0.645875359E-01  0.180610339E+00
   H -0.372946981E+02 -0.242510707E+01  0.308365168E+01
   H  0.360437647E+02  0.249667061E+01 -0.345728093E+01
     4
 # iter = 70000  time[fs]=70.00000
   C -0.848385693E+01 -0.115005597E-01 -0.242524364E+00
   C  0.842951704E+01  0.651650336E-01  0.182839526E+00
   H -0.376640938E+02 -0.244869142E+01  0.311415687E+01
   H  0.363987537E+02  0.252174753E+01 -0.349187910E+01
     4
 # iter = 70500  time[fs]=70.50000
   C -0.857653816E+01 -0.113048684E-01 -0.245390568E+00
   C  0.852121409E+01  0.657425324E-01  0.185070432E+00
   H -0.380335514E+02 -0.247228038E+01  0.314466818E+01
   H  0.367538087E+02  0.254682959E+01 -0.352648469E+01
     4
 # iter = 71000  time[fs]=71.00000
   C -0.866926952E+01 -0.111092196E-01 -0.248258352E+00
   C  0.861296092E+01  0.663200299E-01  0.187303023E+00
   H -0.384030697E+02 -0.249587386E+01  0.317518551E+01
   H  0.371089284E+02  0.257191669E+01 -0.356109755E+01
     4
 # iter = 71500  time[fs]=71.50000
   C -0.876204994E+01 -0.109136104E-01 -0.251127684E+00
   C  0.870475648E+01  0.668975238E-01  0.189537265E+00
   H -0.387726476E+02 -0.251947176E+01  0.320570875E+01
   H  0.374641117E+02  0.259700873E+01 -0.359571754E+01
     4
 # iter = 72000  time[fs]=72.00000
   C -0.885487837E+01 -0.107180381E-01 -0.253998535E+00
   C  0.879659974E+01  0.674750121E-01  0.191773126E+00
   H -0.391422840E+02 -0.254307402E+01  0.323623779E+01
   H  0.378193574E+02  0.262210564E+01 -0.363034455E+01
     4
 # iter = 72500  time[fs]=72.50000
   C -0.894775381E+01 -0.105225000E-01 -0.256870875E+00
   C  0.888848968E+01  0.680524928E-01  0.194010576E+00
   H -0.395119779E+02 -0.256668054E+01  0.326677252E+01
   H  0.381746644E+02  0.264720731E+01 -0.366497844E+01
     4
 # iter = 73000  time[fs]=73.00000
   C -0.904067529E+01 -0.103269937E-01 -0.259744675E+00
   C  0.898042535E+01  0.686299640E-01  0.196249583E+00
   H -0.398817280E+02 -0.259029125E+01  0.329731284E+01
   H  0.385300314E+02  0.267231368E+01 -0.369961909E+01
     4
 # iter = 73500  time[fs]=73.50000
   C -0.913364187E+01 -0.101315168E-01 -0.262619908E+00
   C  0.907240580E+01  0.692074241E-01  0.198490120E+00
   H -0.402515335E+02 -0.261390608E+01  0.332785865E+01
   H  0.388854575E+02  0.269742464E+01 -0.373426638E+01
     4
 # iter = 74000  time[fs]=74.00000
   C -0.922665261E+01 -0.993606708E-02 -0.265496546E+00
   C  0.916443013E+01  0.697848713E-01  0.200732156E+00
   H -0.406213933E+02 -0.263752496E+01  0.335840985E+01
   H  0.392409415E+02  0.272254013E+01 -0.376892020E+01
     4
 # iter = 74500  time[fs]=74.50000
   C -0.931970664E+01 -0.974064242E-02 -0.268374564E+00
   C  0.925649744E+01  0.703623042E-01  0.202975664E+00
   H -0.409913065E+02 -0.266114780E+01  0.338896635E+01
   H  0.395964824E+02  0.274766006E+01 -0.380358044E+01
     4
 # iter = 75000  time[fs]=75.00000
   C -0.941280309E+01 -0.954524078E-02 -0.271253935E+00
   C  0.934860688E+01  0.709397213E-01  0.205220618E+00
   H -0.413612721E+02 -0.268477455E+01  0.341952806E+01
   H  0.399520793E+02  0.277278436E+01 -0.383824698E+01
     4
 # iter = 75500  time[fs]=75.50000
   C -0.950594113E+01 -0.934986025E-02 -0.274134635E+00
   C  0.944075762E+01  0.715171212E-01  0.207466990E+00
   H -0.417312892E+02 -0.270840513E+01  0.345009488E+01
   H  0.403077311E+02  0.279791295E+01 -0.387291971E+01
     4
 # iter = 76000  time[fs]=76.00000
   C -0.959911994E+01 -0.915449899E-02 -0.277016640E+00
   C  0.953294884E+01  0.720945026E-01  0.209714755E+00
   H -0.421013569E+02 -0.273203947E+01  0.348066674E+01
   H  0.406634369E+02  0.282304576E+01 -0.390759854E+01
     4
 # iter = 76500  time[fs]=76.50000
   C -0.969233872E+01 -0.895915525E-02 -0.279899926E+00
   C  0.962517976E+01  0.726718645E-01  0.211963889E+00
   H -0.424714743E+02 -0.275567752E+01  0.351124353E+01
   H  0.410191958E+02  0.284818272E+01 -0.394228336E+01
     4
 # iter = 77000  time[fs]=77.00000
   C -0.978559671E+01 -0.876382738E-02 -0.282784470E+00
   C  0.971744962E+01  0.732492055E-01  0.214214367E+00
   H -0.428416406E+02 -0.277931921E+01  0.354182519E+01
   H  0.413750069E+02  0.287332376E+01 -0.397697407E+01
     4
 # iter = 77500  time[fs]=77.50000
   C -0.987889317E+01 -0.856851380E-02 -0.285670250E+00
   C  0.980975767E+01  0.738265247E-01  0.216466166E+00
   H -0.432118549E+02 -0.280296448E+01  0.357241164E+01
   H  0.417308692E+02  0.289846882E+01 -0.401167057E+01
     4
 # iter = 78000  time[fs]=78.00000
   C -0.997222737E+01 -0.837321301E-02 -0.288557245E+00
   C  0.990210319E+01  0.744038211E-01  0.218719261E+00
   H -0.435821165E+02 -0.282661327E+01  0.360300278E+01
   H  0.420867820E+02  0.292361782E+01 -0.404637277E+01
     4
 # iter = 78500  time[fs]=78.50000
   C -0.100655986E+02 -0.817792358E-02 -0.291445432E+00
   C  0.999448548E+01  0.749810937E-01  0.220973632E+00
   H -0.439524245E+02 -0.285026552E+01  0.363359855E+01
   H  0.424427444E+02  0.294877070E+01 -0.408108058E+01
     4
 # iter = 79000  time[fs]=79.00000
   C -0.101590062E+02 -0.798264415E-02 -0.294334792E+00
   C  0.100869039E+02  0.755583417E-01  0.223229256E+00
   H -0.443227782E+02 -0.287392118E+01  0.366419886E+01
   H  0.427987555E+02  0.297392741E+01 -0.411579391E+01
     4
 # iter = 79500  time[fs]=79.50000
   C -0.102524494E+02 -0.778737342E-02 -0.297225304E+00
   C  0.101793577E+02  0.761355643E-01  0.225486111E+00
   H -0.446931768E+02 -0.289758019E+01  0.369480366E+01
   H  0.431548146E+02  0.299908787E+01 -0.415051266E+01
     4
 # iter = 80000  time[fs]=80.00000
   C -0.103459277E+02 -0.759211015E-02 -0.300116949E+00
   C  0.102718462E+02  0.767127606E-01  0.227744177E+00
   H -0.450636196E+02 -0.292124249E+01  0.372541285E+01
   H  0.435109209E+02  0.302425204E+01 -0.418523676E+01
