     4
 # iter = 25000  time[fs]=25.00000
   C -0.992321993E+00  0.437066125E-02 -0.107689227E-01
   C  0.103473481E+01  0.983565439E-02  0.193851720E-01
   H -0.527427852E+01 -0.590576515E+00 -0.565834553E+00
   H  0.533594409E+01  0.654503464E+00  0.562733213E+00
     4
 # iter = 25500  time[fs]=25.50000
   C -0.104040829E+01  0.514079602E-02 -0.105513604E-01
   C  0.107844167E+01  0.620999526E-02  0.163677345E-01
   H -0.561519606E+01 -0.636146822E+00 -0.610845533E+00
   H  0.564988557E+01  0.687095471E+00  0.588277088E+00
     4
 # iter = 26000  time[fs]=26.00000
   C -0.109234143E+01  0.499952293E-02 -0.112832779E-01
   C  0.112401788E+01  0.152680340E-02  0.123368320E-01
   H -0.596676812E+01 -0.687773476E+00 -0.661876756E+00
   H  0.596384795E+01  0.715007632E+00  0.609033065E+00
     4
 # iter = 26500  time[fs]=26.50000
   C -0.114509553E+01  0.673307023E-02 -0.101750744E-01
   C  0.117427993E+01 -0.115359433E-02  0.103490194E-01
   H -0.631229760E+01 -0.729299325E+00 -0.702776420E+00
   H  0.629335743E+01  0.754255781E+00  0.641027119E+00
     4
 # iter = 27000  time[fs]=27.00000
   C -0.119830550E+01  0.104809407E-01 -0.708419238E-02
   C  0.122915230E+01 -0.168113802E-02  0.105508750E-01
   H -0.665048774E+01 -0.759866293E+00 -0.732690613E+00
   H  0.663870421E+01  0.805568972E+00  0.684997590E+00
     4
 # iter = 27500  time[fs]=27.50000
   C -0.125383128E+01  0.141733006E-01 -0.407770550E-02
   C  0.128614878E+01 -0.233511692E-02  0.106599146E-01
   H -0.699289314E+01 -0.791387677E+00 -0.763535916E+00
   H  0.698746161E+01  0.856914766E+00  0.728920543E+00
     4
 # iter = 28000  time[fs]=28.00000
   C -0.131294579E+01  0.163453832E-01 -0.261788564E-02
   C  0.134346746E+01 -0.472792241E-02  0.906086399E-02
   H -0.734762452E+01 -0.832284582E+00 -0.803736160E+00
   H  0.733076859E+01  0.899770750E+00  0.764280946E+00
     4
 # iter = 28500  time[fs]=28.50000
   C -0.137488345E+01  0.175892763E-01 -0.211039043E-02
   C  0.140158683E+01 -0.820794808E-02  0.640275446E-02
   H -0.771094153E+01 -0.879095627E+00 -0.849832316E+00
   H  0.767172313E+01  0.937518091E+00  0.794466165E+00
     4
 # iter = 29000  time[fs]=29.00000
   C -0.143803527E+01  0.193571541E-01 -0.110101287E-02
   C  0.146194816E+01 -0.111765801E-01  0.428189162E-02
   H -0.807416786E+01 -0.923392430E+00 -0.893398021E+00
   H  0.801844579E+01  0.978519088E+00  0.827843822E+00
     4
 # iter = 29500  time[fs]=29.50000
   C -0.150175787E+01  0.221501184E-01  0.913177060E-03
   C  0.152496183E+01 -0.130811794E-01  0.324882909E-02
   H -0.843416034E+01 -0.962246216E+00 -0.931506195E+00
   H  0.837358966E+01  0.102564151E+01  0.867286470E+00
     4
 # iter = 30000  time[fs]=30.00000
   C -0.156662611E+01  0.252641875E-01  0.322984101E-02
   C  0.158972653E+01 -0.146947098E-01  0.252871418E-02
   H -0.879477310E+01 -0.999695499E+00 -0.968196776E+00
   H  0.873286444E+01  0.107478851E+01  0.908701630E+00
     4
 # iter = 30500  time[fs]=30.50000
   C -0.163330859E+01  0.279140412E-01  0.506513816E-02
   C  0.165526418E+01 -0.168793699E-01  0.125764367E-02
   H -0.916035506E+01 -0.104025110E+01 -0.100798181E+01
   H  0.909153486E+01  0.112139702E+01  0.947530155E+00
     4
 # iter = 31000  time[fs]=31.00000
   C -0.170171187E+01  0.300878533E-01  0.640857584E-02
   C  0.172145908E+01 -0.196460898E-01 -0.576846110E-03
   H -0.953080328E+01 -0.108395538E+01 -0.105090471E+01
   H  0.944936372E+01  0.116538104E+01  0.983689524E+00
     4
 # iter = 31500  time[fs]=31.50000
   C -0.177123021E+01  0.322964190E-01  0.777215249E-02
   C  0.178878071E+01 -0.224306520E-01 -0.241191903E-02
   H -0.990301065E+01 -0.112783208E+01 -0.109399018E+01
   H  0.980915719E+01  0.120968002E+01  0.102012225E+01
     4
 # iter = 32000  time[fs]=32.00000
   C -0.184146143E+01  0.348560414E-01  0.947325788E-02
   C  0.185749364E+01 -0.248828182E-01 -0.389858577E-02
   H -0.102750100E+02 -0.117003099E+01 -0.113538882E+01
   H  0.101726126E+02  0.125611062E+01  0.105864778E+01
     4
 # iter = 32500  time[fs]=32.50000
   C -0.191246308E+01  0.376313624E-01  0.113775165E-01
   C  0.192737359E+01 -0.271493407E-01 -0.518473199E-02
   H -0.106474591E+02 -0.121131416E+01 -0.117586343E+01
   H  0.105388281E+02  0.130387895E+01  0.109847476E+01
     4
 # iter = 33000  time[fs]=33.00000
   C -0.198444269E+01  0.403442516E-01  0.132076875E-01
   C  0.199804647E+01 -0.295340998E-01 -0.657526685E-02
   H -0.110218534E+02 -0.125327037E+01 -0.121700339E+01
   H  0.109060878E+02  0.135136691E+01  0.113798739E+01
     4
 # iter = 33500  time[fs]=33.50000
   C -0.205741828E+01  0.429126516E-01  0.148825208E-01
   C  0.206936035E+01 -0.321252713E-01 -0.815930085E-02
   H -0.113985651E+02 -0.129635641E+01 -0.125926609E+01
   H  0.112738210E+02  0.139809184E+01  0.117670511E+01
     4
 # iter = 34000  time[fs]=34.00000
   C -0.213121427E+01  0.454539633E-01  0.165201509E-01
   C  0.214138851E+01 -0.347916183E-01 -0.980644693E-02
   H -0.117768225E+02 -0.133987748E+01 -0.130195722E+01
   H  0.116426201E+02  0.144472586E+01  0.121530195E+01
     4
 # iter = 34500  time[fs]=34.50000
   C -0.220566289E+01  0.480829845E-01  0.182360438E-01
   C  0.221420648E+01 -0.374048440E-01 -0.113891832E-01
   H -0.121558771E+02 -0.138315502E+01 -0.134439869E+01
   H  0.120130709E+02  0.149192693E+01  0.125443761E+01
     4
 # iter = 35000  time[fs]=35.00000
   C -0.228071854E+01  0.507970135E-01  0.200281069E-01
   C  0.228776508E+01 -0.399660265E-01 -0.129092958E-01
   H -0.125356671E+02 -0.142619070E+01 -0.138659259E+01
   H  0.123850864E+02  0.153967412E+01  0.129409275E+01
     4
 # iter = 35500  time[fs]=35.50000
   C -0.235640399E+01  0.535291567E-01  0.218300032E-01
   C  0.236194858E+01 -0.425469616E-01 -0.144392287E-01
   H -0.129165081E+02 -0.146935825E+01 -0.142891301E+01
   H  0.127582147E+02  0.158757585E+01  0.133387727E+01
     4
 # iter = 36000  time[fs]=36.00000
   C -0.243271557E+01  0.562426900E-01  0.236055179E-01
   C  0.243667810E+01 -0.451863307E-01 -0.160182574E-01
   H -0.132985472E+02 -0.151285789E+01 -0.147156051E+01
   H  0.131321840E+02  0.163541563E+01  0.137357603E+01
     4
 # iter = 36500  time[fs]=36.50000
   C -0.250960126E+01  0.589526349E-01  0.253701396E-01
   C  0.251193497E+01 -0.478659577E-01 -0.176287515E-01
   H -0.136816375E+02 -0.155659157E+01 -0.151443734E+01
   H  0.135070267E+02  0.168327673E+01  0.141327356E+01
     4
 # iter = 37000  time[fs]=37.00000
   C -0.258700014E+01  0.616859425E-01  0.271512483E-01
   C  0.258771660E+01 -0.505546218E-01 -0.192399922E-01
   H -0.140655681E+02 -0.160039303E+01 -0.155737752E+01
   H  0.138828490E+02  0.173131187E+01  0.145312372E+01
     4
 # iter = 37500  time[fs]=37.50000
   C -0.266487483E+01  0.644487793E-01  0.289554052E-01
   C  0.266400017E+01 -0.532440528E-01 -0.208441714E-01
   H -0.144502521E+02 -0.164421686E+01 -0.160033592E+01
   H  0.142596407E+02  0.177955387E+01  0.149316040E+01
     4
 # iter = 38000  time[fs]=38.00000
   C -0.274320756E+01  0.672301298E-01  0.307719583E-01
   C  0.274074634E+01 -0.559449638E-01 -0.224524293E-01
   H -0.148357059E+02 -0.168811764E+01 -0.164336732E+01
   H  0.146372957E+02  0.182793647E+01  0.153331833E+01
     4
 # iter = 38500  time[fs]=38.50000
   C -0.282198135E+01  0.700204626E-01  0.325917119E-01
   C  0.281791953E+01 -0.586665080E-01 -0.240743137E-01
   H -0.152219407E+02 -0.173214193E+01 -0.168651852E+01
   H  0.150157199E+02  0.187640225E+01  0.157354104E+01
     4
 # iter = 39000  time[fs]=39.00000
   C -0.290117187E+01  0.728195652E-01  0.344147638E-01
   C  0.289549637E+01 -0.614076540E-01 -0.257091587E-01
   H -0.156089170E+02 -0.177628298E+01 -0.172978294E+01
   H  0.153948758E+02  0.192494794E+01  0.161382609E+01
     4
 # iter = 39500  time[fs]=39.50000
   C -0.298075254E+01  0.756313498E-01  0.362453134E-01
   C  0.297345980E+01 -0.641628981E-01 -0.273517995E-01
   H -0.159965744E+02 -0.182051070E+01 -0.177313070E+01
   H  0.157747526E+02  0.197359432E+01  0.165419507E+01
     4
 # iter = 40000  time[fs]=40.00000
   C -0.306070073E+01  0.784574314E-01  0.380852423E-01
   C  0.305179181E+01 -0.669293275E-01 -0.289996381E-01
   H -0.163848682E+02 -0.186480873E+01 -0.181654560E+01
   H  0.161553284E+02  0.202234906E+01  0.169465640E+01
     4
 # iter = 40500  time[fs]=40.50000
   C -0.314099836E+01  0.812963641E-01  0.399333520E-01
   C  0.313047245E+01 -0.697074573E-01 -0.306534821E-01
   H -0.167737738E+02 -0.190917886E+01 -0.186002958E+01
   H  0.165365659E+02  0.207120227E+01  0.173520091E+01
     4
 # iter = 41000  time[fs]=41.00000
   C -0.322162922E+01  0.841462413E-01  0.417879659E-01
   C  0.320948262E+01 -0.724983657E-01 -0.323146827E-01
   H -0.171632716E+02 -0.195362592E+01 -0.190358762E+01
   H  0.169184271E+02  0.212014156E+01  0.177581682E+01
     4
 # iter = 41500  time[fs]=41.50000
   C -0.330257717E+01  0.870063226E-01  0.436485580E-01
   C  0.328880567E+01 -0.753019008E-01 -0.339833422E-01
   H -0.175533369E+02 -0.199814835E+01 -0.194721831E+01
   H  0.173008824E+02  0.216916136E+01  0.181649923E+01
     4
 # iter = 42000  time[fs]=42.00000
   C -0.338382643E+01  0.898766656E-01  0.455153857E-01
   C  0.336842692E+01 -0.781170828E-01 -0.356587183E-01
   H -0.179439424E+02 -0.204274036E+01 -0.199091595E+01
   H  0.176839087E+02  0.221826086E+01  0.185724787E+01
     4
 # iter = 42500  time[fs]=42.50000
   C -0.346536236E+01  0.927572350E-01  0.473886004E-01
   C  0.344833262E+01 -0.809430810E-01 -0.373402025E-01
   H -0.183350632E+02 -0.208739698E+01 -0.203467572E+01
   H  0.180674836E+02  0.226743881E+01  0.189806203E+01
     4
 # iter = 43000  time[fs]=43.00000
   C -0.354717164E+01  0.956476339E-01  0.492679796E-01
   C  0.352850951E+01 -0.837795072E-01 -0.390276146E-01
   H -0.187266776E+02 -0.213211562E+01 -0.207849512E+01
   H  0.184515842E+02  0.231669191E+01  0.193893895E+01
     4
 # iter = 43500  time[fs]=43.50000
   C -0.362924198E+01  0.985473490E-01  0.511531734E-01
   C  0.360894505E+01 -0.866261430E-01 -0.407209312E-01
   H -0.191187663E+02 -0.217689465E+01 -0.212237263E+01
   H  0.188361882E+02  0.236601632E+01  0.197987526E+01
     4
 # iter = 44000  time[fs]=44.00000
   C -0.371156175E+01  0.101455976E+00  0.530439301E-01
   C  0.368962757E+01 -0.894826897E-01 -0.424200365E-01
   H -0.195113106E+02 -0.222173206E+01 -0.216630634E+01
   H  0.192212748E+02  0.241540886E+01  0.202086822E+01
     4
 # iter = 44500  time[fs]=44.50000
   C -0.379411999E+01  0.104373222E+00  0.549401019E-01
   C  0.377054627E+01 -0.923487614E-01 -0.441247167E-01
   H -0.199042923E+02 -0.226662542E+01 -0.221029391E+01
   H  0.196068253E+02  0.246486707E+01  0.206191581E+01
     4
 # iter = 45000  time[fs]=45.00000
   C -0.387690638E+01  0.107298822E+00  0.568415570E-01
   C  0.385169099E+01 -0.952239793E-01 -0.458347545E-01
   H -0.202976943E+02 -0.231157237E+01 -0.225433306E+01
   H  0.199928219E+02  0.251438870E+01  0.210301620E+01
     4
 # iter = 45500  time[fs]=45.50000
   C -0.395991129E+01  0.110232490E+00  0.587481382E-01
   C  0.393305219E+01 -0.981080165E-01 -0.475499757E-01
   H -0.206915005E+02 -0.235657087E+01 -0.229842182E+01
   H  0.203792477E+02  0.256397144E+01  0.214416744E+01
     4
 # iter = 46000  time[fs]=46.00000
   C -0.404312564E+01  0.113173940E+00  0.606596768E-01
   C  0.401462084E+01 -0.101000582E+00 -0.492702325E-01
   H -0.210856959E+02 -0.240161909E+01 -0.234255844E+01
   H  0.207660867E+02  0.261361300E+01  0.218536763E+01
     4
 # iter = 46500  time[fs]=46.50000
   C -0.412654090E+01  0.116122899E+00  0.625760138E-01
   C  0.409638848E+01 -0.103901395E+00 -0.509953796E-01
   H -0.214802663E+02 -0.244671525E+01 -0.238674123E+01
   H  0.211533236E+02  0.266331125E+01  0.222661496E+01
     4
 # iter = 47000  time[fs]=47.00000
   C -0.421014902E+01  0.119079116E+00  0.644970046E-01
   C  0.417834712E+01 -0.106810178E+00 -0.527252687E-01
   H -0.218751980E+02 -0.249185767E+01 -0.243096856E+01
   H  0.215409442E+02  0.271306419E+01  0.226790778E+01
     4
 # iter = 47500  time[fs]=47.50000
   C -0.429394241E+01  0.122042355E+00  0.664225128E-01
   C  0.426048923E+01 -0.109726667E+00 -0.544597551E-01
   H -0.222704784E+02 -0.253704471E+01 -0.247523885E+01
   H  0.219289349E+02  0.276286994E+01  0.230924451E+01
     4
 # iter = 48000  time[fs]=48.00000
   C -0.437791389E+01  0.125012388E+00  0.683524057E-01
   C  0.434280771E+01 -0.112650610E+00 -0.561987016E-01
   H -0.226660951E+02 -0.258227483E+01 -0.251955062E+01
   H  0.223172827E+02  0.281272673E+01  0.235062367E+01
     4
 # iter = 48500  time[fs]=48.50000
   C -0.446205669E+01  0.127988997E+00  0.702865541E-01
   C  0.442529584E+01 -0.115581768E+00 -0.579419780E-01
   H -0.230620367E+02 -0.262754657E+01 -0.256390249E+01
   H  0.227059755E+02  0.286263284E+01  0.239204382E+01
     4
 # iter = 49000  time[fs]=49.00000
   C -0.454636440E+01  0.130971972E+00  0.722248343E-01
   C  0.450794725E+01 -0.118519913E+00 -0.596894594E-01
   H -0.234582922E+02 -0.267285857E+01 -0.260829312E+01
   H  0.230950016E+02  0.291258663E+01  0.243350362E+01
     4
 # iter = 49500  time[fs]=49.50000
   C -0.463083096E+01  0.133961114E+00  0.741671274E-01
   C  0.459075594E+01 -0.121464827E+00 -0.614410255E-01
   H -0.238548511E+02 -0.271820949E+01 -0.265272124E+01
   H  0.234843499E+02  0.296258658E+01  0.247500177E+01
     4
 # iter = 50000  time[fs]=50.00000
   C -0.471545059E+01  0.136956234E+00  0.761133197E-01
   C  0.467371621E+01 -0.124416302E+00 -0.631965602E-01
   H -0.242517036E+02 -0.276359810E+01 -0.269718566E+01
   H  0.238740100E+02  0.301263121E+01  0.251653704E+01
     4
 # iter = 50500  time[fs]=50.50000
   C -0.480021786E+01  0.139957149E+00  0.780633018E-01
   C  0.475682263E+01 -0.127374138E+00 -0.649559520E-01
   H -0.246488403E+02 -0.280902319E+01 -0.274168523E+01
   H  0.242639718E+02  0.306271911E+01  0.255810826E+01
     4
 # iter = 51000  time[fs]=51.00000
   C -0.488512758E+01  0.142963685E+00  0.800169683E-01
   C  0.484007009E+01 -0.130338145E+00 -0.667190939E-01
   H -0.250462520E+02 -0.285448363E+01 -0.278621884E+01
   H  0.246542257E+02  0.311284896E+01  0.259971433E+01
     4
 # iter = 51500  time[fs]=51.50000
   C -0.497017483E+01  0.145975675E+00  0.819742179E-01
   C  0.492345370E+01 -0.133308139E+00 -0.684858829E-01
   H -0.254439303E+02 -0.289997832E+01 -0.283078546E+01
   H  0.250447628E+02  0.316301946E+01  0.264135416E+01
     4
 # iter = 52000  time[fs]=52.00000
   C -0.505535494E+01  0.148992960E+00  0.839349533E-01
   C  0.500696883E+01 -0.136283946E+00 -0.702562200E-01
   H -0.258418668E+02 -0.294550624E+01 -0.287538408E+01
   H  0.254355741E+02  0.321322940E+01  0.268302675E+01
     4
 # iter = 52500  time[fs]=52.50000
   C -0.514066345E+01  0.152015387E+00  0.858990807E-01
   C  0.509061107E+01 -0.139265398E+00 -0.720300098E-01
   H -0.262400539E+02 -0.299106638E+01 -0.292001375E+01
   H  0.258266515E+02  0.326347761E+01  0.272473112E+01
     4
 # iter = 53000  time[fs]=53.00000
   C -0.522609614E+01  0.155042808E+00  0.878665097E-01
   C  0.517437622E+01 -0.142252335E+00 -0.738071606E-01
   H -0.266384839E+02 -0.303665781E+01 -0.296467357E+01
   H  0.262179871E+02  0.331376297E+01  0.276646634E+01
     4
 # iter = 53500  time[fs]=53.50000
   C -0.531164896E+01  0.158075084E+00  0.898371537E-01
   C  0.525826028E+01 -0.145244601E+00 -0.755875839E-01
   H -0.270371499E+02 -0.308227961E+01 -0.300936265E+01
   H  0.266095731E+02  0.336408443E+01  0.280823152E+01
     4
 # iter = 54000  time[fs]=54.00000
   C -0.539731806E+01  0.161112078E+00  0.918109287E-01
   C  0.534225944E+01 -0.148242050E+00 -0.773711946E-01
   H -0.274360448E+02 -0.312793092E+01 -0.305408016E+01
   H  0.270014024E+02  0.341444094E+01  0.285002580E+01
     4
 # iter = 54500  time[fs]=54.50000
   C -0.548309977E+01  0.164153662E+00  0.937877543E-01
   C  0.542637006E+01 -0.151244538E+00 -0.791579107E-01
   H -0.278351622E+02 -0.317361090E+01 -0.309882531E+01
   H  0.273934680E+02  0.346483154E+01  0.289184838E+01
     4
 # iter = 55000  time[fs]=55.00000
   C -0.556899059E+01  0.167199710E+00  0.957675527E-01
   C  0.551058866E+01 -0.154251930E+00 -0.809476532E-01
   H -0.282344957E+02 -0.321931875E+01 -0.314359731E+01
   H  0.277857632E+02  0.351525528E+01  0.293369846E+01
     4
 # iter = 55500  time[fs]=55.50000
   C -0.565498718E+01  0.170250103E+00  0.977502489E-01
   C  0.559491194E+01 -0.157264093E+00 -0.827403458E-01
   H -0.286340394E+02 -0.326505372E+01 -0.318839545E+01
   H  0.281782816E+02  0.356571126E+01  0.297557530E+01
     4
 # iter = 56000  time[fs]=56.00000
   C -0.574108632E+01  0.173304725E+00  0.997357707E-01
   C  0.567933671E+01 -0.160280903E+00 -0.845359150E-01
   H -0.290337874E+02 -0.331081506E+01 -0.323321900E+01
   H  0.285710171E+02  0.361619860E+01  0.301747816E+01
     4
 # iter = 56500  time[fs]=56.50000
   C -0.582728495E+01  0.176363467E+00  0.101724048E+00
   C  0.576385994E+01 -0.163302237E+00 -0.863342899E-01
   H -0.294337343E+02 -0.335660208E+01 -0.327806729E+01
   H  0.289639638E+02  0.366671649E+01  0.305940637E+01
     4
 # iter = 57000  time[fs]=57.00000
   C -0.591358015E+01  0.179426220E+00  0.103715015E+00
   C  0.584847874E+01 -0.166327979E+00 -0.881354020E-01
   H -0.298338747E+02 -0.340241409E+01 -0.332293968E+01
   H  0.293571161E+02  0.371726412E+01  0.310135925E+01
     4
 # iter = 57500  time[fs]=57.50000
   C -0.599996912E+01  0.182492883E+00  0.105708604E+00
   C  0.593319032E+01 -0.169358015E+00 -0.899391852E-01
   H -0.302342035E+02 -0.344825044E+01 -0.336783552E+01
   H  0.297504686E+02  0.376784071E+01  0.314333616E+01
     4
 # iter = 58000  time[fs]=58.00000
   C -0.608644915E+01  0.185563357E+00  0.107704755E+00
   C  0.601799202E+01 -0.172392239E+00 -0.917455758E-01
   H -0.306347157E+02 -0.349411051E+01 -0.341275423E+01
   H  0.301440159E+02  0.381844554E+01  0.318533648E+01
     4
 # iter = 58500  time[fs]=58.50000
   C -0.617301768E+01  0.188637546E+00  0.109703406E+00
   C  0.610288128E+01 -0.175430545E+00 -0.935545120E-01
   H -0.310354067E+02 -0.353999369E+01 -0.345769521E+01
   H  0.305377531E+02  0.386907788E+01  0.322735964E+01
     4
 # iter = 59000  time[fs]=59.00000
   C -0.625967222E+01  0.191715359E+00  0.111704499E+00
   C  0.618785566E+01 -0.178472833E+00 -0.953659344E-01
   H -0.314362719E+02 -0.358589941E+01 -0.350265792E+01
   H  0.309316754E+02  0.391973706E+01  0.326940504E+01
     4
 # iter = 59500  time[fs]=59.50000
   C -0.634641042E+01  0.194796707E+00  0.113707977E+00
   C  0.627291280E+01 -0.181519005E+00 -0.971797852E-01
   H -0.318373068E+02 -0.363182710E+01 -0.354764180E+01
   H  0.313257781E+02  0.397042241E+01  0.331147215E+01
     4
 # iter = 60000  time[fs]=60.00000
   C -0.643322999E+01  0.197881504E+00  0.115713786E+00
   C  0.635805046E+01 -0.184568968E+00 -0.989960089E-01
   H -0.322385074E+02 -0.367777623E+01 -0.359264636E+01
   H  0.317200567E+02  0.402113329E+01  0.335356043E+01
     4
 # iter = 60500  time[fs]=60.50000
   C -0.652012874E+01  0.200969669E+00  0.117721871E+00
   C  0.644326646E+01 -0.187622632E+00 -0.100814552E+00
   H -0.326398695E+02 -0.372374628E+01 -0.363767108E+01
   H  0.321145069E+02  0.407186909E+01  0.339566938E+01
     4
 # iter = 61000  time[fs]=61.00000
   C -0.660710458E+01  0.204061121E+00  0.119732184E+00
   C  0.652855872E+01 -0.190679910E+00 -0.102635361E+00
   H -0.330413893E+02 -0.376973675E+01 -0.368271548E+01
   H  0.325091245E+02  0.412262922E+01  0.343779849E+01
     4
 # iter = 61500  time[fs]=61.50000
   C -0.669415547E+01  0.207155784E+00  0.121744673E+00
   C  0.661392523E+01 -0.193740717E+00 -0.104458387E+00
   H -0.334430628E+02 -0.381574715E+01 -0.372777911E+01
   H  0.329039056E+02  0.417341311E+01  0.347994731E+01
     4
 # iter = 62000  time[fs]=62.00000
   C -0.678127947E+01  0.210253583E+00  0.123759291E+00
   C  0.669936408E+01 -0.196804971E+00 -0.106283581E+00
   H -0.338448866E+02 -0.386177703E+01 -0.377286150E+01
   H  0.332988463E+02  0.422422020E+01  0.352211535E+01
     4
 # iter = 62500  time[fs]=62.50000
   C -0.686847470E+01  0.213354448E+00  0.125775991E+00
   C  0.678487340E+01 -0.199872594E+00 -0.108110895E+00
   H -0.342468570E+02 -0.390782593E+01 -0.381796223E+01
   H  0.336939427E+02  0.427504997E+01  0.356430220E+01
     4
 # iter = 63000  time[fs]=63.00000
   C -0.695573938E+01  0.216458307E+00  0.127794728E+00
   C  0.687045141E+01 -0.202943511E+00 -0.109940283E+00
   H -0.346489707E+02 -0.395389341E+01 -0.386308088E+01
   H  0.340891914E+02  0.432590189E+01  0.360650741E+01
     4
 # iter = 63500  time[fs]=63.50000
   C -0.704307175E+01  0.219565095E+00  0.129815460E+00
   C  0.695609639E+01 -0.206017647E+00 -0.111771702E+00
   H -0.350512244E+02 -0.399997906E+01 -0.390821705E+01
   H  0.344845889E+02  0.437677548E+01  0.364873057E+01
     4
 # iter = 64000  time[fs]=64.00000
   C -0.713047014E+01  0.222674746E+00  0.131838142E+00
   C  0.704180668E+01 -0.209094931E+00 -0.113605108E+00
   H -0.354536149E+02 -0.404608247E+01 -0.395337034E+01
   H  0.348801316E+02  0.442767024E+01  0.369097128E+01
     4
 # iter = 64500  time[fs]=64.50000
   C -0.721793295E+01  0.225787198E+00  0.133862736E+00
   C  0.712758069E+01 -0.212175294E+00 -0.115440460E+00
   H -0.358561391E+02 -0.409220324E+01 -0.399854037E+01
   H  0.352758165E+02  0.447858572E+01  0.373322916E+01
     4
 # iter = 65000  time[fs]=65.00000
   C -0.730545861E+01  0.228902389E+00  0.135889200E+00
   C  0.721341687E+01 -0.215258670E+00 -0.117277716E+00
   H -0.362587942E+02 -0.413834101E+01 -0.404372679E+01
   H  0.356716404E+02  0.452952146E+01  0.377550383E+01
     4
 # iter = 65500  time[fs]=65.50000
   C -0.739304561E+01  0.232020261E+00  0.137917496E+00
   C  0.729931373E+01 -0.218344994E+00 -0.119116839E+00
   H -0.366615772E+02 -0.418449539E+01 -0.408892923E+01
   H  0.360676001E+02  0.458047702E+01  0.381779493E+01
     4
 # iter = 66000  time[fs]=66.00000
   C -0.748069252E+01  0.235140757E+00  0.139947588E+00
   C  0.738526985E+01 -0.221434203E+00 -0.120957789E+00
   H -0.370644853E+02 -0.423066605E+01 -0.413414735E+01
   H  0.364636929E+02  0.463145199E+01  0.386010210E+01
     4
 # iter = 66500  time[fs]=66.50000
   C -0.756839793E+01  0.238263821E+00  0.141979438E+00
   C  0.747128383E+01 -0.224526237E+00 -0.122800531E+00
   H -0.374675159E+02 -0.427685262E+01 -0.417938082E+01
   H  0.368599157E+02  0.468244596E+01  0.390242502E+01
     4
 # iter = 67000  time[fs]=67.00000
   C -0.765616049E+01  0.241389400E+00  0.144013012E+00
   C  0.755735433E+01 -0.227621037E+00 -0.124645027E+00
   H -0.378706664E+02 -0.432305478E+01 -0.422462933E+01
   H  0.372562659E+02  0.473345853E+01  0.394476334E+01
     4
 # iter = 67500  time[fs]=67.50000
   C -0.774397889E+01  0.244517442E+00  0.146048274E+00
   C  0.764348006E+01 -0.230718546E+00 -0.126491244E+00
   H -0.382739342E+02 -0.436927220E+01 -0.426989255E+01
   H  0.376527407E+02  0.478448932E+01  0.398711676E+01
     4
 # iter = 68000  time[fs]=68.00000
   C -0.783185186E+01  0.247647897E+00  0.148085193E+00
   C  0.772965977E+01 -0.233818708E+00 -0.128339147E+00
   H -0.386773169E+02 -0.441550457E+01 -0.431517019E+01
   H  0.380493376E+02  0.483553795E+01  0.402948495E+01
     4
 # iter = 68500  time[fs]=68.50000
   C -0.791977819E+01  0.250780715E+00  0.150123736E+00
   C  0.781589225E+01 -0.236921471E+00 -0.130188704E+00
   H -0.390808121E+02 -0.446175159E+01 -0.436046195E+01
   H  0.384460541E+02  0.488660406E+01  0.407186763E+01
     4
 # iter = 69000  time[fs]=69.00000
   C -0.800775669E+01  0.253915849E+00  0.152163871E+00
   C  0.790217633E+01 -0.240026781E+00 -0.132039883E+00
   H -0.394844176E+02 -0.450801296E+01 -0.440576755E+01
   H  0.388428877E+02  0.493768730E+01  0.411426450E+01
     4
 # iter = 69500  time[fs]=69.50000
   C -0.809578621E+01  0.257053253E+00  0.154205568E+00
   C  0.798851087E+01 -0.243134589E+00 -0.133892652E+00
   H -0.398881310E+02 -0.455428840E+01 -0.445108672E+01
   H  0.392398360E+02  0.498878734E+01  0.415667528E+01
     4
 # iter = 70000  time[fs]=70.00000
   C -0.818386566E+01  0.260192883E+00  0.156248798E+00
   C  0.807489478E+01 -0.246244845E+00 -0.135746982E+00
   H -0.402919504E+02 -0.460057762E+01 -0.449641918E+01
   H  0.396368968E+02  0.503990384E+01  0.419909969E+01
     4
 # iter = 70500  time[fs]=70.50000
   C -0.827199396E+01  0.263334694E+00  0.158293531E+00
   C  0.816132701E+01 -0.249357502E+00 -0.137602843E+00
   H -0.406958735E+02 -0.464688036E+01 -0.454176468E+01
   H  0.400340678E+02  0.509103649E+01  0.424153747E+01
     4
 # iter = 71000  time[fs]=71.00000
   C -0.836017006E+01  0.266478646E+00  0.160339739E+00
   C  0.824780651E+01 -0.252472513E+00 -0.139460207E+00
   H -0.410998983E+02 -0.469319636E+01 -0.458712296E+01
   H  0.404313469E+02  0.514218496E+01  0.428398836E+01
     4
 # iter = 71500  time[fs]=71.50000
   C -0.844839297E+01  0.269624696E+00  0.162387396E+00
   C  0.833433229E+01 -0.255589834E+00 -0.141319046E+00
   H -0.415040228E+02 -0.473952536E+01 -0.463249378E+01
   H  0.408287320E+02  0.519334897E+01  0.432645211E+01
     4
 # iter = 72000  time[fs]=72.00000
   C -0.853666170E+01  0.272772805E+00  0.164436474E+00
   C  0.842090339E+01 -0.258709420E+00 -0.143179332E+00
   H -0.419082452E+02 -0.478586711E+01 -0.467787690E+01
   H  0.412262210E+02  0.524452821E+01  0.436892847E+01
     4
 # iter = 72500  time[fs]=72.50000
   C -0.862497531E+01  0.275922934E+00  0.166486949E+00
   C  0.850751887E+01 -0.261831230E+00 -0.145041041E+00
   H -0.423125635E+02 -0.483222138E+01 -0.472327209E+01
   H  0.416238119E+02  0.529572240E+01  0.441141722E+01
     4
 # iter = 73000  time[fs]=73.00000
   C -0.871333288E+01  0.279075046E+00  0.168538794E+00
   C  0.859417783E+01 -0.264955221E+00 -0.146904145E+00
   H -0.427169760E+02 -0.487858793E+01 -0.476867913E+01
   H  0.420215029E+02  0.534693126E+01  0.445391811E+01
     4
 # iter = 73500  time[fs]=73.50000
   C -0.880173352E+01  0.282229103E+00  0.170591985E+00
   C  0.868087937E+01 -0.268081353E+00 -0.148768621E+00
   H -0.431214808E+02 -0.492496653E+01 -0.481409779E+01
   H  0.424192920E+02  0.539815453E+01  0.449643092E+01
     4
 # iter = 74000  time[fs]=74.00000
   C -0.889017637E+01  0.285385071E+00  0.172646499E+00
   C  0.876762266E+01 -0.271209588E+00 -0.150634443E+00
   H -0.435260764E+02 -0.497135697E+01 -0.485952786E+01
   H  0.428171774E+02  0.544939194E+01  0.453895544E+01
     4
 # iter = 74500  time[fs]=74.50000
   C -0.897866059E+01  0.288542914E+00  0.174702313E+00
   C  0.885440684E+01 -0.274339888E+00 -0.152501589E+00
   H -0.439307609E+02 -0.501775903E+01 -0.490496914E+01
   H  0.432151574E+02  0.550064323E+01  0.458149146E+01
     4
 # iter = 75000  time[fs]=75.00000
   C -0.906718537E+01  0.291702599E+00  0.176759403E+00
   C  0.894123113E+01 -0.277472214E+00 -0.154370035E+00
   H -0.443355328E+02 -0.506417249E+01 -0.495042142E+01
   H  0.436132302E+02  0.555190815E+01  0.462403876E+01
     4
 # iter = 75500  time[fs]=75.50000
   C -0.915574991E+01  0.294864092E+00  0.178817747E+00
   C  0.902809474E+01 -0.280606532E+00 -0.156239759E+00
   H -0.447403906E+02 -0.511059717E+01 -0.499588451E+01
   H  0.440113941E+02  0.560318647E+01  0.466659715E+01
     4
 # iter = 76000  time[fs]=76.00000
   C -0.924435344E+01  0.298027363E+00  0.180877324E+00
   C  0.911499690E+01 -0.283742805E+00 -0.158110739E+00
   H -0.451453325E+02 -0.515703285E+01 -0.504135822E+01
   H  0.444096476E+02  0.565447794E+01  0.470916643E+01
     4
 # iter = 76500  time[fs]=76.50000
   C -0.933299522E+01  0.301192379E+00  0.182938114E+00
   C  0.920193688E+01 -0.286881000E+00 -0.159982953E+00
   H -0.455503573E+02 -0.520347934E+01 -0.508684236E+01
   H  0.448079890E+02  0.570578235E+01  0.475174641E+01
     4
 # iter = 77000  time[fs]=77.00000
   C -0.942167453E+01  0.304359110E+00  0.185000096E+00
   C  0.928891396E+01 -0.290021084E+00 -0.161856381E+00
   H -0.459554634E+02 -0.524993647E+01 -0.513233675E+01
   H  0.452064168E+02  0.575709946E+01  0.479433690E+01
     4
 # iter = 77500  time[fs]=77.50000
   C -0.951039065E+01  0.307527527E+00  0.187063249E+00
   C  0.937592745E+01 -0.293163023E+00 -0.163731002E+00
   H -0.463606494E+02 -0.529640403E+01 -0.517784122E+01
   H  0.456049295E+02  0.580842905E+01  0.483693773E+01
     4
 # iter = 78000  time[fs]=78.00000
   C -0.959914290E+01  0.310697601E+00  0.189127554E+00
   C  0.946297665E+01 -0.296306786E+00 -0.165606797E+00
   H -0.467659139E+02 -0.534288187E+01 -0.522335558E+01
   H  0.460035256E+02  0.585977092E+01  0.487954872E+01
     4
 # iter = 78500  time[fs]=78.50000
   C -0.968793062E+01  0.313869304E+00  0.191192993E+00
   C  0.955006092E+01 -0.299452343E+00 -0.167483747E+00
   H -0.471712555E+02 -0.538936979E+01 -0.526887968E+01
   H  0.464022037E+02  0.591112485E+01  0.492216969E+01
     4
 # iter = 79000  time[fs]=79.00000
   C -0.977675315E+01  0.317042607E+00  0.193259547E+00
   C  0.963717961E+01 -0.302599662E+00 -0.169361832E+00
   H -0.475766731E+02 -0.543586764E+01 -0.531441335E+01
   H  0.468009624E+02  0.596249065E+01  0.496480048E+01
     4
 # iter = 79500  time[fs]=79.50000
   C -0.986560986E+01  0.320217485E+00  0.195327197E+00
   C  0.972433210E+01 -0.305748715E+00 -0.171241034E+00
   H -0.479821652E+02 -0.548237524E+01 -0.535995643E+01
   H  0.471998003E+02  0.601386811E+01  0.500744093E+01
     4
 # iter = 80000  time[fs]=80.00000
   C -0.995450013E+01  0.323393912E+00  0.197395926E+00
   C  0.981151777E+01 -0.308899474E+00 -0.173121335E+00
   H -0.483877306E+02 -0.552889244E+01 -0.540550877E+01
   H  0.475987161E+02  0.606525705E+01  0.505009087E+01
