     4
 # iter = 25000  time[fs]=25.00000
   C -0.102776311E+01  0.196665181E-02  0.288610158E-01
   C  0.949981805E+00 -0.169062221E-01 -0.408357020E-01
   H -0.527281386E+01 -0.654086855E+00  0.302555598E+00
   H  0.521755309E+01  0.548621359E+00  0.327687212E+00
     4
 # iter = 25500  time[fs]=25.50000
   C -0.107739729E+01  0.296252335E-02  0.271639077E-01
   C  0.988423591E+00 -0.205292215E-01 -0.451446457E-01
   H -0.561532494E+01 -0.703482906E+00  0.309862542E+00
   H  0.552418614E+01  0.576730735E+00  0.338598329E+00
     4
 # iter = 26000  time[fs]=26.00000
   C -0.113086966E+01  0.317741183E-02  0.247094404E-01
   C  0.102870692E+01 -0.253227410E-01 -0.507074855E-01
   H -0.596847260E+01 -0.758984858E+00  0.312058781E+00
   H  0.583117311E+01  0.600121630E+00  0.344512796E+00
     4
 # iter = 26500  time[fs]=26.50000
   C -0.118541606E+01  0.512706946E-02  0.240079908E-01
   C  0.107388340E+01 -0.279869230E-01 -0.542112495E-01
   H -0.631556380E+01 -0.804429112E+00  0.325188634E+00
   H  0.615400292E+01  0.634814268E+00  0.361477249E+00
     4
 # iter = 27000  time[fs]=27.00000
   C -0.124067909E+01  0.893370032E-02  0.251768136E-01
   C  0.112388655E+01 -0.283566267E-01 -0.554798055E-01
   H -0.665530299E+01 -0.838952799E+00  0.350018369E+00
   H  0.649293303E+01  0.681541691E+00  0.390248824E+00
     4
 # iter = 27500  time[fs]=27.50000
   C -0.129831456E+01  0.127215675E-01  0.263357471E-01
   C  0.117605071E+01 -0.288834668E-01 -0.569556054E-01
   H -0.699924411E+01 -0.874465804E+00  0.374559265E+00
   H  0.683550801E+01  0.728275010E+00  0.418820614E+00
     4
 # iter = 28000  time[fs]=28.00000
   C -0.135944935E+01  0.151626249E-01  0.261530978E-01
   C  0.122844578E+01 -0.313012426E-01 -0.603647425E-01
   H -0.735549744E+01 -0.919386207E+00  0.390325411E+00
   H  0.717284217E+01  0.766494813E+00  0.438692332E+00
     4
 # iter = 28500  time[fs]=28.50000
   C -0.142336917E+01  0.167895964E-01  0.251587547E-01
   C  0.128159691E+01 -0.349058521E-01 -0.649965864E-01
   H -0.772032314E+01 -0.970249418E+00  0.400720901E+00
   H  0.750801272E+01  0.799584793E+00  0.453263850E+00
     4
 # iter = 29000  time[fs]=29.00000
   C -0.148859906E+01  0.189134760E-01  0.246614965E-01
   C  0.133706529E+01 -0.379736157E-01 -0.691219481E-01
   H -0.808504581E+01 -0.101862396E+01  0.414123729E+00
   H  0.784912244E+01  0.835909409E+00  0.470913571E+00
     4
 # iter = 29500  time[fs]=29.50000
   C -0.155453902E+01  0.219853598E-01  0.251106157E-01
   C  0.139530063E+01 -0.399076573E-01 -0.721393432E-01
   H -0.844652299E+01 -0.106157863E+01  0.433418957E+00
   H  0.819880877E+01  0.878338243E+00  0.494523580E+00
     4
 # iter = 30000  time[fs]=30.00000
   C -0.162169235E+01  0.253666627E-01  0.258660423E-01
   C  0.145533885E+01 -0.415390189E-01 -0.748759706E-01
   H -0.880860926E+01 -0.110315017E+01  0.454530172E+00
   H  0.855276735E+01  0.922775965E+00  0.520009906E+00
     4
 # iter = 30500  time[fs]=30.50000
   C -0.169064866E+01  0.283454372E-01  0.262146520E-01
   C  0.151613242E+01 -0.437950390E-01 -0.782559437E-01
   H -0.917565389E+01 -0.114784790E+01  0.472913281E+00
   H  0.890625053E+01  0.964660825E+00  0.542820988E+00
     4
 # iter = 31000  time[fs]=31.00000
   C -0.176130997E+01  0.309094804E-01  0.261433552E-01
   C  0.157756213E+01 -0.466863859E-01 -0.822872023E-01
   H -0.954755426E+01 -0.119571261E+01  0.488496382E+00
   H  0.925901035E+01  0.100390806E+01  0.562881080E+00
     4
 # iter = 31500  time[fs]=31.50000
   C -0.183311638E+01  0.335194235E-01  0.261121318E-01
   C  0.164013861E+01 -0.496044274E-01 -0.863587990E-01
   H -0.992120364E+01 -0.124376649E+01  0.504229334E+00
   H  0.961384352E+01  0.104345824E+01  0.583138745E+00
     4
 # iter = 32000  time[fs]=32.00000
   C -0.190569326E+01  0.364601503E-01  0.264053851E-01
   C  0.170415127E+01 -0.521711242E-01 -0.900907343E-01
   H -0.102946352E+02 -0.129015796E+01  0.521938736E+00
   H  0.997243894E+01  0.108512902E+01  0.605418836E+00
     4
 # iter = 32500  time[fs]=32.50000
   C -0.197908279E+01  0.396081913E-01  0.268992934E-01
   C  0.176936260E+01 -0.545438236E-01 -0.936386972E-01
   H -0.106685073E+02 -0.133564804E+01  0.540841368E+00
   H  0.103338871E+02  0.112812732E+01  0.628934834E+00
     4
 # iter = 33000  time[fs]=33.00000
   C -0.205346374E+01  0.427110616E-01  0.273411265E-01
   C  0.183537333E+01 -0.570491945E-01 -0.973279483E-01
   H -0.110443156E+02 -0.138182456E+01  0.559329455E+00
   H  0.106964655E+02  0.117083575E+01  0.652075316E+00
     4
 # iter = 33500  time[fs]=33.50000
   C -0.212884435E+01  0.456936957E-01  0.276556670E-01
   C  0.190202316E+01 -0.597816576E-01 -0.101251706E+00
   H -0.114224327E+02 -0.142914346E+01  0.576929055E+00
   H  0.110595970E+02  0.121277232E+01  0.674363695E+00
     4
 # iter = 34000  time[fs]=34.00000
   C -0.220505854E+01  0.486615000E-01  0.279482458E-01
   C  0.196939411E+01 -0.625993825E-01 -0.105267111E+00
   H -0.118020871E+02 -0.147690908E+01  0.594319471E+00
   H  0.114238686E+02  0.125460978E+01  0.696477625E+00
     4
 # iter = 34500  time[fs]=34.50000
   C -0.228194803E+01  0.517176036E-01  0.283219747E-01
   C  0.203757036E+01 -0.653637645E-01 -0.109234673E+00
   H -0.121825309E+02 -0.152444207E+01  0.612165176E+00
   H  0.117898612E+02  0.129700664E+01  0.719080103E+00
     4
 # iter = 35000  time[fs]=35.00000
   C -0.235946560E+01  0.548589390E-01  0.287738127E-01
   C  0.210650153E+01 -0.680755932E-01 -0.113154423E+00
   H -0.125637022E+02 -0.157174343E+01  0.630451627E+00
   H  0.121574833E+02  0.133994247E+01  0.742154796E+00
     4
 # iter = 35500  time[fs]=35.50000
   C -0.243762639E+01  0.580244435E-01  0.292427576E-01
   C  0.217606536E+01 -0.708118681E-01 -0.117102707E+00
   H -0.129459171E+02 -0.161918630E+01  0.648793363E+00
   H  0.125262788E+02  0.138302614E+01  0.765314335E+00
     4
 # iter = 36000  time[fs]=36.00000
   C -0.251642215E+01  0.611803901E-01  0.296951705E-01
   C  0.224617909E+01 -0.736139590E-01 -0.121120332E+00
   H -0.133293231E+02 -0.166697035E+01  0.666979419E+00
   H  0.128959721E+02  0.142604154E+01  0.788346093E+00
     4
 # iter = 36500  time[fs]=36.50000
   C -0.259580132E+01  0.643398948E-01  0.301442773E-01
   C  0.231682468E+01 -0.764620296E-01 -0.125186972E+00
   H -0.137137735E+02 -0.171499700E+01  0.685098003E+00
   H  0.132665924E+02  0.146907235E+01  0.811336927E+00
     4
 # iter = 37000  time[fs]=37.00000
   C -0.267570472E+01  0.675269036E-01  0.306141499E-01
   C  0.238800122E+01 -0.793222218E-01 -0.129268345E+00
   H -0.140990574E+02 -0.176309951E+01  0.703306304E+00
   H  0.136382426E+02  0.151227161E+01  0.834442831E+00
     4
 # iter = 37500  time[fs]=37.50000
   C -0.275609474E+01  0.707466027E-01  0.311101119E-01
   C  0.245968589E+01 -0.821854216E-01 -0.133354970E+00
   H -0.144850884E+02 -0.181123204E+01  0.721641371E+00
   H  0.140109096E+02  0.155567245E+01  0.857699667E+00
     4
 # iter = 38000  time[fs]=38.00000
   C -0.283695189E+01  0.739886725E-01  0.316219891E-01
   C  0.253183794E+01 -0.850629831E-01 -0.137457879E+00
   H -0.148718831E+02 -0.185944875E+01  0.740040926E+00
   H  0.143844847E+02  0.159920891E+01  0.881043988E+00
     4
 # iter = 38500  time[fs]=38.50000
   C -0.291825762E+01  0.772441648E-01  0.321409844E-01
   C  0.260442058E+01 -0.879645991E-01 -0.141586486E+00
   H -0.152594528E+02 -0.190779585E+01  0.758451255E+00
   H  0.147588714E+02  0.164282383E+01  0.904420992E+00
     4
 # iter = 39000  time[fs]=39.00000
   C -0.299998705E+01  0.805125854E-01  0.326667581E-01
   C  0.267741007E+01 -0.908890096E-01 -0.145739286E+00
   H -0.156477584E+02 -0.195626623E+01  0.776872491E+00
   H  0.151340299E+02  0.168651419E+01  0.927829828E+00
     4
 # iter = 39500  time[fs]=39.50000
   C -0.308211344E+01  0.837971941E-01  0.332027261E-01
   C  0.275078932E+01 -0.938301528E-01 -0.149910005E+00
   H -0.160367395E+02 -0.200482948E+01  0.795328575E+00
   H  0.155099472E+02  0.173030099E+01  0.951293537E+00
     4
 # iter = 40000  time[fs]=40.00000
   C -0.316461385E+01  0.870991950E-01  0.337502488E-01
   C  0.282454018E+01 -0.967847699E-01 -0.154095195E+00
   H -0.164263517E+02 -0.205346896E+01  0.813830135E+00
   H  0.158865998E+02  0.177419212E+01  0.974821893E+00
     4
 # iter = 40500  time[fs]=40.50000
   C -0.324746967E+01  0.904170433E-01  0.343079371E-01
   C  0.289864234E+01 -0.997533061E-01 -0.158295139E+00
   H -0.168165705E+02 -0.210218615E+01  0.832370064E+00
   H  0.162639483E+02  0.181817787E+01  0.998406980E+00
     4
 # iter = 41000  time[fs]=41.00000
   C -0.333066411E+01  0.937487951E-01  0.348740007E-01
   C  0.297307628E+01 -0.102736824E+00 -0.162510753E+00
   H -0.172073765E+02 -0.215098565E+01  0.850938554E+00
   H  0.166419532E+02  0.186224604E+01  0.102203822E+01
     4
 # iter = 41500  time[fs]=41.50000
   C -0.341418061E+01  0.970935772E-01  0.354477179E-01
   C  0.304782509E+01 -0.105735068E+00 -0.166741656E+00
   H -0.175987452E+02 -0.219986566E+01  0.869532493E+00
   H  0.170205833E+02  0.190639123E+01  0.104571180E+01
     4
 # iter = 42000  time[fs]=42.00000
   C -0.349800309E+01  0.100451252E+00  0.360291002E-01
   C  0.312287393E+01 -0.108746903E+00 -0.170986601E+00
   H -0.179906496E+02 -0.224882014E+01  0.888153344E+00
   H  0.173998139E+02  0.195061279E+01  0.106942851E+01
     4
 # iter = 42500  time[fs]=42.50000
   C -0.358211663E+01  0.103821613E+00  0.366180852E-01
   C  0.319820886E+01 -0.111771358E+00 -0.175244518E+00
   H -0.183830646E+02 -0.229784392E+01  0.906801987E+00
   H  0.177796216E+02  0.199490960E+01  0.109318859E+01
     4
 # iter = 43000  time[fs]=43.00000
   C -0.366650762E+01  0.107204136E+00  0.372142918E-01
   C  0.327381646E+01 -0.114807948E+00 -0.179514834E+00
   H -0.187759689E+02 -0.234693423E+01  0.925477172E+00
   H  0.181599819E+02  0.203927852E+01  0.111699020E+01
     4
 # iter = 43500  time[fs]=43.50000
   C -0.375116346E+01  0.110598205E+00  0.378172411E-01
   C  0.334968399E+01 -0.117856374E+00 -0.183797176E+00
   H -0.191693433E+02 -0.239608923E+01  0.944176936E+00
   H  0.185408714E+02  0.208371583E+01  0.114083082E+01
     4
 # iter = 44000  time[fs]=44.00000
   C -0.383607228E+01  0.114003311E+00  0.384265584E-01
   C  0.342579966E+01 -0.120916258E+00 -0.188091098E+00
   H -0.195631692E+02 -0.244530674E+01  0.962899902E+00
   H  0.189222684E+02  0.212821846E+01  0.116470853E+01
     4
 # iter = 44500  time[fs]=44.50000
   C -0.392122289E+01  0.117419056E+00  0.390419768E-01
   C  0.350215252E+01 -0.123987132E+00 -0.192396070E+00
   H -0.199574286E+02 -0.249458417E+01  0.981645310E+00
   H  0.193041528E+02  0.217278408E+01  0.118862207E+01
     4
 # iter = 45000  time[fs]=45.00000
   C -0.400660478E+01  0.120845075E+00  0.396632565E-01
   C  0.357873232E+01 -0.127068539E+00 -0.196711586E+00
   H -0.203521044E+02 -0.254391901E+01  0.100041250E+01
   H  0.196865062E+02  0.221741054E+01  0.121257031E+01
     4
 # iter = 45500  time[fs]=45.50000
   C -0.409220810E+01  0.124280992E+00  0.402901458E-01
   C  0.365552938E+01 -0.130160084E+00 -0.201037202E+00
   H -0.207471807E+02 -0.259330906E+01  0.101920069E+01
   H  0.200693105E+02  0.226209563E+01  0.123655200E+01
     4
 # iter = 46000  time[fs]=46.00000
   C -0.417802360E+01  0.127726438E+00  0.409223922E-01
   C  0.373253460E+01 -0.133261412E+00 -0.205372523E+00
   H -0.211426425E+02 -0.264275235E+01  0.103800903E+01
   H  0.204525490E+02  0.230683717E+01  0.126056587E+01
     4
 # iter = 46500  time[fs]=46.50000
   C -0.426404260E+01  0.131181064E+00  0.415597615E-01
   C  0.380973941E+01 -0.136372183E+00 -0.209717173E+00
   H -0.215384758E+02 -0.269224700E+01  0.105683673E+01
   H  0.208362055E+02  0.235163309E+01  0.128461073E+01
     4
 # iter = 47000  time[fs]=47.00000
   C -0.435025688E+01  0.134644544E+00  0.422020405E-01
   C  0.388713575E+01 -0.139492065E+00 -0.214070788E+00
   H -0.219346671E+02 -0.274179117E+01  0.107568308E+01
   H  0.212202649E+02  0.239648149E+01  0.130868548E+01
     4
 # iter = 47500  time[fs]=47.50000
   C -0.443665871E+01  0.138116574E+00  0.428490304E-01
   C  0.396471602E+01 -0.142620739E+00 -0.218433022E+00
   H -0.223312037E+02 -0.279138311E+01  0.109454745E+01
   H  0.216047131E+02  0.244138059E+01  0.133278910E+01
     4
 # iter = 48000  time[fs]=48.00000
   C -0.452324078E+01  0.141596862E+00  0.435005425E-01
   C  0.404247305E+01 -0.145757906E+00 -0.222803550E+00
   H -0.227280734E+02 -0.284102119E+01  0.111342920E+01
   H  0.219895363E+02  0.248632866E+01  0.135692064E+01
     4
 # iter = 48500  time[fs]=48.50000
   C -0.460999621E+01  0.145085127E+00  0.441563976E-01
   C  0.412040005E+01 -0.148903279E+00 -0.227182065E+00
   H -0.231252649E+02 -0.289070383E+01  0.113232774E+01
   H  0.223747218E+02  0.253132407E+01  0.138107913E+01
     4
 # iter = 49000  time[fs]=49.00000
   C -0.469691846E+01  0.148581104E+00  0.448164263E-01
   C  0.419849062E+01 -0.152056589E+00 -0.231568278E+00
   H -0.235227672E+02 -0.294042957E+01  0.115124249E+01
   H  0.227602572E+02  0.257636526E+01  0.140526371E+01
     4
 # iter = 49500  time[fs]=49.50000
   C -0.478400135E+01  0.152084540E+00  0.454804689E-01
   C  0.427673869E+01 -0.155217577E+00 -0.235961915E+00
   H -0.239205701E+02 -0.299019698E+01  0.117017292E+01
   H  0.231461309E+02  0.262145075E+01  0.142947352E+01
     4
 # iter = 50000  time[fs]=50.00000
   C -0.487123905E+01  0.155595194E+00  0.461483746E-01
   C  0.435513851E+01 -0.158385996E+00 -0.240362714E+00
   H -0.243186637E+02 -0.304000473E+01  0.118911850E+01
   H  0.235323318E+02  0.266657914E+01  0.145370775E+01
     4
 # iter = 50500  time[fs]=50.50000
   C -0.495862599E+01  0.159112836E+00  0.468200005E-01
   C  0.443368464E+01 -0.161561611E+00 -0.244770427E+00
   H -0.247170385E+02 -0.308985153E+01  0.120807876E+01
   H  0.239188494E+02  0.271174907E+01  0.147796565E+01
     4
 # iter = 51000  time[fs]=51.00000
   C -0.504615692E+01  0.162637246E+00  0.474952114E-01
   C  0.451237189E+01 -0.164744197E+00 -0.249184819E+00
   H -0.251156857E+02 -0.313973616E+01  0.122705322E+01
   H  0.243056737E+02  0.275695927E+01  0.150224647E+01
     4
 # iter = 51500  time[fs]=51.50000
   C -0.513382684E+01  0.166168216E+00  0.481738787E-01
   C  0.459119537E+01 -0.167933540E+00 -0.253605667E+00
   H -0.255145968E+02 -0.318965747E+01  0.124604144E+01
   H  0.246927950E+02  0.280220851E+01  0.152654953E+01
     4
 # iter = 52000  time[fs]=52.00000
   C -0.522163099E+01  0.169705544E+00  0.488558806E-01
   C  0.467015041E+01 -0.171129434E+00 -0.258032758E+00
   H -0.259137637E+02 -0.323961433E+01  0.126504299E+01
   H  0.250802041E+02  0.284749562E+01  0.155087415E+01
     4
 # iter = 52500  time[fs]=52.50000
   C -0.530956486E+01  0.173249040E+00  0.495411013E-01
   C  0.474923256E+01 -0.174331684E+00 -0.262465889E+00
   H -0.263131785E+02 -0.328960568E+01  0.128405747E+01
   H  0.254678924E+02  0.289281948E+01  0.157521969E+01
     4
 # iter = 53000  time[fs]=53.00000
   C -0.539762414E+01  0.176798520E+00  0.502294309E-01
   C  0.482843760E+01 -0.177540102E+00 -0.266904867E+00
   H -0.267128338E+02 -0.333963051E+01  0.130308450E+01
   H  0.258558515E+02  0.293817902E+01  0.159958555E+01
     4
 # iter = 53500  time[fs]=53.50000
   C -0.548580473E+01  0.180353808E+00  0.509207646E-01
   C  0.490776152E+01 -0.180754507E+00 -0.271349507E+00
   H -0.271127227E+02 -0.338968785E+01  0.132212370E+01
   H  0.262440734E+02  0.298357321E+01  0.162397114E+01
     4
 # iter = 54000  time[fs]=54.00000
   C -0.557410274E+01  0.183914737E+00  0.516150029E-01
   C  0.498720047E+01 -0.183974728E+00 -0.275799635E+00
   H -0.275128381E+02 -0.343977676E+01  0.134117471E+01
   H  0.266325505E+02  0.302900109E+01  0.164837590E+01
     4
 # iter = 54500  time[fs]=54.50000
   C -0.566251442E+01  0.187481146E+00  0.523120509E-01
   C  0.506675079E+01 -0.187200600E+00 -0.280255081E+00
   H -0.279131738E+02 -0.348989636E+01  0.136023721E+01
   H  0.270212753E+02  0.307446169E+01  0.167279930E+01
     4
 # iter = 55000  time[fs]=55.00000
   C -0.575103623E+01  0.191052880E+00  0.530118180E-01
   C  0.514640901E+01 -0.190431964E+00 -0.284715687E+00
   H -0.283137234E+02 -0.354004578E+01  0.137931086E+01
   H  0.274102410E+02  0.311995413E+01  0.169724081E+01
     4
 # iter = 55500  time[fs]=55.50000
   C -0.583966478E+01  0.194629791E+00  0.537142179E-01
   C  0.522617178E+01 -0.193668668E+00 -0.289181297E+00
   H -0.287144810E+02 -0.359022421E+01  0.139839535E+01
   H  0.277994408E+02  0.316547753E+01  0.172169995E+01
     4
 # iter = 56000  time[fs]=56.00000
   C -0.592839680E+01  0.198211737E+00  0.544191683E-01
   C  0.530603591E+01 -0.196910566E+00 -0.293651766E+00
   H -0.291154408E+02 -0.364043086E+01  0.141749039E+01
   H  0.281888683E+02  0.321103107E+01  0.174617624E+01
     4
 # iter = 56500  time[fs]=56.50000
   C -0.601722920E+01  0.201798582E+00  0.551265905E-01
   C  0.538599837E+01 -0.200157520E+00 -0.298126953E+00
   H -0.295165974E+02 -0.369066498E+01  0.143659568E+01
   H  0.285785172E+02  0.325661394E+01  0.177066924E+01
     4
 # iter = 57000  time[fs]=57.00000
   C -0.610615902E+01  0.205390194E+00  0.558364092E-01
   C  0.546605623E+01 -0.203409392E+00 -0.302606723E+00
   H -0.299179455E+02 -0.374092583E+01  0.145571095E+01
   H  0.289683816E+02  0.330222538E+01  0.179517849E+01
     4
 # iter = 57500  time[fs]=57.50000
   C -0.619518339E+01  0.208986448E+00  0.565485525E-01
   C  0.554620670E+01 -0.206666055E+00 -0.307090948E+00
   H -0.303194800E+02 -0.379121273E+01  0.147483595E+01
   H  0.293584558E+02  0.334786466E+01  0.181970358E+01
     4
 # iter = 58000  time[fs]=58.00000
   C -0.628429961E+01  0.212587221E+00  0.572629516E-01
   C  0.562644712E+01 -0.209927384E+00 -0.311579504E+00
   H -0.307211960E+02 -0.384152501E+01  0.149397041E+01
   H  0.297487343E+02  0.339353105E+01  0.184424410E+01
     4
 # iter = 58500  time[fs]=58.50000
   C -0.637350506E+01  0.216192398E+00  0.579795406E-01
   C  0.570677492E+01 -0.213193259E+00 -0.316072271E+00
   H -0.311230889E+02 -0.389186201E+01  0.151311408E+01
   H  0.301392119E+02  0.343922388E+01  0.186879968E+01
     4
 # iter = 59000  time[fs]=59.00000
   C -0.646279723E+01  0.219801867E+00  0.586982563E-01
   C  0.578718765E+01 -0.216463565E+00 -0.320569137E+00
   H -0.315251542E+02 -0.394222311E+01  0.153226674E+01
   H  0.305298834E+02  0.348494249E+01  0.189336992E+01
     4
 # iter = 59500  time[fs]=59.50000
   C -0.655217372E+01  0.223415518E+00  0.594190382E-01
   C  0.586768294E+01 -0.219738190E+00 -0.325069991E+00
   H -0.319273874E+02 -0.399260773E+01  0.155142817E+01
   H  0.309207441E+02  0.353068624E+01  0.191795447E+01
     4
 # iter = 60000  time[fs]=60.00000
   C -0.664163223E+01  0.227033249E+00  0.601418283E-01
   C  0.594825853E+01 -0.223017027E+00 -0.329574729E+00
   H -0.323297845E+02 -0.404301527E+01  0.157059813E+01
   H  0.313117890E+02  0.357645453E+01  0.194255299E+01
     4
 # iter = 60500  time[fs]=60.50000
   C -0.673117054E+01  0.230654957E+00  0.608665709E-01
   C  0.602891226E+01 -0.226299974E+00 -0.334083249E+00
   H -0.327323414E+02 -0.409344520E+01  0.158977642E+01
   H  0.317030139E+02  0.362224676E+01  0.196716513E+01
     4
 # iter = 61000  time[fs]=61.00000
   C -0.682078653E+01  0.234280548E+00  0.615932125E-01
   C  0.610964203E+01 -0.229586930E+00 -0.338595453E+00
   H -0.331350542E+02 -0.414389696E+01  0.160896284E+01
   H  0.320944141E+02  0.366806237E+01  0.199179057E+01
     4
 # iter = 61500  time[fs]=61.50000
   C -0.691047813E+01  0.237909927E+00  0.623217017E-01
   C  0.619044583E+01 -0.232877801E+00 -0.343111249E+00
   H -0.335379192E+02 -0.419437004E+01  0.162815719E+01
   H  0.324859857E+02  0.371390080E+01  0.201642901E+01
     4
 # iter = 62000  time[fs]=62.00000
   C -0.700024339E+01  0.241543004E+00  0.630519892E-01
   C  0.627132174E+01 -0.236172492E+00 -0.347630546E+00
   H -0.339409328E+02 -0.424486395E+01  0.164735929E+01
   H  0.328777244E+02  0.375976154E+01  0.204108013E+01
     4
 # iter = 62500  time[fs]=62.50000
   C -0.709008041E+01  0.245179692E+00  0.637840276E-01
   C  0.635226790E+01 -0.239470915E+00 -0.352153258E+00
   H -0.343440915E+02 -0.429537820E+01  0.166656895E+01
   H  0.332696263E+02  0.380564406E+01  0.206574365E+01
     4
 # iter = 63000  time[fs]=63.00000
   C -0.717998737E+01  0.248819908E+00  0.645177712E-01
   C  0.643328251E+01 -0.242772982E+00 -0.356679300E+00
   H -0.347473918E+02 -0.434591233E+01  0.168578600E+01
   H  0.336616877E+02  0.385154788E+01  0.209041928E+01
     4
 # iter = 63500  time[fs]=63.50000
   C -0.726996251E+01  0.252463569E+00  0.652531760E-01
   C  0.651436386E+01 -0.246078612E+00 -0.361208591E+00
   H -0.351508307E+02 -0.439646589E+01  0.170501027E+01
   H  0.340539050E+02  0.389747251E+01  0.211510676E+01
     4
 # iter = 64000  time[fs]=64.00000
   C -0.736000413E+01  0.256110598E+00  0.659901998E-01
   C  0.659551029E+01 -0.249387722E+00 -0.365741055E+00
   H -0.355544049E+02 -0.444703844E+01  0.172424159E+01
   H  0.344462744E+02  0.394341749E+01  0.213980582E+01
     4
 # iter = 64500  time[fs]=64.50000
   C -0.745011061E+01  0.259760919E+00  0.667288018E-01
   C  0.667672019E+01 -0.252700235E+00 -0.370276615E+00
   H -0.359581114E+02 -0.449762957E+01  0.174347981E+01
   H  0.348387928E+02  0.398938238E+01  0.216451621E+01
     4
 # iter = 65000  time[fs]=65.00000
   C -0.754028037E+01  0.263414458E+00  0.674689428E-01
   C  0.675799202E+01 -0.256016076E+00 -0.374815200E+00
   H -0.363619472E+02 -0.454823886E+01  0.176272478E+01
   H  0.352314566E+02  0.403536674E+01  0.218923768E+01
     4
 # iter = 65500  time[fs]=65.50000
   C -0.763051189E+01  0.267071145E+00  0.682105850E-01
   C  0.683932430E+01 -0.259335171E+00 -0.379356739E+00
   H -0.367659096E+02 -0.459886593E+01  0.178197634E+01
   H  0.356242629E+02  0.408137016E+01  0.221396998E+01
     4
 # iter = 66000  time[fs]=66.00000
   C -0.772080371E+01  0.270730910E+00  0.689536918E-01
   C  0.692071559E+01 -0.262657449E+00 -0.383901165E+00
   H -0.371699958E+02 -0.464951038E+01  0.180123435E+01
   H  0.360172083E+02  0.412739223E+01  0.223871290E+01
     4
 # iter = 66500  time[fs]=66.50000
   C -0.781115441E+01  0.274393688E+00  0.696982280E-01
   C  0.700216449E+01 -0.265982842E+00 -0.388448412E+00
   H -0.375742030E+02 -0.470017187E+01  0.182049868E+01
   H  0.364102900E+02  0.417343256E+01  0.226346621E+01
     4
 # iter = 67000  time[fs]=67.00000
   C -0.790156262E+01  0.278059414E+00  0.704441597E-01
   C  0.708366968E+01 -0.269311284E+00 -0.392998417E+00
   H -0.379785288E+02 -0.475085002E+01  0.183976919E+01
   H  0.368035051E+02  0.421949076E+01  0.228822969E+01
     4
 # iter = 67500  time[fs]=67.50000
   C -0.799202703E+01  0.281728025E+00  0.711914541E-01
   C  0.716522985E+01 -0.272642711E+00 -0.397551119E+00
   H -0.383829707E+02 -0.480154449E+01  0.185904575E+01
   H  0.371968507E+02  0.426556647E+01  0.231300313E+01
     4
 # iter = 68000  time[fs]=68.00000
   C -0.808254635E+01  0.285399461E+00  0.719400794E-01
   C  0.724684376E+01 -0.275977060E+00 -0.402106459E+00
   H -0.387875262E+02 -0.485225494E+01  0.187832823E+01
   H  0.375903241E+02  0.431165934E+01  0.233778633E+01
     4
 # iter = 68500  time[fs]=68.50000
   C -0.817311936E+01  0.289073664E+00  0.726900051E-01
   C  0.732851019E+01 -0.279314271E+00 -0.406664379E+00
   H -0.391921929E+02 -0.490298106E+01  0.189761651E+01
   H  0.379839227E+02  0.435776900E+01  0.236257909E+01
     4
 # iter = 69000  time[fs]=69.00000
   C -0.826374486E+01  0.292750576E+00  0.734412014E-01
   C  0.741022798E+01 -0.282654285E+00 -0.411224824E+00
   H -0.395969687E+02 -0.495372252E+01  0.191691048E+01
   H  0.383776439E+02  0.440389514E+01  0.238738121E+01
     4
 # iter = 69500  time[fs]=69.50000
   C -0.835442168E+01  0.296430143E+00  0.741936399E-01
   C  0.749199599E+01 -0.285997045E+00 -0.415787741E+00
   H -0.400018513E+02 -0.500447901E+01  0.193621002E+01
   H  0.387714852E+02  0.445003742E+01  0.241219252E+01
     4
 # iter = 70000  time[fs]=70.00000
   C -0.844514873E+01  0.300112312E+00  0.749472928E-01
   C  0.757381313E+01 -0.289342497E+00 -0.420353078E+00
   H -0.404068386E+02 -0.505525025E+01  0.195551501E+01
   H  0.391654442E+02  0.449619552E+01  0.243701284E+01
     4
 # iter = 70500  time[fs]=70.50000
   C -0.853592491E+01  0.303797029E+00  0.757021333E-01
   C  0.765567833E+01 -0.292690587E+00 -0.424920783E+00
   H -0.408119284E+02 -0.510603594E+01  0.197482535E+01
   H  0.395595187E+02  0.454236914E+01  0.246184198E+01
     4
 # iter = 71000  time[fs]=71.00000
   C -0.862674917E+01  0.307484245E+00  0.764581356E-01
   C  0.773759057E+01 -0.296041263E+00 -0.429490808E+00
   H -0.412171188E+02 -0.515683581E+01  0.199414094E+01
   H  0.399537062E+02  0.458855797E+01  0.248667977E+01
     4
 # iter = 71500  time[fs]=71.50000
   C -0.871762049E+01  0.311173911E+00  0.772152744E-01
   C  0.781954886E+01 -0.299394475E+00 -0.434063107E+00
   H -0.416224079E+02 -0.520764957E+01  0.201346167E+01
   H  0.403480047E+02  0.463476174E+01  0.251152607E+01
     4
 # iter = 72000  time[fs]=72.00000
   C -0.880853790E+01  0.314865980E+00  0.779735255E-01
   C  0.790155222E+01 -0.302750173E+00 -0.438637632E+00
   H -0.420277937E+02 -0.525847697E+01  0.203278744E+01
   H  0.407424120E+02  0.468098015E+01  0.253638069E+01
     4
 # iter = 72500  time[fs]=72.50000
   C -0.889950044E+01  0.318560404E+00  0.787328653E-01
   C  0.798359972E+01 -0.306108310E+00 -0.443214339E+00
   H -0.424332743E+02 -0.530931775E+01  0.205211816E+01
   H  0.411369259E+02  0.472721293E+01  0.256124349E+01
     4
 # iter = 73000  time[fs]=73.00000
   C -0.899050717E+01  0.322257141E+00  0.794932709E-01
   C  0.806569046E+01 -0.309468840E+00 -0.447793185E+00
   H -0.428388481E+02 -0.536017165E+01  0.207145373E+01
   H  0.415315445E+02  0.477345982E+01  0.258611431E+01
     4
 # iter = 73500  time[fs]=73.50000
   C -0.908155721E+01  0.325956145E+00  0.802547204E-01
   C  0.814782356E+01 -0.312831718E+00 -0.452374129E+00
   H -0.432445131E+02 -0.541103845E+01  0.209079407E+01
   H  0.419262659E+02  0.481972055E+01  0.261099301E+01
     4
 # iter = 74000  time[fs]=74.00000
   C -0.917264968E+01  0.329657374E+00  0.810171920E-01
   C  0.822999815E+01 -0.316196899E+00 -0.456957128E+00
   H -0.436502679E+02 -0.546191789E+01  0.211013908E+01
   H  0.423210880E+02  0.486599488E+01  0.263587944E+01
     4
 # iter = 74500  time[fs]=74.50000
   C -0.926378374E+01  0.333360788E+00  0.817806652E-01
   C  0.831221342E+01 -0.319564342E+00 -0.461542145E+00
   H -0.440561106E+02 -0.551280975E+01  0.212948867E+01
   H  0.427160091E+02  0.491228255E+01  0.266077346E+01
     4
 # iter = 75000  time[fs]=75.00000
   C -0.935495856E+01  0.337066345E+00  0.825451195E-01
   C  0.839446856E+01 -0.322934005E+00 -0.466129139E+00
   H -0.444620397E+02 -0.556371381E+01  0.214884278E+01
   H  0.431110273E+02  0.495858333E+01  0.268567494E+01
     4
 # iter = 75500  time[fs]=75.50000
   C -0.944617335E+01  0.340774008E+00  0.833105355E-01
   C  0.847676278E+01 -0.326305848E+00 -0.470718073E+00
   H -0.448680536E+02 -0.561462985E+01  0.216820130E+01
   H  0.435061409E+02  0.500489699E+01  0.271058375E+01
     4
 # iter = 76000  time[fs]=76.00000
   C -0.953742732E+01  0.344483738E+00  0.840768941E-01
   C  0.855909534E+01 -0.329679832E+00 -0.475308913E+00
   H -0.452741509E+02 -0.566555765E+01  0.218756418E+01
   H  0.439013482E+02  0.505122329E+01  0.273549975E+01
     4
 # iter = 76500  time[fs]=76.50000
   C -0.962871974E+01  0.348195498E+00  0.848441767E-01
   C  0.864146548E+01 -0.333055918E+00 -0.479901620E+00
   H -0.456803299E+02 -0.571649702E+01  0.220693131E+01
   H  0.442966475E+02  0.509756203E+01  0.276042282E+01
     4
 # iter = 77000  time[fs]=77.00000
   C -0.972004986E+01  0.351909252E+00  0.856123655E-01
   C  0.872387250E+01 -0.336434069E+00 -0.484496163E+00
   H -0.460865894E+02 -0.576744774E+01  0.222630264E+01
   H  0.446920371E+02  0.514391297E+01  0.278535284E+01
     4
 # iter = 77500  time[fs]=77.50000
   C -0.981141698E+01  0.355624965E+00  0.863814429E-01
   C  0.880631569E+01 -0.339814249E+00 -0.489092506E+00
   H -0.464929279E+02 -0.581840963E+01  0.224567809E+01
   H  0.450875156E+02  0.519027593E+01  0.281028968E+01
     4
 # iter = 78000  time[fs]=78.00000
   C -0.990282040E+01  0.359342602E+00  0.871513921E-01
   C  0.888879439E+01 -0.343196424E+00 -0.493690618E+00
   H -0.468993439E+02 -0.586938249E+01  0.226505759E+01
   H  0.454830813E+02  0.523665068E+01  0.283523324E+01
     4
 # iter = 78500  time[fs]=78.50000
   C -0.999425946E+01  0.363062132E+00  0.879221965E-01
   C  0.897130792E+01 -0.346580557E+00 -0.498290466E+00
   H -0.473058363E+02 -0.592036613E+01  0.228444107E+01
   H  0.458787328E+02  0.528303703E+01  0.286018340E+01
     4
 # iter = 79000  time[fs]=79.00000
   C -0.100857335E+02  0.366783520E+00  0.886938400E-01
   C  0.905385566E+01 -0.349966617E+00 -0.502892021E+00
   H -0.477124036E+02 -0.597136039E+01  0.230382846E+01
   H  0.462744685E+02  0.532943479E+01  0.288514005E+01
     4
 # iter = 79500  time[fs]=79.50000
   C -0.101772419E+02  0.370506736E+00  0.894663072E-01
   C  0.913643697E+01 -0.353354570E+00 -0.507495251E+00
   H -0.481190447E+02 -0.602236506E+01  0.232321969E+01
   H  0.466702872E+02  0.537584377E+01  0.291010308E+01
     4
 # iter = 80000  time[fs]=80.00000
   C -0.102687839E+02  0.374231749E+00  0.902395827E-01
   C  0.921905125E+01 -0.356744384E+00 -0.512100127E+00
   H -0.485257583E+02 -0.607338000E+01  0.234261470E+01
   H  0.470661873E+02  0.542226378E+01  0.293507238E+01
