     4
 # iter = 25000  time[fs]=25.00000
   C -0.925176517E+00 -0.244813243E-01  0.239267972E-01
   C  0.990867395E+00 -0.360500075E-01 -0.255490529E-02
   H -0.515253996E+01  0.361405369E+00 -0.418542417E+00
   H  0.520467905E+01  0.368456305E-01  0.138719761E+00
     4
 # iter = 25500  time[fs]=25.50000
   C -0.967525359E+00 -0.287024173E-01  0.248774265E-01
   C  0.103075770E+01 -0.387054787E-01 -0.399772355E-02
   H -0.548582978E+01  0.373777165E+00 -0.454047308E+00
   H  0.551230701E+01  0.308239537E-01  0.140472201E+00
     4
 # iter = 26000  time[fs]=26.00000
   C -0.101385122E+01 -0.338530435E-01  0.249823528E-01
   C  0.107270643E+01 -0.423654228E-01 -0.646104278E-02
   H -0.582993821E+01  0.381164423E+00 -0.495451818E+00
   H  0.582024343E+01  0.194616614E-01  0.136985482E+00
     4
 # iter = 26500  time[fs]=26.50000
   C -0.106117139E+01 -0.371959070E-01  0.269742850E-01
   C  0.111936860E+01 -0.441218908E-01 -0.704063394E-02
   H -0.616814428E+01  0.399603601E+00 -0.526610328E+00
   H  0.614397392E+01  0.188385763E-01  0.144329948E+00
     4
 # iter = 27000  time[fs]=27.00000
   C -0.110911800E+01 -0.385963957E-01  0.309836842E-01
   C  0.117065685E+01 -0.438265042E-01 -0.559062429E-02
   H -0.649913463E+01  0.429849027E+00 -0.546680032E+00
   H  0.648375861E+01  0.297440701E-01  0.163286374E+00
     4
 # iter = 27500  time[fs]=27.50000
   C -0.115951038E+01 -0.400923634E-01  0.349688612E-01
   C  0.122419860E+01 -0.436343951E-01 -0.426768362E-02
   H -0.683445383E+01  0.459896416E+00 -0.567592933E+00
   H  0.682714926E+01  0.402025371E-01  0.181871350E+00
     4
 # iter = 28000  time[fs]=28.00000
   C -0.121358950E+01 -0.431256572E-01  0.374842080E-01
   C  0.127826928E+01 -0.450700133E-01 -0.459711505E-02
   H -0.718220329E+01  0.481247331E+00 -0.597785287E+00
   H  0.716526595E+01  0.417401023E-01  0.191604187E+00
     4
 # iter = 28500  time[fs]=28.50000
   C -0.127059080E+01 -0.471141446E-01  0.391080931E-01
   C  0.133330512E+01 -0.475135655E-01 -0.595949414E-02
   H -0.753863060E+01  0.497299813E+00 -0.633803637E+00
   H  0.750118761E+01  0.377765809E-01  0.195898885E+00
     4
 # iter = 29000  time[fs]=29.00000
   C -0.132892017E+01 -0.506291207E-01  0.412655485E-01
   C  0.139065522E+01 -0.494487153E-01 -0.683847261E-02
   H -0.789504691E+01  0.516429007E+00 -0.667223865E+00
   H  0.784301686E+01  0.367062753E-01  0.203144700E+00
     4
 # iter = 29500  time[fs]=29.50000
   C -0.138793381E+01 -0.531770442E-01  0.444466439E-01
   C  0.145069288E+01 -0.503508147E-01 -0.670907830E-02
   H -0.824830014E+01  0.541515460E+00 -0.695123133E+00
   H  0.819339230E+01  0.414262413E-01  0.216234169E+00
     4
 # iter = 30000  time[fs]=30.00000
   C -0.144818692E+01 -0.554495037E-01  0.479565432E-01
   C  0.151254970E+01 -0.509517210E-01 -0.630261038E-02
   H -0.860223955E+01  0.568475775E+00 -0.721548464E+00
   H  0.854801249E+01  0.478672851E-01  0.231093996E+00
     4
 # iter = 30500  time[fs]=30.50000
   C -0.151032758E+01 -0.582179044E-01  0.510207806E-01
   C  0.157528562E+01 -0.520682216E-01 -0.643514738E-02
   H -0.896121014E+01  0.592759282E+00 -0.751018624E+00
   H  0.890213277E+01  0.514911710E-01  0.243182263E+00
     4
 # iter = 31000  time[fs]=31.00000
   C -0.157425504E+01 -0.614926637E-01  0.536260354E-01
   C  0.163877878E+01 -0.537108161E-01 -0.711639304E-02
   H -0.932510367E+01  0.614290079E+00 -0.783580959E+00
   H  0.925550685E+01  0.522330862E-01  0.252430887E+00
     4
 # iter = 31500  time[fs]=31.50000
   C -0.163936537E+01 -0.647700306E-01  0.562733156E-01
   C  0.170346275E+01 -0.553452620E-01 -0.781125790E-02
   H -0.969080696E+01  0.636015853E+00 -0.816262112E+00
   H  0.961093221E+01  0.530506501E-01  0.261794575E+00
     4
 # iter = 32000  time[fs]=32.00000
   C -0.170525554E+01 -0.677375158E-01  0.592725424E-01
   C  0.176957801E+01 -0.566402025E-01 -0.818750879E-02
   H -0.100563479E+02  0.659760868E+00 -0.847214896E+00
   H  0.997009865E+01  0.557769800E-01  0.273103817E+00
     4
 # iter = 32500  time[fs]=32.50000
   C -0.177197542E+01 -0.705268871E-01  0.624895560E-01
   C  0.183690282E+01 -0.577352756E-01 -0.838389447E-02
   H -0.104223811E+02  0.684738674E+00 -0.877205331E+00
   H  0.103320981E+02  0.596335102E-01  0.285577654E+00
     4
 # iter = 33000  time[fs]=33.00000
   C -0.183972305E+01 -0.734103569E-01  0.656499152E-01
   C  0.190507432E+01 -0.589190700E-01 -0.868811967E-02
   H -0.107903994E+02  0.709338161E+00 -0.907826210E+00
   H  0.106952093E+02  0.630161922E-01  0.297609857E+00
     4
 # iter = 33500  time[fs]=33.50000
   C -0.190851063E+01 -0.764672945E-01  0.686721699E-01
   C  0.197394097E+01 -0.602758500E-01 -0.918358392E-02
   H -0.111607725E+02  0.733082838E+00 -0.939537453E+00
   H  0.110588566E+02  0.654549097E-01  0.308728330E+00
     4
 # iter = 34000  time[fs]=34.00000
   C -0.197816044E+01 -0.795809068E-01  0.716711705E-01
   C  0.204356529E+01 -0.616820200E-01 -0.974585366E-02
   H -0.115327255E+02  0.756650216E+00 -0.971646487E+00
   H  0.114236278E+02  0.676329549E-01  0.319614563E+00
     4
 # iter = 34500  time[fs]=34.50000
   C -0.204850292E+01 -0.826370006E-01  0.747592985E-01
   C  0.211401261E+01 -0.630167804E-01 -0.102533222E-01
   H -0.119055075E+02  0.780703156E+00 -0.100347675E+01
   H  0.117901044E+02  0.702184396E-01  0.330935022E+00
     4
 # iter = 35000  time[fs]=35.00000
   C -0.211948914E+01 -0.856370050E-01  0.779334378E-01
   C  0.218523063E+01 -0.642819091E-01 -0.107069934E-01
   H -0.122790543E+02  0.805225348E+00 -0.103503209E+01
   H  0.121581957E+02  0.731998244E-01  0.342676657E+00
     4
 # iter = 35500  time[fs]=35.50000
   C -0.219113776E+01 -0.886455399E-01  0.811273973E-01
   C  0.225710459E+01 -0.655461783E-01 -0.111749003E-01
   H -0.126536798E+02  0.829829539E+00 -0.106668838E+01
   H  0.125274465E+02  0.761942076E-01  0.354455175E+00
     4
 # iter = 36000  time[fs]=36.00000
   C -0.226344184E+01 -0.916976011E-01  0.843047163E-01
   C  0.232955507E+01 -0.668469721E-01 -0.116937233E-01
   H -0.130295296E+02  0.854303188E+00 -0.109864775E+01
   H  0.128975821E+02  0.789930264E-01  0.366060732E+00
     4
 # iter = 36500  time[fs]=36.50000
   C -0.233634716E+01 -0.947773368E-01  0.874798800E-01
   C  0.240256014E+01 -0.681677856E-01 -0.122462901E-01
   H -0.134064552E+02  0.878733187E+00 -0.113081373E+01
   H  0.132686321E+02  0.816868236E-01  0.377582690E+00
     4
 # iter = 37000  time[fs]=37.00000
   C -0.240979104E+01 -0.978572119E-01  0.906791475E-01
   C  0.247611349E+01 -0.694797327E-01 -0.128030820E-01
   H -0.137842439E+02  0.903275548E+00 -0.116302150E+01
   H  0.136407002E+02  0.844349679E-01  0.389179326E+00
     4
 # iter = 37500  time[fs]=37.50000
   C -0.248373418E+01 -0.100930185E+00  0.939083687E-01
   C  0.255018996E+01 -0.707756474E-01 -0.133563344E-01
   H -0.141628076E+02  0.927966181E+00 -0.119522703E+01
   H  0.140137737E+02  0.872764617E-01  0.400888630E+00
     4
 # iter = 38000  time[fs]=38.00000
   C -0.255815685E+01 -0.104006166E+00  0.971565221E-01
   C  0.262474907E+01 -0.720663250E-01 -0.139162766E-01
   H -0.145421614E+02  0.952741709E+00 -0.122748619E+01
   H  0.143877445E+02  0.901507799E-01  0.412649138E+00
     4
 # iter = 38500  time[fs]=38.50000
   C -0.263304025E+01 -0.107093648E+00  0.100414071E+00
   C  0.269975419E+01 -0.733610569E-01 -0.144916652E-01
   H -0.149223156E+02  0.977547398E+00 -0.125984676E+01
   H  0.147625167E+02  0.930058297E-01  0.424407885E+00
     4
 # iter = 39000  time[fs]=39.00000
   C -0.270835859E+01 -0.110192006E+00  0.103680668E+00
   C  0.277518047E+01 -0.746594595E-01 -0.150816115E-01
   H -0.153032295E+02  0.100238246E+01 -0.129230309E+01
   H  0.151380508E+02  0.958432666E-01  0.436165711E+00
     4
 # iter = 39500  time[fs]=39.50000
   C -0.278408396E+01 -0.113296600E+00  0.106960040E+00
   C  0.285100929E+01 -0.759568865E-01 -0.156809921E-01
   H -0.156848417E+02  0.102726999E+01 -0.132482611E+01
   H  0.155143345E+02  0.986884566E-01  0.447947225E+00
     4
 # iter = 40000  time[fs]=40.00000
   C -0.286019253E+01 -0.116405090E+00  0.110253672E+00
   C  0.292722131E+01 -0.772511208E-01 -0.162871397E-01
   H -0.160671066E+02  0.105221982E+01 -0.135740039E+01
   H  0.158913444E+02  0.101553344E+00  0.459763663E+00
     4
 # iter = 40500  time[fs]=40.50000
   C -0.293666508E+01 -0.119518186E+00  0.113560050E+00
   C  0.300379558E+01 -0.785431689E-01 -0.169006356E-01
   H -0.164499990E+02  0.107722409E+01 -0.139002861E+01
   H  0.162690417E+02  0.104432040E+00  0.471608472E+00
     4
 # iter = 41000  time[fs]=41.00000
   C -0.301348434E+01 -0.122637085E+00  0.116877222E+00
   C  0.308071207E+01 -0.798345472E-01 -0.175225944E-01
   H -0.168334981E+02  0.110227229E+01 -0.142271642E+01
   H  0.166473871E+02  0.107315866E+00  0.483472354E+00
     4
 # iter = 41500  time[fs]=41.50000
   C -0.309063321E+01 -0.125761877E+00  0.120204391E+00
   C  0.315795324E+01 -0.811255839E-01 -0.181529648E-01
   H -0.172175789E+02  0.112736066E+01 -0.145546306E+01
   H  0.170263499E+02  0.110202773E+00  0.495352675E+00
     4
 # iter = 42000  time[fs]=42.00000
   C -0.316809505E+01 -0.128891895E+00  0.123541556E+00
   C  0.323550358E+01 -0.824158007E-01 -0.187909100E-01
   H -0.176022134E+02  0.115249003E+01 -0.148826343E+01
   H  0.174059057E+02  0.113095211E+00  0.507251342E+00
     4
 # iter = 42500  time[fs]=42.50000
   C -0.324585444E+01 -0.132026596E+00  0.126888630E+00
   C  0.331334854E+01 -0.837048398E-01 -0.194357329E-01
   H -0.179873758E+02  0.117766073E+01 -0.152111324E+01
   H  0.177860312E+02  0.115994993E+00  0.519169650E+00
     4
 # iter = 43000  time[fs]=43.00000
   C -0.332389734E+01 -0.135165823E+00  0.130245181E+00
   C  0.339147416E+01 -0.849927428E-01 -0.200871543E-01
   H -0.183730440E+02  0.120287095E+01 -0.155401054E+01
   H  0.181667025E+02  0.118901736E+00  0.531106733E+00
     4
 # iter = 43500  time[fs]=43.50000
   C -0.340221076E+01 -0.138309560E+00  0.133610666E+00
   C  0.346986727E+01 -0.862796929E-01 -0.207450539E-01
   H -0.187591982E+02  0.122811822E+01 -0.158695429E+01
   H  0.185478963E+02  0.121814291E+00  0.543060986E+00
     4
 # iter = 44000  time[fs]=44.00000
   C -0.348078247E+01 -0.141457709E+00  0.136984654E+00
   C  0.354851564E+01 -0.875657793E-01 -0.214092333E-01
   H -0.191458192E+02  0.125340069E+01 -0.161994305E+01
   H  0.189295911E+02  0.124732048E+00  0.555031367E+00
     4
 # iter = 44500  time[fs]=44.50000
   C -0.355960094E+01 -0.144610087E+00  0.140366832E+00
   C  0.362740791E+01 -0.888509913E-01 -0.220794095E-01
   H -0.195328882E+02  0.127871713E+01 -0.165297490E+01
   H  0.193117672E+02  0.127654967E+00  0.567017428E+00
     4
 # iter = 45000  time[fs]=45.00000
   C -0.363865533E+01 -0.147766508E+00  0.143756912E+00
   C  0.370653342E+01 -0.901353085E-01 -0.227553038E-01
   H -0.199203877E+02  0.130406647E+01 -0.168604800E+01
   H  0.196944062E+02  0.130583073E+00  0.579018811E+00
     4
 # iter = 45500  time[fs]=45.50000
   C -0.371793552E+01 -0.150926825E+00  0.147154596E+00
   C  0.378588216E+01 -0.914187443E-01 -0.234366848E-01
   H -0.203083013E+02  0.132944751E+01 -0.171916075E+01
   H  0.200774905E+02  0.133516215E+00  0.591035000E+00
     4
 # iter = 46000  time[fs]=46.00000
   C -0.379743198E+01 -0.154090918E+00  0.150559583E+00
   C  0.386544470E+01 -0.927013313E-01 -0.241233526E-01
   H -0.206966135E+02  0.135485901E+01 -0.175231177E+01
   H  0.204610034E+02  0.136454146E+00  0.603065402E+00
     4
 # iter = 46500  time[fs]=46.50000
   C -0.387713577E+01 -0.157258665E+00  0.153971593E+00
   C  0.394521216E+01 -0.939830978E-01 -0.248151147E-01
   H -0.210853096E+02  0.138029983E+01 -0.178549973E+01
   H  0.208449290E+02  0.139396651E+00  0.615109476E+00
     4
 # iter = 47000  time[fs]=47.00000
   C -0.395703846E+01 -0.160429947E+00  0.157390366E+00
   C  0.402517620E+01 -0.952640634E-01 -0.255117810E-01
   H -0.214743758E+02  0.140576892E+01 -0.181872331E+01
   H  0.212292523E+02  0.142343571E+00  0.627166750E+00
     4
 # iter = 47500  time[fs]=47.50000
   C -0.403713210E+01 -0.163604643E+00  0.160815660E+00
   C  0.410532896E+01 -0.965442449E-01 -0.262131688E-01
   H -0.218637990E+02  0.143126530E+01 -0.185198125E+01
   H  0.216139594E+02  0.145294768E+00  0.639236793E+00
     4
 # iter = 48000  time[fs]=48.00000
   C -0.411740918E+01 -0.166782645E+00  0.164247244E+00
   C  0.418566302E+01 -0.978236607E-01 -0.269191068E-01
   H -0.222535666E+02  0.145678804E+01 -0.188527238E+01
   H  0.219990368E+02  0.148250103E+00  0.651319184E+00
     4
 # iter = 48500  time[fs]=48.50000
   C -0.419786263E+01 -0.169963845E+00  0.167684896E+00
   C  0.426617136E+01 -0.991023305E-01 -0.276294340E-01
   H -0.226436668E+02  0.148233625E+01 -0.191859559E+01
   H  0.223844717E+02  0.151209433E+00  0.663413513E+00
     4
 # iter = 49000  time[fs]=49.00000
   C -0.427848574E+01 -0.173148145E+00  0.171128406E+00
   C  0.434684736E+01 -0.100380273E+00 -0.283439976E-01
   H -0.230340884E+02  0.150790906E+01 -0.195194980E+01
   H  0.227702521E+02  0.154172624E+00  0.675519391E+00
     4
 # iter = 49500  time[fs]=49.50000
   C -0.435927219E+01 -0.176335449E+00  0.174577574E+00
   C  0.442768475E+01 -0.101657508E+00 -0.290626519E-01
   H -0.234248207E+02  0.153350568E+01 -0.198533402E+01
   H  0.231563664E+02  0.157139548E+00  0.687636449E+00
     4
 # iter = 50000  time[fs]=50.00000
   C -0.444021597E+01 -0.179525665E+00  0.178032212E+00
   C  0.450867759E+01 -0.102934051E+00 -0.297852583E-01
   H -0.238158534E+02  0.155912533E+01 -0.201874727E+01
   H  0.235428038E+02  0.160110086E+00  0.699764337E+00
     4
 # iter = 50500  time[fs]=50.50000
   C -0.452131139E+01 -0.182718704E+00  0.181492139E+00
   C  0.458982027E+01 -0.104209921E+00 -0.305116847E-01
   H -0.242071770E+02  0.158476727E+01 -0.205218865E+01
   H  0.239295537E+02  0.163084126E+00  0.711902719E+00
     4
 # iter = 51000  time[fs]=51.00000
   C -0.460255306E+01 -0.185914482E+00  0.184957183E+00
   C  0.467110744E+01 -0.105485135E+00 -0.312418057E-01
   H -0.245987822E+02  0.161043082E+01 -0.208565727E+01
   H  0.243166063E+02  0.166061558E+00  0.724051277E+00
     4
 # iter = 51500  time[fs]=51.50000
   C -0.468393586E+01 -0.189112919E+00  0.188427181E+00
   C  0.475253403E+01 -0.106759708E+00 -0.319755014E-01
   H -0.249906601E+02  0.163611530E+01 -0.211915230E+01
   H  0.247039521E+02  0.169042277E+00  0.736209705E+00
     4
 # iter = 52000  time[fs]=52.00000
   C -0.476545492E+01 -0.192313937E+00  0.191901975E+00
   C  0.483409524E+01 -0.108033656E+00 -0.327126580E-01
   H -0.253828025E+02  0.166182008E+01 -0.215267295E+01
   H  0.250915821E+02  0.172026185E+00  0.748377709E+00
     4
 # iter = 52500  time[fs]=52.50000
   C -0.484710562E+01 -0.195517463E+00  0.195381418E+00
   C  0.491578648E+01 -0.109306996E+00 -0.334531663E-01
   H -0.257752012E+02  0.168754454E+01 -0.218621845E+01
   H  0.254794876E+02  0.175013186E+00  0.760555012E+00
     4
 # iter = 53000  time[fs]=53.00000
   C -0.492888355E+01 -0.198723425E+00  0.198865366E+00
   C  0.499760341E+01 -0.110579742E+00 -0.341969225E-01
   H -0.261678485E+02  0.171328811E+01 -0.221978807E+01
   H  0.258676604E+02  0.178003190E+00  0.772741344E+00
     4
 # iter = 53500  time[fs]=53.50000
   C -0.501078452E+01 -0.201931755E+00  0.202353684E+00
   C  0.507954188E+01 -0.111851908E+00 -0.349438272E-01
   H -0.265607372E+02  0.173905023E+01 -0.225338112E+01
   H  0.262560926E+02  0.180996109E+00  0.784936451E+00
     4
 # iter = 54000  time[fs]=54.00000
   C -0.509280454E+01 -0.205142388E+00  0.205846241E+00
   C  0.516159794E+01 -0.113123509E+00 -0.356937855E-01
   H -0.269538603E+02  0.176483037E+01 -0.228699692E+01
   H  0.266447766E+02  0.183991861E+00  0.797140087E+00
     4
 # iter = 54500  time[fs]=54.50000
   C -0.517493980E+01 -0.208355261E+00  0.209342912E+00
   C  0.524376782E+01 -0.114394559E+00 -0.364467065E-01
   H -0.273472110E+02  0.179062802E+01 -0.232063484E+01
   H  0.270337053E+02  0.186990365E+00  0.809352015E+00
     4
 # iter = 55000  time[fs]=55.00000
   C -0.525718666E+01 -0.211570313E+00  0.212843579E+00
   C  0.532604792E+01 -0.115665071E+00 -0.372025032E-01
   H -0.277407828E+02  0.181644269E+01 -0.235429427E+01
   H  0.274228716E+02  0.189991545E+00  0.821572011E+00
     4
 # iter = 55500  time[fs]=55.50000
   C -0.533954166E+01 -0.214787486E+00  0.216348127E+00
   C  0.540843483E+01 -0.116935058E+00 -0.379610924E-01
   H -0.281345697E+02  0.184227391E+01 -0.238797461E+01
   H  0.278122690E+02  0.192995327E+00  0.833799857E+00
     4
 # iter = 56000  time[fs]=56.00000
   C -0.542200148E+01 -0.218006725E+00  0.219856447E+00
   C  0.549092525E+01 -0.118204531E+00 -0.387223943E-01
   H -0.285285656E+02  0.186812122E+01 -0.242167530E+01
   H  0.282018911E+02  0.196001642E+00  0.846035345E+00
     4
 # iter = 56500  time[fs]=56.50000
   C -0.550456294E+01 -0.221227975E+00  0.223368434E+00
   C  0.557351606E+01 -0.119473505E+00 -0.394863323E-01
   H -0.289227650E+02  0.189398421E+01 -0.245539580E+01
   H  0.285917318E+02  0.199010421E+00  0.858278275E+00
     4
 # iter = 57000  time[fs]=57.00000
   C -0.558722303E+01 -0.224451186E+00  0.226883987E+00
   C  0.565620426E+01 -0.120741989E+00 -0.402528332E-01
   H -0.293171623E+02  0.191986245E+01 -0.248913558E+01
   H  0.289817852E+02  0.202021599E+00  0.870528454E+00
     4
 # iter = 57500  time[fs]=57.50000
   C -0.566997884E+01 -0.227676306E+00  0.230403008E+00
   C  0.573898697E+01 -0.122009996E+00 -0.410218264E-01
   H -0.297117524E+02  0.194575554E+01 -0.252289416E+01
   H  0.293720457E+02  0.205035114E+00  0.882785697E+00
     4
 # iter = 58000  time[fs]=58.00000
   C -0.575282758E+01 -0.230903288E+00  0.233925406E+00
   C  0.582186146E+01 -0.123277537E+00 -0.417932444E-01
   H -0.301065301E+02  0.197166310E+01 -0.255667103E+01
   H  0.297625078E+02  0.208050907E+00  0.895049826E+00
     4
 # iter = 58500  time[fs]=58.50000
   C -0.583576660E+01 -0.234132086E+00  0.237451091E+00
   C  0.590482510E+01 -0.124544622E+00 -0.425670221E-01
   H -0.305014906E+02  0.199758477E+01 -0.259046575E+01
   H  0.301531664E+02  0.211068918E+00  0.907320669E+00
     4
 # iter = 59000  time[fs]=59.00000
   C -0.591879334E+01 -0.237362655E+00  0.240979977E+00
   C  0.598787534E+01 -0.125811262E+00 -0.433430971E-01
   H -0.308966293E+02  0.202352019E+01 -0.262427786E+01
   H  0.305440165E+02  0.214089092E+00  0.919598061E+00
     4
 # iter = 59500  time[fs]=59.50000
   C -0.600190535E+01 -0.240594952E+00  0.244511982E+00
   C  0.607100979E+01 -0.127077467E+00 -0.441214093E-01
   H -0.312919417E+02  0.204946900E+01 -0.265810693E+01
   H  0.309350531E+02  0.217111376E+00  0.931881842E+00
     4
 # iter = 60000  time[fs]=60.00000
   C -0.608510029E+01 -0.243828936E+00  0.248047025E+00
   C  0.615422611E+01 -0.128343246E+00 -0.449019011E-01
   H -0.316874235E+02  0.207543090E+01 -0.269195255E+01
   H  0.313262717E+02  0.220135718E+00  0.944171860E+00
     4
 # iter = 60500  time[fs]=60.50000
   C -0.616837590E+01 -0.247064566E+00  0.251585031E+00
   C  0.623752208E+01 -0.129608609E+00 -0.456845166E-01
   H -0.320830705E+02  0.210140555E+01 -0.272581432E+01
   H  0.317176678E+02  0.223162068E+00  0.956467965E+00
     4
 # iter = 61000  time[fs]=61.00000
   C -0.625173001E+01 -0.250301804E+00  0.255125925E+00
   C  0.632089554E+01 -0.130873566E+00 -0.464692025E-01
   H -0.324788787E+02  0.212739266E+01 -0.275969186E+01
   H  0.321092371E+02  0.226190379E+00  0.968770015E+00
     4
 # iter = 61500  time[fs]=61.50000
   C -0.633516053E+01 -0.253540613E+00  0.258669637E+00
   C  0.640434445E+01 -0.132138125E+00 -0.472559071E-01
   H -0.328748442E+02  0.215339193E+01 -0.279358479E+01
   H  0.325009754E+02  0.229220603E+00  0.981077871E+00
     4
 # iter = 62000  time[fs]=62.00000
   C -0.641866546E+01 -0.256780956E+00  0.262216098E+00
   C  0.648786682E+01 -0.133402295E+00 -0.480445807E-01
   H -0.332709633E+02  0.217940306E+01 -0.282749276E+01
   H  0.328928788E+02  0.232252695E+00  0.993391401E+00
     4
 # iter = 62500  time[fs]=62.50000
   C -0.650224288E+01 -0.260022798E+00  0.265765242E+00
   C  0.657146074E+01 -0.134666084E+00 -0.488351754E-01
   H -0.336672324E+02  0.220542580E+01 -0.286141541E+01
   H  0.332849432E+02  0.235286614E+00  0.100571047E+01
     4
 # iter = 63000  time[fs]=63.00000
   C -0.658589093E+01 -0.263266105E+00  0.269317005E+00
   C  0.665512438E+01 -0.135929500E+00 -0.496276448E-01
   H -0.340636480E+02  0.223145986E+01 -0.289535241E+01
   H  0.336771650E+02  0.238322316E+00  0.101803497E+01
     4
 # iter = 63500  time[fs]=63.50000
   C -0.666960781E+01 -0.266510846E+00  0.272871326E+00
   C  0.673885598E+01 -0.137192552E+00 -0.504219445E-01
   H -0.344602068E+02  0.225750500E+01 -0.292930345E+01
   H  0.340695406E+02  0.241359762E+00  0.103036476E+01
     4
 # iter = 64000  time[fs]=64.00000
   C -0.675339182E+01 -0.269756987E+00  0.276428145E+00
   C  0.682265384E+01 -0.138455246E+00 -0.512180312E-01
   H -0.348569055E+02  0.228356097E+01 -0.296326820E+01
   H  0.344620665E+02  0.244398913E+00  0.104269974E+01
     4
 # iter = 64500  time[fs]=64.50000
   C -0.683724128E+01 -0.273004500E+00  0.279987405E+00
   C  0.690651631E+01 -0.139717591E+00 -0.520158634E-01
   H -0.352537409E+02  0.230962752E+01 -0.299724637E+01
   H  0.348547393E+02  0.247439730E+00  0.105503979E+01
     4
 # iter = 65000  time[fs]=65.00000
   C -0.692115461E+01 -0.276253353E+00  0.283549051E+00
   C  0.699044182E+01 -0.140979594E+00 -0.528154010E-01
   H -0.356507101E+02  0.233570443E+01 -0.303123765E+01
   H  0.352475557E+02  0.250482178E+00  0.106738479E+01
     4
 # iter = 65500  time[fs]=65.50000
   C -0.700513026E+01 -0.279503519E+00  0.287113028E+00
   C  0.707442883E+01 -0.142241262E+00 -0.536166050E-01
   H -0.360478100E+02  0.236179147E+01 -0.306524178E+01
   H  0.356405126E+02  0.253526221E+00  0.107973466E+01
     4
 # iter = 66000  time[fs]=66.00000
   C -0.708916673E+01 -0.282754970E+00  0.290679285E+00
   C  0.715847589E+01 -0.143502601E+00 -0.544194380E-01
   H -0.364450380E+02  0.238788842E+01 -0.309925847E+01
   H  0.360336070E+02  0.256571825E+00  0.109208927E+01
     4
 # iter = 66500  time[fs]=66.50000
   C -0.717326260E+01 -0.286007678E+00  0.294247771E+00
   C  0.724258157E+01 -0.144763618E+00 -0.552238635E-01
   H -0.368423911E+02  0.241399507E+01 -0.313328746E+01
   H  0.364268358E+02  0.259618956E+00  0.110444855E+01
     4
 # iter = 67000  time[fs]=67.00000
   C -0.725741646E+01 -0.289261618E+00  0.297818439E+00
   C  0.732674449E+01 -0.146024319E+00 -0.560298465E-01
   H -0.372398668E+02  0.244011122E+01 -0.316732849E+01
   H  0.368201962E+02  0.262667583E+00  0.111681238E+01
     4
 # iter = 67500  time[fs]=67.50000
   C -0.734162700E+01 -0.292516763E+00  0.301391241E+00
   C  0.741096334E+01 -0.147284712E+00 -0.568373530E-01
   H -0.376374624E+02  0.246623667E+01 -0.320138132E+01
   H  0.372136855E+02  0.265717675E+00  0.112918067E+01
     4
 # iter = 68000  time[fs]=68.00000
   C -0.742589290E+01 -0.295773091E+00  0.304966131E+00
   C  0.749523683E+01 -0.148544802E+00 -0.576463501E-01
   H -0.380351755E+02  0.249237123E+01 -0.323544569E+01
   H  0.376073009E+02  0.268769201E+00  0.114155334E+01
     4
 # iter = 68500  time[fs]=68.50000
   C -0.751021291E+01 -0.299030576E+00  0.308543066E+00
   C  0.757956372E+01 -0.149804594E+00 -0.584568058E-01
   H -0.384330037E+02  0.251851471E+01 -0.326952139E+01
   H  0.380010399E+02  0.271822132E+00  0.115393030E+01
     4
 # iter = 69000  time[fs]=69.00000
   C -0.759458582E+01 -0.302289196E+00  0.312122003E+00
   C  0.766394283E+01 -0.151064096E+00 -0.592686894E-01
   H -0.388309445E+02  0.254466694E+01 -0.330360817E+01
   H  0.383948999E+02  0.274876440E+00  0.116631146E+01
     4
 # iter = 69500  time[fs]=69.50000
   C -0.767901047E+01 -0.305548928E+00  0.315702899E+00
   C  0.774837298E+01 -0.152323311E+00 -0.600819708E-01
   H -0.392289958E+02  0.257082773E+01 -0.333770582E+01
   H  0.387888784E+02  0.277932098E+00  0.117869673E+01
     4
 # iter = 70000  time[fs]=70.00000
   C -0.776348571E+01 -0.308809750E+00  0.319285716E+00
   C  0.783285307E+01 -0.153582246E+00 -0.608966210E-01
   H -0.396271553E+02  0.259699693E+01 -0.337181412E+01
   H  0.391829732E+02  0.280989078E+00  0.119108605E+01
     4
 # iter = 70500  time[fs]=70.50000
   C -0.784801045E+01 -0.312071642E+00  0.322870414E+00
   C  0.791738200E+01 -0.154840907E+00 -0.617126120E-01
   H -0.400254208E+02  0.262317435E+01 -0.340593287E+01
   H  0.395771818E+02  0.284047354E+00  0.120347933E+01
     4
 # iter = 71000  time[fs]=71.00000
   C -0.793258363E+01 -0.315334582E+00  0.326456956E+00
   C  0.800195873E+01 -0.156099297E+00 -0.625299165E-01
   H -0.404237903E+02  0.264935985E+01 -0.344006186E+01
   H  0.399715021E+02  0.287106903E+00  0.121587649E+01
     4
 # iter = 71500  time[fs]=71.50000
   C -0.801720421E+01 -0.318598551E+00  0.330045304E+00
   C  0.808658224E+01 -0.157357423E+00 -0.633485079E-01
   H -0.408222617E+02  0.267555327E+01 -0.347420091E+01
   H  0.403659318E+02  0.290167698E+00  0.122827747E+01
     4
 # iter = 72000  time[fs]=72.00000
   C -0.810187119E+01 -0.321863529E+00  0.333635423E+00
   C  0.817125154E+01 -0.158615289E+00 -0.641683606E-01
   H -0.412208332E+02  0.270175446E+01 -0.350834981E+01
   H  0.407604689E+02  0.293229717E+00  0.124068219E+01
     4
 # iter = 72500  time[fs]=72.50000
   C -0.818658362E+01 -0.325129497E+00  0.337227279E+00
   C  0.825596567E+01 -0.159872900E+00 -0.649894497E-01
   H -0.416195027E+02  0.272796327E+01 -0.354250838E+01
   H  0.411551113E+02  0.296292935E+00  0.125309058E+01
     4
 # iter = 73000  time[fs]=73.00000
   C -0.827134054E+01 -0.328396437E+00  0.340820837E+00
   C  0.834072372E+01 -0.161130260E+00 -0.658117509E-01
   H -0.420182685E+02  0.275417956E+01 -0.357667645E+01
   H  0.415498571E+02  0.299357332E+00  0.126550257E+01
     4
 # iter = 73500  time[fs]=73.50000
   C -0.835614106E+01 -0.331664330E+00  0.344416066E+00
   C  0.842552477E+01 -0.162387375E+00 -0.666352407E-01
   H -0.424171286E+02  0.278040319E+01 -0.361085383E+01
   H  0.419447042E+02  0.302422885E+00  0.127791810E+01
     4
 # iter = 74000  time[fs]=74.00000
   C -0.844098428E+01 -0.334933161E+00  0.348012933E+00
   C  0.851036797E+01 -0.163644248E+00 -0.674598964E-01
   H -0.428160815E+02  0.280663402E+01 -0.364504037E+01
   H  0.423396508E+02  0.305489572E+00  0.129033711E+01
     4
 # iter = 74500  time[fs]=74.50000
   C -0.852586936E+01 -0.338202911E+00  0.351611408E+00
   C  0.859525246E+01 -0.164900883E+00 -0.682856955E-01
   H -0.432151253E+02  0.283287193E+01 -0.367923588E+01
   H  0.427346950E+02  0.308557374E+00  0.130275953E+01
     4
 # iter = 75000  time[fs]=75.00000
   C -0.861079545E+01 -0.341473564E+00  0.355211461E+00
   C  0.868017742E+01 -0.166157286E+00 -0.691126167E-01
   H -0.436142584E+02  0.285911678E+01 -0.371344021E+01
   H  0.431298351E+02  0.311626269E+00  0.131518530E+01
     4
 # iter = 75500  time[fs]=75.50000
   C -0.869576176E+01 -0.344745104E+00  0.358813062E+00
   C  0.876514206E+01 -0.167413460E+00 -0.699406389E-01
   H -0.440134792E+02  0.288536846E+01 -0.374765321E+01
   H  0.435250694E+02  0.314696239E+00  0.132761436E+01
     4
 # iter = 76000  time[fs]=76.00000
   C -0.878076750E+01 -0.348017516E+00  0.362416184E+00
   C  0.885014559E+01 -0.168669409E+00 -0.707697416E-01
   H -0.444127861E+02  0.291162684E+01 -0.378187471E+01
   H  0.439203961E+02  0.317767264E+00  0.134004665E+01
     4
 # iter = 76500  time[fs]=76.50000
   C -0.886581190E+01 -0.351290783E+00  0.366020798E+00
   C  0.893518728E+01 -0.169925136E+00 -0.715999051E-01
   H -0.448121776E+02  0.293789180E+01 -0.381610458E+01
   H  0.443158136E+02  0.320839326E+00  0.135248213E+01
     4
 # iter = 77000  time[fs]=77.00000
   C -0.895089422E+01 -0.354564892E+00  0.369626877E+00
   C  0.902026638E+01 -0.171180647E+00 -0.724311099E-01
   H -0.452116523E+02  0.296416323E+01 -0.385034266E+01
   H  0.447113203E+02  0.323912407E+00  0.136492073E+01
     4
 # iter = 77500  time[fs]=77.50000
   C -0.903601375E+01 -0.357839828E+00  0.373234397E+00
   C  0.910538219E+01 -0.172435943E+00 -0.732633374E-01
   H -0.456112085E+02  0.299044102E+01 -0.388458882E+01
   H  0.451069147E+02  0.326986489E+00  0.137736240E+01
     4
 # iter = 78000  time[fs]=78.00000
   C -0.912116979E+01 -0.361115577E+00  0.376843330E+00
   C  0.919053401E+01 -0.173691030E+00 -0.740965692E-01
   H -0.460108451E+02  0.301672506E+01 -0.391884292E+01
   H  0.455025952E+02  0.330061555E+00  0.138980709E+01
     4
 # iter = 78500  time[fs]=78.50000
   C -0.920636165E+01 -0.364392124E+00  0.380453653E+00
   C  0.927572118E+01 -0.174945910E+00 -0.749307874E-01
   H -0.464105604E+02  0.304301524E+01 -0.395310482E+01
   H  0.458983603E+02  0.333137588E+00  0.140225474E+01
     4
 # iter = 79000  time[fs]=79.00000
   C -0.929158868E+01 -0.367669457E+00  0.384065341E+00
   C  0.936094303E+01 -0.176200587E+00 -0.757659747E-01
   H -0.468103533E+02  0.306931146E+01 -0.398737439E+01
   H  0.462942087E+02  0.336214572E+00  0.141470532E+01
     4
 # iter = 79500  time[fs]=79.50000
   C -0.937685022E+01 -0.370947563E+00  0.387678371E+00
   C  0.944619894E+01 -0.177455065E+00 -0.766021143E-01
   H -0.472102224E+02  0.309561362E+01 -0.402165151E+01
   H  0.466901388E+02  0.339292491E+00  0.142715877E+01
     4
 # iter = 80000  time[fs]=80.00000
   C -0.946214566E+01 -0.374226429E+00  0.391292719E+00
   C  0.953148829E+01 -0.178709346E+00 -0.774391896E-01
   H -0.476101664E+02  0.312192162E+01 -0.405593604E+01
   H  0.470861494E+02  0.342371330E+00  0.143961505E+01
