     4
 # iter = 25000  time[fs]=25.00000
   C -0.984648838E+00  0.107045363E-01 -0.331329832E-01
   C  0.101321915E+01  0.350543264E-01 -0.629691538E-01
   H -0.525741120E+01 -0.358752048E+00  0.506948553E+00
   H  0.534802188E+01 -0.336073410E+00 -0.400070611E+00
     4
 # iter = 25500  time[fs]=25.50000
   C -0.103179806E+01  0.109796711E-01 -0.365199585E-01
   C  0.105545775E+01  0.352408035E-01 -0.660868324E-01
   H -0.559758069E+01 -0.389196656E+00  0.531392584E+00
   H  0.566031130E+01 -0.366504515E+00 -0.433154864E+00
     4
 # iter = 26000  time[fs]=26.00000
   C -0.108410979E+01  0.104243626E-01 -0.406510683E-01
   C  0.110090052E+01  0.343300931E-01 -0.704271681E-01
   H -0.594580620E+01 -0.425234953E+00  0.550726748E+00
   H  0.596984217E+01 -0.402524955E+00 -0.471842346E+00
     4
 # iter = 26500  time[fs]=26.50000
   C -0.113884047E+01  0.114094479E-01 -0.431670419E-01
   C  0.115263515E+01  0.357817285E-01 -0.725144440E-01
   H -0.628569694E+01 -0.450759429E+00  0.581001852E+00
   H  0.629243484E+01 -0.428020615E+00 -0.500017642E+00
     4
 # iter = 27000  time[fs]=27.00000
   C -0.119551325E+01  0.140556926E-01 -0.439575905E-01
   C  0.121047268E+01  0.397606543E-01 -0.721695220E-01
   H -0.661620812E+01 -0.464956307E+00  0.622985918E+00
   H  0.662864443E+01 -0.442179110E+00 -0.516867217E+00
     4
 # iter = 27500  time[fs]=27.50000
   C -0.125555164E+01  0.166056239E-01 -0.447894986E-01
   C  0.127149700E+01  0.436816332E-01 -0.719653050E-01
   H -0.694910284E+01 -0.479778665E+00  0.664688592E+00
   H  0.696628283E+01 -0.456961749E+00 -0.534351370E+00
     4
 # iter = 28000  time[fs]=28.00000
   C -0.131989312E+01  0.178162913E-01 -0.469137325E-01
   C  0.133357510E+01  0.457145498E-01 -0.737213043E-01
   H -0.729267248E+01 -0.503681568E+00  0.697622841E+00
   H  0.729669424E+01 -0.480829455E+00 -0.560930120E+00
     4
 # iter = 28500  time[fs]=28.50000
   C -0.138775693E+01  0.181934162E-01 -0.498313336E-01
   C  0.139716679E+01  0.465926485E-01 -0.766952131E-01
   H -0.764333789E+01 -0.533231550E+00  0.725193705E+00
   H  0.762314862E+01 -0.510347368E+00 -0.593167778E+00
     4
 # iter = 29000  time[fs]=29.00000
   C -0.145765912E+01  0.189739048E-01 -0.523111099E-01
   C  0.146383171E+01  0.481215248E-01 -0.790736906E-01
   H -0.799256535E+01 -0.560023782E+00  0.755780896E+00
   H  0.795391343E+01 -0.537106171E+00 -0.622654279E+00
     4
 # iter = 29500  time[fs]=29.50000
   C -0.152894875E+01  0.205861522E-01 -0.539295494E-01
   C  0.153396996E+01  0.509226691E-01 -0.802286092E-01
   H -0.833733543E+01 -0.581150600E+00  0.792270366E+00
   H  0.829177194E+01 -0.558196951E+00 -0.646480048E+00
     4
 # iter = 30000  time[fs]=30.00000
   C -0.160202154E+01  0.224340833E-01 -0.552869135E-01
   C  0.160650332E+01  0.541168764E-01 -0.810334771E-01
   H -0.868160926E+01 -0.600669840E+00  0.830585566E+00
   H  0.863255072E+01 -0.577680432E+00 -0.668705223E+00
     4
 # iter = 30500  time[fs]=30.50000
   C -0.167736341E+01  0.238523510E-01 -0.570521137E-01
   C  0.168027363E+01  0.567241573E-01 -0.824633924E-01
   H -0.902982973E+01 -0.623109500E+00  0.866182053E+00
   H  0.897161833E+01 -0.600087667E+00 -0.693860334E+00
     4
 # iter = 31000  time[fs]=31.00000
   C -0.175482234E+01  0.248329471E-01 -0.592361723E-01
   C  0.175510607E+01  0.587286562E-01 -0.845300060E-01
   H -0.938197761E+01 -0.648526718E+00  0.898987932E+00
   H  0.930882864E+01 -0.625475998E+00 -0.722002254E+00
     4
 # iter = 31500  time[fs]=31.50000
   C -0.183381948E+01  0.258119682E-01 -0.614055446E-01
   C  0.183149429E+01  0.607659856E-01 -0.865940805E-01
   H -0.973502067E+01 -0.673958065E+00  0.931953328E+00
   H  0.964706798E+01 -0.650880290E+00 -0.750165421E+00
     4
 # iter = 32000  time[fs]=32.00000
   C -0.191395642E+01  0.270600904E-01 -0.632917303E-01
   C  0.190970488E+01  0.632296697E-01 -0.882589544E-01
   H -0.100870586E+02 -0.697564865E+00  0.966904996E+00
   H  0.998810524E+01 -0.674460841E+00 -0.776509750E+00
     4
 # iter = 32500  time[fs]=32.50000
   C -0.199523193E+01  0.284639832E-01 -0.650099262E-01
   C  0.198945498E+01  0.659506743E-01 -0.896909360E-01
   H -0.104388088E+02 -0.720119756E+00  0.100305964E+01
   H  0.103311030E+02 -0.696990879E+00 -0.801808123E+00
     4
 # iter = 33000  time[fs]=33.00000
   C -0.207777799E+01  0.297888477E-01 -0.667965337E-01
   C  0.207029575E+01  0.685822432E-01 -0.912344062E-01
   H -0.107918201E+02 -0.743221121E+00  0.103880929E+01
   H  0.106744036E+02 -0.720069854E+00 -0.827659678E+00
     4
 # iter = 33500  time[fs]=33.50000
   C -0.216157056E+01  0.309664197E-01 -0.687211918E-01
   C  0.215203320E+01  0.710220637E-01 -0.929896007E-01
   H -0.111465128E+02 -0.767334348E+00  0.107367985E+01
   H  0.110174884E+02 -0.744163480E+00 -0.854529848E+00
     4
 # iter = 34000  time[fs]=34.00000
   C -0.224642547E+01  0.320978570E-01 -0.706839240E-01
   C  0.223473120E+01  0.734164511E-01 -0.948083823E-01
   H -0.115021587E+02 -0.791772288E+00  0.110835052E+01
   H  0.113609971E+02 -0.768584189E+00 -0.881730806E+00
     4
 # iter = 34500  time[fs]=34.50000
   C -0.233216902E+01  0.332820122E-01 -0.725868968E-01
   C  0.231845861E+01  0.759085482E-01 -0.965460043E-01
   H -0.118580488E+02 -0.815863321E+00  0.114348567E+01
   H  0.117055581E+02 -0.792659940E+00 -0.908590276E+00
     4
 # iter = 35000  time[fs]=35.00000
   C -0.241873474E+01  0.345177859E-01 -0.744320926E-01
   C  0.240314509E+01  0.784951436E-01 -0.982042608E-01
   H -0.122141570E+02 -0.839615516E+00  0.117907061E+01
   H  0.120511232E+02 -0.816398810E+00 -0.935116122E+00
     4
 # iter = 35500  time[fs]=35.50000
   C -0.250611714E+01  0.357494380E-01 -0.762760187E-01
   C  0.248864676E+01  0.810930835E-01 -0.998650492E-01
   H -0.125708314E+02 -0.863408447E+00  0.121471969E+01
   H  0.123972757E+02 -0.840180608E+00 -0.961687955E+00
     4
 # iter = 36000  time[fs]=36.00000
   C -0.259429090E+01  0.369467914E-01 -0.781495197E-01
   C  0.257486299E+01  0.836568406E-01 -0.101572780E+00
   H -0.129282490E+02 -0.887447687E+00  0.125022177E+01
   H  0.127437761E+02 -0.864211015E+00 -0.988511279E+00
     4
 # iter = 36500  time[fs]=36.50000
   C -0.268319187E+01  0.381235757E-01 -0.800394474E-01
   C  0.266176275E+01  0.862053894E-01 -0.103307481E+00
   H -0.132862902E+02 -0.911640055E+00  0.128566488E+01
   H  0.130906865E+02 -0.888396771E+00 -0.101549267E+01
     4
 # iter = 37000  time[fs]=37.00000
   C -0.277275032E+01  0.393035943E-01 -0.819225072E-01
   C  0.274933431E+01  0.887725840E-01 -0.105034406E+00
   H -0.136447686E+02 -0.935823780E+00  0.132120603E+01
   H  0.134381399E+02 -0.912575971E+00 -0.104247006E+01
     4
 # iter = 37500  time[fs]=37.50000
   C -0.286291828E+01  0.404929253E-01 -0.837930663E-01
   C  0.283754411E+01  0.913663888E-01 -0.106744792E+00
   H -0.140036205E+02 -0.959957589E+00  0.135688211E+01
   H  0.137861511E+02 -0.936707286E+00 -0.106940199E+01
     4
 # iter = 38000  time[fs]=38.00000
   C -0.295366603E+01  0.416829883E-01 -0.856600968E-01
   C  0.292634072E+01  0.939733629E-01 -0.108451357E+00
   H -0.143628834E+02 -0.984099862E+00  0.139263064E+01
   H  0.141346368E+02 -0.960849103E+00 -0.109634672E+01
     4
 # iter = 38500  time[fs]=38.50000
   C -0.304496587E+01  0.428664121E-01 -0.875313140E-01
   C  0.301567778E+01  0.965819171E-01 -0.110165041E+00
   H -0.147225879E+02 -0.100830070E+01  0.142839774E+01
   H  0.144835241E+02 -0.985051522E+00 -0.112335423E+01
     4
 # iter = 39000  time[fs]=39.00000
   C -0.313678512E+01  0.440436982E-01 -0.894065205E-01
   C  0.310552339E+01  0.991920734E-01 -0.111885234E+00
   H -0.150827125E+02 -0.103255663E+01  0.146418336E+01
   H  0.148327949E+02 -0.100931102E+01 -0.115042088E+01
     4
 # iter = 39500  time[fs]=39.50000
   C -0.322909023E+01  0.452188090E-01 -0.912820220E-01
   C  0.319585341E+01  0.101808990E+00 -0.113606242E+00
   H -0.154432133E+02 -0.105684059E+01  0.150001127E+01
   H  0.151824565E+02 -0.103360049E+01 -0.117751945E+01
     4
 # iter = 40000  time[fs]=40.00000
   C -0.332185199E+01  0.463937145E-01 -0.931560860E-01
   C  0.328664313E+01  0.104434960E+00 -0.115325290E+00
   H -0.158040611E+02 -0.108113904E+01  0.153589192E+01
   H  0.155325039E+02 -0.105790635E+01 -0.120463628E+01
     4
 # iter = 40500  time[fs]=40.50000
   C -0.341504594E+01  0.475677454E-01 -0.950295923E-01
   C  0.337786612E+01  0.107068452E+00 -0.117043462E+00
   H -0.161652458E+02 -0.110545639E+01  0.157181804E+01
   H  0.158829151E+02 -0.108223296E+01 -0.123177564E+01
     4
 # iter = 41000  time[fs]=41.00000
   C -0.350864995E+01  0.487398065E-01 -0.969038231E-01
   C  0.346949727E+01  0.109707360E+00 -0.118762463E+00
   H -0.165267607E+02 -0.112979991E+01  0.160777966E+01
   H  0.162336667E+02 -0.110658758E+01 -0.125894470E+01
     4
 # iter = 41500  time[fs]=41.50000
   C -0.360264267E+01  0.499097613E-01 -0.987790809E-01
   C  0.356151463E+01  0.112351018E+00 -0.120482588E+00
   H -0.168885939E+02 -0.115417036E+01  0.164377350E+01
   H  0.165847426E+02 -0.113097092E+01 -0.128614408E+01
     4
 # iter = 42000  time[fs]=42.00000
   C -0.369700367E+01  0.510781220E-01 -0.100655002E+00
   C  0.365389880E+01  0.114999750E+00 -0.122203171E+00
   H -0.172507297E+02 -0.117856406E+01  0.167980087E+01
   H  0.169361322E+02 -0.115537925E+01 -0.131337001E+01
     4
 # iter = 42500  time[fs]=42.50000
   C -0.379171405E+01  0.522452944E-01 -0.102531312E+00
   C  0.374663168E+01  0.117653757E+00 -0.123923702E+00
   H -0.176131537E+02 -0.120297805E+01  0.171586249E+01
   H  0.172878249E+02 -0.117980958E+01 -0.134061940E+01
     4
 # iter = 43000  time[fs]=43.00000
   C -0.388675655E+01  0.534113512E-01 -0.104408056E+00
   C  0.383969598E+01  0.120312779E+00 -0.125644152E+00
   H -0.179758546E+02 -0.122741162E+01  0.175195696E+01
   H  0.176398088E+02 -0.120426116E+01 -0.136789146E+01
     4
 # iter = 43500  time[fs]=43.50000
   C -0.398211521E+01  0.545762427E-01 -0.106285390E+00
   C  0.393307545E+01  0.122976403E+00 -0.127364667E+00
   H -0.183388224E+02 -0.125186491E+01  0.178808217E+01
   H  0.179920717E+02 -0.122873410E+01 -0.139518621E+01
     4
 # iter = 44000  time[fs]=44.00000
   C -0.407777509E+01  0.557399896E-01 -0.108163387E+00
   C  0.402675503E+01  0.125644345E+00 -0.129085286E+00
   H -0.187020475E+02 -0.127633755E+01  0.182423660E+01
   H  0.183446028E+02 -0.125322800E+01 -0.142250322E+01
     4
 # iter = 44500  time[fs]=44.50000
   C -0.417372215E+01  0.569026881E-01 -0.110042034E+00
   C  0.412072079E+01  0.128316454E+00 -0.130805934E+00
   H -0.190655199E+02 -0.130082869E+01  0.186041935E+01
   H  0.186973922E+02 -0.127774195E+01 -0.144984153E+01
     4
 # iter = 45000  time[fs]=45.00000
   C -0.426994327E+01  0.580644367E-01 -0.111921310E+00
   C  0.421495972E+01  0.130992599E+00 -0.132526529E+00
   H -0.194292304E+02 -0.132533743E+01  0.189662963E+01
   H  0.190504308E+02 -0.130227504E+01 -0.147720016E+01
     4
 # iter = 45500  time[fs]=45.50000
   C -0.436642620E+01  0.592253014E-01 -0.113801216E+00
   C  0.430945959E+01  0.133672624E+00 -0.134247033E+00
   H -0.197931703E+02 -0.134986311E+01  0.193286653E+01
   H  0.194037096E+02 -0.132682657E+01 -0.150457838E+01
     4
 # iter = 46000  time[fs]=46.00000
   C -0.446315946E+01  0.603853279E-01 -0.115681766E+00
   C  0.440420894E+01  0.136356358E+00 -0.135967434E+00
   H -0.201573316E+02 -0.137440521E+01  0.196912905E+01
   H  0.197572202E+02 -0.135139599E+01 -0.153197558E+01
     4
 # iter = 46500  time[fs]=46.50000
   C -0.456013229E+01  0.615445611E-01 -0.117562972E+00
   C  0.449919702E+01  0.139043644E+00 -0.137687718E+00
   H -0.205217065E+02 -0.139896321E+01  0.200541629E+01
   H  0.201109545E+02 -0.137598274E+01 -0.155939116E+01
     4
 # iter = 47000  time[fs]=47.00000
   C -0.465733458E+01  0.627030490E-01 -0.119444833E+00
   C  0.459441372E+01  0.141734344E+00 -0.139407866E+00
   H -0.208862877E+02 -0.142353658E+01  0.204172744E+01
   H  0.204649048E+02 -0.140058625E+01 -0.158682453E+01
     4
 # iter = 47500  time[fs]=47.50000
   C -0.475475680E+01  0.638608381E-01 -0.121327347E+00
   C  0.468984958E+01  0.144428331E+00 -0.141127855E+00
   H -0.212510683E+02 -0.144812479E+01  0.207806172E+01
   H  0.208190641E+02 -0.142520598E+01 -0.161427510E+01
     4
 # iter = 48000  time[fs]=48.00000
   C -0.485239001E+01  0.650179700E-01 -0.123210513E+00
   C  0.478549564E+01  0.147125482E+00 -0.142847670E+00
   H -0.216160416E+02 -0.147272736E+01  0.211441839E+01
   H  0.211734253E+02 -0.144984142E+01 -0.164174231E+01
     4
 # iter = 48500  time[fs]=48.50000
   C -0.495022577E+01  0.661744824E-01 -0.125094328E+00
   C  0.488134350E+01  0.149825681E+00 -0.144567297E+00
   H -0.219812013E+02 -0.149734383E+01  0.215079675E+01
   H  0.215279820E+02 -0.147449206E+01 -0.166922564E+01
     4
 # iter = 49000  time[fs]=49.00000
   C -0.504825611E+01  0.673304101E-01 -0.126978789E+00
   C  0.497738522E+01  0.152528816E+00 -0.146286726E+00
   H -0.223465416E+02 -0.152197378E+01  0.218719611E+01
   H  0.218827280E+02 -0.149915746E+01 -0.169672461E+01
     4
 # iter = 49500  time[fs]=49.50000
   C -0.514647353E+01  0.684857859E-01 -0.128863892E+00
   C  0.507361330E+01  0.155234783E+00 -0.148005947E+00
   H -0.227120565E+02 -0.154661678E+01  0.222361583E+01
   H  0.222376572E+02 -0.152383717E+01 -0.172423873E+01
     4
 # iter = 50000  time[fs]=50.00000
   C -0.524487093E+01  0.696406405E-01 -0.130749633E+00
   C  0.517002066E+01  0.157943483E+00 -0.149724951E+00
   H -0.230777408E+02 -0.157127243E+01  0.226005529E+01
   H  0.225927641E+02 -0.154853077E+01 -0.175176756E+01
     4
 # iter = 50500  time[fs]=50.50000
   C -0.534344158E+01  0.707950028E-01 -0.132636005E+00
   C  0.526660060E+01  0.160654823E+00 -0.151443730E+00
   H -0.234435892E+02 -0.159594037E+01  0.229651392E+01
   H  0.229480432E+02 -0.157323785E+01 -0.177931067E+01
     4
 # iter = 51000  time[fs]=51.00000
   C -0.544217912E+01  0.719488993E-01 -0.134523003E+00
   C  0.536334678E+01  0.163368712E+00 -0.153162278E+00
   H -0.238095968E+02 -0.162062021E+01  0.233299114E+01
   H  0.233034894E+02 -0.159795803E+01 -0.180686763E+01
     4
 # iter = 51500  time[fs]=51.50000
   C -0.554107754E+01  0.731023551E-01 -0.136410620E+00
   C  0.546025318E+01  0.166085066E+00 -0.154880590E+00
   H -0.241757588E+02 -0.164531163E+01  0.236948641E+01
   H  0.236590977E+02 -0.162269093E+01 -0.183443805E+01
     4
 # iter = 52000  time[fs]=52.00000
   C -0.564013110E+01  0.742553935E-01 -0.138298849E+00
   C  0.555731411E+01  0.168803805E+00 -0.156598660E+00
   H -0.245420707E+02 -0.167001429E+01  0.240599923E+01
   H  0.240148635E+02 -0.164743619E+01 -0.186202156E+01
     4
 # iter = 52500  time[fs]=52.50000
   C -0.573933439E+01  0.754080364E-01 -0.140187684E+00
   C  0.565452416E+01  0.171524852E+00 -0.158316487E+00
   H -0.249085281E+02 -0.169472787E+01  0.244252910E+01
   H  0.243707821E+02 -0.167219349E+01 -0.188961780E+01
     4
 # iter = 53000  time[fs]=53.00000
   C -0.583868225E+01  0.765603043E-01 -0.142077117E+00
   C  0.575187818E+01  0.174248134E+00 -0.160034065E+00
   H -0.252751270E+02 -0.171945206E+01  0.247907555E+01
   H  0.247268493E+02 -0.169696248E+01 -0.191722640E+01
     4
 # iter = 53500  time[fs]=53.50000
   C -0.593816978E+01  0.777122165E-01 -0.143967141E+00
   C  0.584937129E+01  0.176973581E+00 -0.161751393E+00
   H -0.256418633E+02 -0.174418659E+01  0.251563812E+01
   H  0.250830609E+02 -0.172174286E+01 -0.194484704E+01
     4
 # iter = 54000  time[fs]=54.00000
   C -0.603779232E+01  0.788637911E-01 -0.145857748E+00
   C  0.594699883E+01  0.179701126E+00 -0.163468470E+00
   H -0.260087333E+02 -0.176893115E+01  0.255221639E+01
   H  0.254394130E+02 -0.174653433E+01 -0.197247941E+01
     4
 # iter = 54500  time[fs]=54.50000
   C -0.613754543E+01  0.800150451E-01 -0.147748930E+00
   C  0.604475640E+01  0.182430707E+00 -0.165185293E+00
   H -0.263757332E+02 -0.179368550E+01  0.258880992E+01
   H  0.257959016E+02 -0.177133660E+01 -0.200012318E+01
     4
 # iter = 55000  time[fs]=55.00000
   C -0.623742487E+01  0.811659943E-01 -0.149640679E+00
   C  0.614263976E+01  0.185162262E+00 -0.166901861E+00
   H -0.267428597E+02 -0.181844936E+01  0.262541834E+01
   H  0.261525233E+02 -0.179614938E+01 -0.202777806E+01
     4
 # iter = 55500  time[fs]=55.50000
   C -0.633742663E+01  0.823166540E-01 -0.151532989E+00
   C  0.624064490E+01  0.187895734E+00 -0.168618175E+00
   H -0.271101092E+02 -0.184322250E+01  0.266204123E+01
   H  0.265092744E+02 -0.182097242E+01 -0.205544378E+01
     4
 # iter = 56000  time[fs]=56.00000
   C -0.643754684E+01  0.834670382E-01 -0.153425850E+00
   C  0.633876798E+01  0.190631067E+00 -0.170334234E+00
   H -0.274774786E+02 -0.186800467E+01  0.269867825E+01
   H  0.268661515E+02 -0.184580545E+01 -0.208312005E+01
     4
 # iter = 56500  time[fs]=56.50000
   C -0.653778183E+01  0.846171602E-01 -0.155319255E+00
   C  0.643700533E+01  0.193368208E+00 -0.172050038E+00
   H -0.278449647E+02 -0.189279564E+01  0.273532903E+01
   H  0.272231515E+02 -0.187064822E+01 -0.211080661E+01
     4
 # iter = 57000  time[fs]=57.00000
   C -0.663812809E+01  0.857670328E-01 -0.157213196E+00
   C  0.653535347E+01  0.196107106E+00 -0.173765588E+00
   H -0.282125647E+02 -0.191759520E+01  0.277199323E+01
   H  0.275802712E+02 -0.189550051E+01 -0.213850321E+01
     4
 # iter = 57500  time[fs]=57.50000
   C -0.673858228E+01  0.869166676E-01 -0.159107666E+00
   C  0.663380905E+01  0.198847713E+00 -0.175480884E+00
   H -0.285802755E+02 -0.194240314E+01  0.280867051E+01
   H  0.279375076E+02 -0.192036207E+01 -0.216620960E+01
     4
 # iter = 58000  time[fs]=58.00000
   C -0.683914117E+01  0.880660761E-01 -0.161002656E+00
   C  0.673236886E+01  0.201589982E+00 -0.177195927E+00
   H -0.289480944E+02 -0.196721924E+01  0.284536056E+01
   H  0.282948577E+02 -0.194523269E+01 -0.219392555E+01
     4
 # iter = 58500  time[fs]=58.50000
   C -0.693980170E+01  0.892152687E-01 -0.162898160E+00
   C  0.683102984E+01  0.204333867E+00 -0.178910718E+00
   H -0.293160188E+02 -0.199204331E+01  0.288206308E+01
   H  0.286523189E+02 -0.197011215E+01 -0.222165083E+01
     4
 # iter = 59000  time[fs]=59.00000
   C -0.704056093E+01  0.903642555E-01 -0.164794168E+00
   C  0.692978907E+01  0.207079326E+00 -0.180625258E+00
   H -0.296840461E+02 -0.201687516E+01  0.291877777E+01
   H  0.290098883E+02 -0.199500025E+01 -0.224938522E+01
     4
 # iter = 59500  time[fs]=59.50000
   C -0.714141603E+01  0.915130460E-01 -0.166690674E+00
   C  0.702864373E+01  0.209826318E+00 -0.182339550E+00
   H -0.300521738E+02 -0.204171461E+01  0.295550433E+01
   H  0.293675635E+02 -0.201989678E+01 -0.227712851E+01
     4
 # iter = 60000  time[fs]=60.00000
   C -0.724236430E+01  0.926616492E-01 -0.168587670E+00
   C  0.712759114E+01  0.212574803E+00 -0.184053594E+00
   H -0.304203996E+02 -0.206656148E+01  0.299224251E+01
   H  0.297253419E+02 -0.204480156E+01 -0.230488049E+01
     4
 # iter = 60500  time[fs]=60.50000
   C -0.734340315E+01  0.938100735E-01 -0.170485149E+00
   C  0.722662870E+01  0.215324742E+00 -0.185767393E+00
   H -0.307887210E+02 -0.209141560E+01  0.302899202E+01
   H  0.300832210E+02 -0.206971440E+01 -0.233264097E+01
     4
 # iter = 61000  time[fs]=61.00000
   C -0.744453010E+01  0.949583270E-01 -0.172383103E+00
   C  0.732575393E+01  0.218076099E+00 -0.187480947E+00
   H -0.311571359E+02 -0.211627680E+01  0.306575262E+01
   H  0.304411987E+02 -0.209463512E+01 -0.236040976E+01
     4
 # iter = 61500  time[fs]=61.50000
   C -0.754574275E+01  0.961064175E-01 -0.174281526E+00
   C  0.742496447E+01  0.220828839E+00 -0.189194259E+00
   H -0.315256422E+02 -0.214114493E+01  0.310252406E+01
   H  0.307992725E+02 -0.211956354E+01 -0.238818667E+01
     4
 # iter = 62000  time[fs]=62.00000
   C -0.764703880E+01  0.972543520E-01 -0.176180409E+00
   C  0.752425801E+01  0.223582926E+00 -0.190907331E+00
   H -0.318942377E+02 -0.216601984E+01  0.313930608E+01
   H  0.311574404E+02 -0.214449950E+01 -0.241597153E+01
     4
 # iter = 62500  time[fs]=62.50000
   C -0.774841606E+01  0.984021376E-01 -0.178079747E+00
   C  0.762363237E+01  0.226338330E+00 -0.192620165E+00
   H -0.322629205E+02 -0.219090136E+01  0.317609848E+01
   H  0.315157002E+02 -0.216944283E+01 -0.244376416E+01
     4
 # iter = 63000  time[fs]=63.00000
   C -0.784987239E+01  0.995497807E-01 -0.179979532E+00
   C  0.772308542E+01  0.229095017E+00 -0.194332763E+00
   H -0.326316886E+02 -0.221578937E+01  0.321290101E+01
   H  0.318740500E+02 -0.219439338E+01 -0.247156439E+01
     4
 # iter = 63500  time[fs]=63.50000
   C -0.795140577E+01  0.100697288E+00 -0.181879758E+00
   C  0.782261513E+01  0.231852957E+00 -0.196045126E+00
   H -0.330005401E+02 -0.224068371E+01  0.324971346E+01
   H  0.322324876E+02 -0.221935100E+01 -0.249937206E+01
     4
 # iter = 64000  time[fs]=64.00000
   C -0.805301421E+01  0.101844664E+00 -0.183780417E+00
   C  0.792221954E+01  0.234612121E+00 -0.197757258E+00
   H -0.333694733E+02 -0.226558426E+01  0.328653562E+01
   H  0.325910113E+02 -0.224431553E+01 -0.252718702E+01
     4
 # iter = 64500  time[fs]=64.50000
   C -0.815469583E+01  0.102991916E+00 -0.185681504E+00
   C  0.802189678E+01  0.237372480E+00 -0.199469161E+00
   H -0.337384863E+02 -0.229049088E+01  0.332336730E+01
   H  0.329496192E+02 -0.226928684E+01 -0.255500912E+01
     4
 # iter = 65000  time[fs]=65.00000
   C -0.825644881E+01  0.104139049E+00 -0.187583011E+00
   C  0.812164502E+01  0.240134008E+00 -0.201180836E+00
   H -0.341075775E+02 -0.231540345E+01  0.336020828E+01
   H  0.333083095E+02 -0.229426479E+01 -0.258283821E+01
     4
 # iter = 65500  time[fs]=65.50000
   C -0.835827139E+01  0.105286067E+00 -0.189484933E+00
   C  0.822146251E+01  0.242896676E+00 -0.202892287E+00
   H -0.344767453E+02 -0.234032184E+01  0.339705838E+01
   H  0.336670805E+02 -0.231924924E+01 -0.261067414E+01
     4
 # iter = 66000  time[fs]=66.00000
   C -0.846016187E+01  0.106432976E+00 -0.191387262E+00
   C  0.832134756E+01  0.245660461E+00 -0.204603514E+00
   H -0.348459879E+02 -0.236524594E+01  0.343391741E+01
   H  0.340259305E+02 -0.234424005E+01 -0.263851677E+01
     4
 # iter = 66500  time[fs]=66.50000
   C -0.856211862E+01  0.107579780E+00 -0.193289994E+00
   C  0.842129856E+01  0.248425337E+00 -0.206314521E+00
   H -0.352153040E+02 -0.239017562E+01  0.347078519E+01
   H  0.343848578E+02 -0.236923712E+01 -0.266636598E+01
     4
 # iter = 67000  time[fs]=67.00000
   C -0.866414006E+01  0.108726483E+00 -0.195193122E+00
   C  0.852131391E+01  0.251191279E+00 -0.208025310E+00
   H -0.355846919E+02 -0.241511079E+01  0.350766156E+01
   H  0.347438610E+02 -0.239424030E+01 -0.269422164E+01
     4
 # iter = 67500  time[fs]=67.50000
   C -0.876622468E+01  0.109873091E+00 -0.197096640E+00
   C  0.862139212E+01  0.253958266E+00 -0.209735884E+00
   H -0.359541502E+02 -0.244005133E+01  0.354454633E+01
   H  0.351029385E+02 -0.241924949E+01 -0.272208361E+01
     4
 # iter = 68000  time[fs]=68.00000
   C -0.886837099E+01  0.111019606E+00 -0.199000542E+00
   C  0.872153170E+01  0.256726274E+00 -0.211446244E+00
   H -0.363236776E+02 -0.246499713E+01  0.358143935E+01
   H  0.354620887E+02 -0.244426456E+01 -0.274995178E+01
     4
 # iter = 68500  time[fs]=68.50000
   C -0.897057758E+01  0.112166033E+00 -0.200904823E+00
   C  0.882173126E+01  0.259495282E+00 -0.213156392E+00
   H -0.366932726E+02 -0.248994809E+01  0.361834045E+01
   H  0.358213104E+02 -0.246928541E+01 -0.277782602E+01
     4
 # iter = 69000  time[fs]=69.00000
   C -0.907284308E+01  0.113312375E+00 -0.202809477E+00
   C  0.892198942E+01  0.262265268E+00 -0.214866332E+00
   H -0.370629339E+02 -0.251490412E+01  0.365524949E+01
   H  0.361806020E+02 -0.249431193E+01 -0.280570622E+01
     4
 # iter = 69500  time[fs]=69.50000
   C -0.917516615E+01  0.114458636E+00 -0.204714499E+00
   C  0.902230486E+01  0.265036213E+00 -0.216576065E+00
   H -0.374326603E+02 -0.253986511E+01  0.369216630E+01
   H  0.365399622E+02 -0.251934400E+01 -0.283359227E+01
     4
 # iter = 70000  time[fs]=70.00000
   C -0.927754552E+01  0.115604819E+00 -0.206619882E+00
   C  0.912267630E+01  0.267808097E+00 -0.218285594E+00
   H -0.378024504E+02 -0.256483097E+01  0.372909075E+01
   H  0.368993897E+02 -0.254438153E+01 -0.286148406E+01
     4
 # iter = 70500  time[fs]=70.50000
   C -0.937997994E+01  0.116750928E+00 -0.208525623E+00
   C  0.922310250E+01  0.270580900E+00 -0.219994921E+00
   H -0.381723032E+02 -0.258980162E+01  0.376602269E+01
   H  0.372588832E+02 -0.256942442E+01 -0.288938148E+01
     4
 # iter = 71000  time[fs]=71.00000
   C -0.948246821E+01  0.117896964E+00 -0.210431715E+00
   C  0.932358227E+01  0.273354604E+00 -0.221704049E+00
   H -0.385422172E+02 -0.261477696E+01  0.380296198E+01
   H  0.376184416E+02 -0.259447256E+01 -0.291728443E+01
     4
 # iter = 71500  time[fs]=71.50000
   C -0.958500916E+01  0.119042932E+00 -0.212338154E+00
   C  0.942411444E+01  0.276129191E+00 -0.223412979E+00
   H -0.389121916E+02 -0.263975690E+01  0.383990848E+01
   H  0.379780635E+02 -0.261952587E+01 -0.294519281E+01
     4
 # iter = 72000  time[fs]=72.00000
   C -0.968760168E+01  0.120188834E+00 -0.214244934E+00
   C  0.952469790E+01  0.278904644E+00 -0.225121713E+00
   H -0.392822250E+02 -0.266474137E+01  0.387686208E+01
   H  0.383377478E+02 -0.264458425E+01 -0.297310652E+01
     4
 # iter = 72500  time[fs]=72.50000
   C -0.979024465E+01  0.121334673E+00 -0.216152051E+00
   C  0.962533155E+01  0.281680945E+00 -0.226830255E+00
   H -0.396523165E+02 -0.268973028E+01  0.391382264E+01
   H  0.386974933E+02 -0.266964761E+01 -0.300102547E+01
     4
 # iter = 73000  time[fs]=73.00000
   C -0.989293704E+01  0.122480451E+00 -0.218059500E+00
   C  0.972601435E+01  0.284458078E+00 -0.228538605E+00
   H -0.400224649E+02 -0.271472356E+01  0.395079003E+01
   H  0.390572990E+02 -0.269471587E+01 -0.302894956E+01
     4
 # iter = 73500  time[fs]=73.50000
   C -0.999567781E+01  0.123626171E+00 -0.219967276E+00
   C  0.982674527E+01  0.287236027E+00 -0.230246768E+00
   H -0.403926693E+02 -0.273972111E+01  0.398776414E+01
   H  0.394171638E+02 -0.271978893E+01 -0.305687870E+01
     4
 # iter = 74000  time[fs]=74.00000
   C -0.100984660E+02  0.124771834E+00 -0.221875375E+00
   C  0.992752332E+01  0.290014776E+00 -0.231954743E+00
   H -0.407629286E+02 -0.276472288E+01  0.402474484E+01
   H  0.397770865E+02 -0.274486672E+01 -0.308481281E+01
     4
 # iter = 74500  time[fs]=74.50000
   C -0.102013005E+02  0.125917445E+00 -0.223783792E+00
   C  0.100283475E+02  0.292794312E+00 -0.233662534E+00
   H -0.411332418E+02 -0.278972878E+01  0.406173203E+01
   H  0.401370663E+02 -0.276994915E+01 -0.311275180E+01
     4
 # iter = 75000  time[fs]=75.00000
   C -0.103041806E+02  0.127063003E+00 -0.225692522E+00
   C  0.101292170E+02  0.295574617E+00 -0.235370143E+00
   H -0.415036081E+02 -0.281473875E+01  0.409872559E+01
   H  0.404971020E+02 -0.279503615E+01 -0.314069559E+01
     4
 # iter = 75500  time[fs]=75.50000
   C -0.104071052E+02  0.128208512E+00 -0.227601561E+00
   C  0.102301308E+02  0.298355680E+00 -0.237077572E+00
   H -0.418740265E+02 -0.283975272E+01  0.413572542E+01
   H  0.408571928E+02 -0.282012764E+01 -0.316864409E+01
     4
 # iter = 76000  time[fs]=76.00000
   C -0.105100736E+02  0.129353974E+00 -0.229510905E+00
   C  0.103310880E+02  0.301137485E+00 -0.238784823E+00
   H -0.422444961E+02 -0.286477061E+01  0.417273140E+01
   H  0.412173376E+02 -0.284522354E+01 -0.319659722E+01
     4
 # iter = 76500  time[fs]=76.50000
   C -0.106130847E+02  0.130499389E+00 -0.231420550E+00
   C  0.104320879E+02  0.303920019E+00 -0.240491898E+00
   H -0.426150160E+02 -0.288979237E+01  0.420974344E+01
   H  0.415775356E+02 -0.287032378E+01 -0.322455492E+01
     4
 # iter = 77000  time[fs]=77.00000
   C -0.107161379E+02  0.131644762E+00 -0.233330492E+00
   C  0.105331295E+02  0.306703269E+00 -0.242198798E+00
   H -0.429855854E+02 -0.291481792E+01  0.424676143E+01
   H  0.419377858E+02 -0.289542829E+01 -0.325251710E+01
     4
 # iter = 77500  time[fs]=77.50000
   C -0.108192323E+02  0.132790092E+00 -0.235240726E+00
   C  0.106342121E+02  0.309487223E+00 -0.243905527E+00
   H -0.433562034E+02 -0.293984721E+01  0.428378528E+01
   H  0.422980874E+02 -0.292053700E+01 -0.328048369E+01
     4
 # iter = 78000  time[fs]=78.00000
   C -0.109223671E+02  0.133935381E+00 -0.237151248E+00
   C  0.107353349E+02  0.312271867E+00 -0.245612085E+00
   H -0.437268692E+02 -0.296488017E+01  0.432081489E+01
   H  0.426584395E+02 -0.294564984E+01 -0.330845462E+01
     4
 # iter = 78500  time[fs]=78.50000
   C -0.110255415E+02  0.135080632E+00 -0.239062055E+00
   C  0.108364971E+02  0.315057190E+00 -0.247318476E+00
   H -0.440975820E+02 -0.298991674E+01  0.435785016E+01
   H  0.430188413E+02 -0.297076675E+01 -0.333642982E+01
     4
 # iter = 79000  time[fs]=79.00000
   C -0.111287549E+02  0.136225846E+00 -0.240973143E+00
   C  0.109376980E+02  0.317843180E+00 -0.249024700E+00
   H -0.444683411E+02 -0.301495687E+01  0.439489101E+01
   H  0.433792920E+02 -0.299588765E+01 -0.336440922E+01
     4
 # iter = 79500  time[fs]=79.50000
   C -0.112320064E+02  0.137371024E+00 -0.242884508E+00
   C  0.110389369E+02  0.320629825E+00 -0.250730760E+00
   H -0.448391457E+02 -0.304000050E+01  0.443193734E+01
   H  0.437397907E+02 -0.302101250E+01 -0.339239275E+01
     4
 # iter = 80000  time[fs]=80.00000
   C -0.113352954E+02  0.138516168E+00 -0.244796146E+00
   C  0.111402130E+02  0.323417115E+00 -0.252436657E+00
   H -0.452099950E+02 -0.306504757E+01  0.446898908E+01
   H  0.441003367E+02 -0.304614122E+01 -0.342038036E+01
