     4
 # iter = 25000  time[fs]=25.00000
   C -0.940847908E+00 -0.103968136E-01 -0.396497204E-01
   C  0.102967601E+01 -0.324659739E-01 -0.764794577E-03
   H -0.534658879E+01 -0.173018210E+00 -0.366076227E+00
   H  0.529529425E+01  0.552406961E+00  0.544220533E+00
     4
 # iter = 25500  time[fs]=25.50000
   C -0.984103383E+00 -0.120366232E-01 -0.399634392E-01
   C  0.107114439E+01 -0.367214026E-01 -0.293620423E-02
   H -0.568525820E+01 -0.193508187E+00 -0.394154460E+00
   H  0.560490132E+01  0.578693745E+00  0.571816090E+00
     4
 # iter = 26000  time[fs]=26.00000
   C -0.103127835E+01 -0.146896057E-01 -0.413705348E-01
   C  0.111464552E+01 -0.418997239E-01 -0.593325582E-02
   H -0.603465850E+01 -0.219594656E+00 -0.428016738E+00
   H  0.591424022E+01  0.600169806E+00  0.594583916E+00
     4
 # iter = 26500  time[fs]=26.50000
   C -0.107902435E+01 -0.152368248E-01 -0.407436059E-01
   C  0.116249020E+01 -0.454500581E-01 -0.721569328E-02
   H -0.637808596E+01 -0.235168764E+00 -0.451530731E+00
   H  0.623887308E+01  0.632865686E+00  0.628556978E+00
     4
 # iter = 27000  time[fs]=27.00000
   C -0.112697136E+01 -0.135247314E-01 -0.379214900E-01
   C  0.121458645E+01 -0.472425276E-01 -0.666299720E-02
   H -0.671424193E+01 -0.239417430E+00 -0.463864440E+00
   H  0.657912038E+01  0.677522495E+00  0.674478407E+00
     4
 # iter = 27500  time[fs]=27.50000
   C -0.117723950E+01 -0.118750851E-01 -0.352191545E-01
   C  0.126883987E+01 -0.491681685E-01 -0.617441909E-02
   H -0.705468356E+01 -0.244296792E+00 -0.476958645E+00
   H  0.692258103E+01  0.722117633E+00  0.720327324E+00
     4
 # iter = 28000  time[fs]=28.00000
   C -0.123128611E+01 -0.119310958E-01 -0.342737894E-01
   C  0.132372578E+01 -0.525641429E-01 -0.709435054E-02
   H -0.740752245E+01 -0.258263831E+00 -0.499257195E+00
   H  0.726041565E+01  0.758137283E+00  0.757591296E+00
     4
 # iter = 28500  time[fs]=28.50000
   C -0.128827881E+01 -0.130305305E-01 -0.344178486E-01
   C  0.137961576E+01 -0.568856334E-01 -0.888434658E-02
   H -0.776901402E+01 -0.277883661E+00 -0.527313574E+00
   H  0.759574072E+01  0.788970559E+00  0.789660516E+00
     4
 # iter = 29000  time[fs]=29.00000
   C -0.134643603E+01 -0.135469762E-01 -0.340202358E-01
   C  0.143768297E+01 -0.608008249E-01 -0.102181996E-01
   H -0.813047553E+01 -0.294748624E+00 -0.552709904E+00
   H  0.793669272E+01  0.822986932E+00  0.824905326E+00
     4
 # iter = 29500  time[fs]=29.50000
   C -0.140505583E+01 -0.129196600E-01 -0.325160493E-01
   C  0.149824541E+01 -0.638479407E-01 -0.106390547E-01
   H -0.848875995E+01 -0.305949993E+00 -0.572528683E+00
   H  0.828593837E+01  0.863060254E+00  0.866200321E+00
     4
 # iter = 30000  time[fs]=30.00000
   C -0.146479963E+01 -0.119381622E-01 -0.306912286E-01
   C  0.156053266E+01 -0.666676900E-01 -0.107919424E-01
   H -0.884772074E+01 -0.315546782E+00 -0.590821416E+00
   H  0.863919901E+01  0.905098726E+00  0.909454359E+00
     4
 # iter = 30500  time[fs]=30.50000
   C -0.152643179E+01 -0.114830353E-01 -0.294231146E-01
   C  0.162371213E+01 -0.699752664E-01 -0.113958612E-01
   H -0.921170643E+01 -0.328068243E+00 -0.612110804E+00
   H  0.899174951E+01  0.944543710E+00  0.950109367E+00
     4
 # iter = 31000  time[fs]=31.00000
   C -0.158986056E+01 -0.115677961E-01 -0.287223888E-01
   C  0.168766959E+01 -0.737783465E-01 -0.124618491E-01
   H -0.958061163E+01 -0.343571178E+00 -0.636447809E+00
   H  0.934336172E+01  0.981313360E+00  0.988083978E+00
     4
 # iter = 31500  time[fs]=31.50000
   C -0.165441833E+01 -0.116201278E-01 -0.280142281E-01
   C  0.175277861E+01 -0.776066128E-01 -0.135225647E-01
   H -0.995132547E+01 -0.359090784E+00 -0.660862408E+00
   H  0.969684987E+01  0.101835096E+01  0.102632189E+01
     4
 # iter = 32000  time[fs]=32.00000
   C -0.171966429E+01 -0.112856192E-01 -0.269420002E-01
   C  0.181924382E+01 -0.811677997E-01 -0.142883803E-01
   H -0.103218777E+02 -0.372787482E+00 -0.683510375E+00
   H  0.100539184E+02  0.105747659E+01  0.106664353E+01
     4
 # iter = 32500  time[fs]=32.50000
   C -0.178567181E+01 -0.107160060E-01 -0.256554683E-01
   C  0.188686481E+01 -0.845829676E-01 -0.148826988E-01
   H -0.106929244E+02 -0.385434010E+00 -0.705160328E+00
   H  0.104136716E+02  0.109789930E+01  0.110825828E+01
     4
 # iter = 33000  time[fs]=33.00000
   C -0.185268148E+01 -0.102229852E-01 -0.244645742E-01
   C  0.195531782E+01 -0.881039325E-01 -0.155594223E-01
   H -0.110659597E+02 -0.398629153E+00 -0.727407370E+00
   H  0.107743992E+02  0.113800359E+01  0.114955093E+01
     4
 # iter = 33500  time[fs]=33.50000
   C -0.192072053E+01 -0.989845465E-02 -0.234596501E-01
   C  0.202446484E+01 -0.918032861E-01 -0.163930056E-01
   H -0.114413542E+02 -0.412838272E+00 -0.750713546E+00
   H  0.111355353E+02  0.117730922E+01  0.119004149E+01
     4
 # iter = 34000  time[fs]=34.00000
   C -0.198959848E+01 -0.961073122E-02 -0.225076137E-01
   C  0.209435604E+01 -0.955712944E-01 -0.172753831E-01
   H -0.118183341E+02 -0.427373759E+00 -0.774388243E+00
   H  0.114976771E+02  0.121649057E+01  0.123040456E+01
     4
 # iter = 34500  time[fs]=34.50000
   C -0.205913293E+01 -0.923102910E-02 -0.214784254E-01
   C  0.216504437E+01 -0.993007394E-01 -0.181008345E-01
   H -0.121961488E+02 -0.441563567E+00 -0.797756691E+00
   H  0.118614142E+02  0.125620765E+01  0.127130035E+01
     4
 # iter = 35000  time[fs]=35.00000
   C -0.212927788E+01 -0.876224132E-02 -0.203738520E-01
   C  0.223647990E+01 -0.102992022E+00 -0.188711080E-01
   H -0.125747348E+02 -0.455415627E+00 -0.820824352E+00
   H  0.122266634E+02  0.129644136E+01  0.131270997E+01
     4
 # iter = 35500  time[fs]=35.50000
   C -0.220006344E+01 -0.827919557E-02 -0.192677072E-01
   C  0.230855815E+01 -0.106704390E+00 -0.196466668E-01
   H -0.129544065E+02 -0.469309534E+00 -0.843968572E+00
   H  0.125929761E+02  0.133680181E+01  0.135424366E+01
     4
 # iter = 36000  time[fs]=36.00000
   C -0.227148970E+01 -0.782289710E-02 -0.182000813E-01
   C  0.238120593E+01 -0.110469612E+00 -0.204603771E-01
   H -0.133353097E+02 -0.483450814E+00 -0.867392829E+00
   H  0.129600834E+02  0.137707402E+01  0.139568662E+01
     4
 # iter = 36500  time[fs]=36.50000
   C -0.234350215E+01 -0.737634900E-02 -0.171531498E-01
   C  0.245440073E+01 -0.114272228E+00 -0.212977766E-01
   H -0.137172962E+02 -0.497746137E+00 -0.891001912E+00
   H  0.133280208E+02  0.141734273E+01  0.143712371E+01
     4
 # iter = 37000  time[fs]=37.00000
   C -0.241603597E+01 -0.690918190E-02 -0.160957933E-01
   C  0.252813394E+01 -0.118085973E+00 -0.221335028E-01
   H -0.141001533E+02 -0.512033561E+00 -0.914632155E+00
   H  0.136968967E+02  0.145776194E+01  0.147870909E+01
     4
 # iter = 37500  time[fs]=37.50000
   C -0.248905240E+01 -0.641432172E-02 -0.150202562E-01
   C  0.260238064E+01 -0.121903691E+00 -0.229612237E-01
   H -0.144837932E+02 -0.526271705E+00 -0.938240590E+00
   H  0.140667033E+02  0.149836571E+01  0.152047689E+01
     4
 # iter = 38000  time[fs]=38.00000
   C -0.256253445E+01 -0.590395346E-02 -0.139381031E-01
   C  0.267710263E+01 -0.125734036E+00 -0.237903446E-01
   H -0.148682311E+02 -0.540518888E+00 -0.961884076E+00
   H  0.144373367E+02  0.153908889E+01  0.156236210E+01
     4
 # iter = 38500  time[fs]=38.50000
   C -0.263646573E+01 -0.538860059E-02 -0.128592917E-01
   C  0.275226529E+01 -0.129584391E+00 -0.246289343E-01
   H -0.152534772E+02 -0.554825157E+00 -0.985611309E+00
   H  0.148087047E+02  0.157987511E+01  0.160430844E+01
     4
 # iter = 39000  time[fs]=39.00000
   C -0.271082142E+01 -0.486834446E-02 -0.117833857E-01
   C  0.282784447E+01 -0.133453691E+00 -0.254765591E-01
   H -0.156394909E+02 -0.569186958E+00 -0.100941749E+01
   H  0.151807716E+02  0.162072206E+01  0.164631369E+01
     4
 # iter = 39500  time[fs]=39.50000
   C -0.278557399E+01 -0.433864715E-02 -0.107053736E-01
   C  0.290382166E+01 -0.137337177E+00 -0.263290351E-01
   H -0.160262107E+02 -0.583577155E+00 -0.103327431E+01
   H  0.155535283E+02  0.166165142E+01  0.168839962E+01
     4
 # iter = 40000  time[fs]=40.00000
   C -0.286070014E+01 -0.379754913E-02 -0.962286101E-02
   C  0.298017783E+01 -0.141232258E+00 -0.271843027E-01
   H -0.164135911E+02 -0.597982154E+00 -0.105716712E+01
   H  0.159269546E+02  0.170267171E+01  0.173057482E+01
     4
 # iter = 40500  time[fs]=40.50000
   C -0.293618157E+01 -0.324652607E-02 -0.853692386E-02
   C  0.305689267E+01 -0.145139207E+00 -0.280431254E-01
   H -0.168016066E+02 -0.612406305E+00 -0.108109926E+01
   H  0.163010144E+02  0.174377382E+01  0.177283027E+01
     4
 # iter = 41000  time[fs]=41.00000
   C -0.301200186E+01 -0.268757432E-02 -0.744919043E-02
   C  0.313394680E+01 -0.149058782E+00 -0.289067107E-01
   H -0.171902366E+02 -0.626856844E+00 -0.110507704E+01
   H  0.166756712E+02  0.178494607E+01  0.181515434E+01
     4
 # iter = 41500  time[fs]=41.50000
   C -0.308814461E+01 -0.212138766E-02 -0.636001491E-02
   C  0.321132315E+01 -0.152990727E+00 -0.297752218E-01
   H -0.175794559E+02 -0.641334472E+00 -0.112910028E+01
   H  0.170508966E+02  0.182618362E+01  0.185754226E+01
     4
 # iter = 42000  time[fs]=42.00000
   C -0.316459366E+01 -0.154777017E-02 -0.526888757E-02
   C  0.328900649E+01 -0.156934110E+00 -0.306481133E-01
   H -0.179692363E+02 -0.655835472E+00 -0.115316446E+01
   H  0.174266686E+02  0.186748627E+01  0.189999390E+01
     4
 # iter = 42500  time[fs]=42.50000
   C -0.324133407E+01 -0.966634309E-03 -0.417543043E-02
   C  0.336698255E+01 -0.160888134E+00 -0.315249454E-01
   H -0.183595521E+02 -0.670356844E+00 -0.117726581E+01
   H  0.178029661E+02  0.190885337E+01  0.194250866E+01
     4
 # iter = 43000  time[fs]=43.00000
   C -0.331835224E+01 -0.378302662E-03 -0.307969685E-02
   C  0.344523768E+01 -0.164852377E+00 -0.324056297E-01
   H -0.187503810E+02 -0.684897853E+00 -0.120140289E+01
   H  0.181797670E+02  0.195028222E+01  0.198508388E+01
     4
 # iter = 43500  time[fs]=43.50000
   C -0.339563564E+01  0.216767349E-03 -0.198189430E-02
   C  0.352375898E+01 -0.168826566E+00 -0.332902034E-01
   H -0.191417030E+02 -0.699458596E+00 -0.122557512E+01
   H  0.185570499E+02  0.199176948E+01  0.202771629E+01
     4
 # iter = 44000  time[fs]=44.00000
   C -0.347317244E+01  0.818235698E-03 -0.882130398E-03
   C  0.360253445E+01 -0.172810370E+00 -0.341786231E-01
   H -0.195334988E+02 -0.714038692E+00 -0.124978149E+01
   H  0.189347951E+02  0.203331248E+01  0.207040326E+01
     4
 # iter = 44500  time[fs]=44.50000
   C -0.355095145E+01  0.142588477E-02  0.219593603E-03
   C  0.368155293E+01 -0.176803388E+00 -0.350707598E-01
   H -0.199257497E+02 -0.728637246E+00 -0.127402053E+01
   H  0.193129847E+02  0.207490925E+01  0.211314286E+01
     4
 # iter = 45000  time[fs]=45.00000
   C -0.362896216E+01  0.203952093E-02  0.132328580E-02
   C  0.376080395E+01 -0.180805236E+00 -0.359664785E-01
   H -0.203184379E+02 -0.743253350E+00 -0.129829076E+01
   H  0.196916016E+02  0.211655797E+01  0.215593332E+01
     4
 # iter = 45500  time[fs]=45.50000
   C -0.370719470E+01  0.265892687E-02  0.242891722E-02
   C  0.384027766E+01 -0.184815576E+00 -0.368656767E-01
   H -0.207115468E+02 -0.757886320E+00 -0.132259097E+01
   H  0.200706298E+02  0.215825677E+01  0.219877280E+01
     4
 # iter = 46000  time[fs]=46.00000
   C -0.378563986E+01  0.328387669E-02  0.353643800E-02
   C  0.391996477E+01 -0.188834102E+00 -0.377682711E-01
   H -0.211050608E+02 -0.772535611E+00 -0.134692012E+01
   H  0.204500538E+02  0.220000376E+01  0.224165944E+01
     4
 # iter = 46500  time[fs]=46.50000
   C -0.386428893E+01  0.391415974E-02  0.464580225E-02
   C  0.399985653E+01 -0.192860526E+00 -0.386741780E-01
   H -0.214989654E+02 -0.787200691E+00 -0.137127721E+01
   H  0.208298591E+02  0.224179717E+01  0.228459153E+01
     4
 # iter = 47000  time[fs]=47.00000
   C -0.394313371E+01  0.454958484E-02  0.575697320E-02
   C  0.407994473E+01 -0.196894563E+00 -0.395833087E-01
   H -0.218932463E+02 -0.801881008E+00 -0.139566125E+01
   H  0.212100321E+02  0.228363538E+01  0.232756746E+01
     4
 # iter = 47500  time[fs]=47.50000
   C -0.402216644E+01  0.518997314E-02  0.686991682E-02
   C  0.416022159E+01 -0.200935945E+00 -0.404955751E-01
   H -0.222878904E+02 -0.816576026E+00 -0.142007128E+01
   H  0.215905597E+02  0.232551684E+01  0.237058573E+01
     4
 # iter = 48000  time[fs]=48.00000
   C -0.410137983E+01  0.583515284E-02  0.798459733E-02
   C  0.424067980E+01 -0.204984414E+00 -0.414108935E-01
   H -0.226828850E+02 -0.831285245E+00 -0.144450641E+01
   H  0.219714296E+02  0.236744010E+01  0.241364491E+01
     4
 # iter = 48500  time[fs]=48.50000
   C -0.418076696E+01  0.648495887E-02  0.910097758E-02
   C  0.432131241E+01 -0.209039730E+00 -0.423291843E-01
   H -0.230782182E+02 -0.846008198E+00 -0.146896578E+01
   H  0.223526301E+02  0.240940376E+01  0.245674362E+01
     4
 # iter = 49000  time[fs]=49.00000
   C -0.426032130E+01  0.713923410E-02  0.102190208E-01
   C  0.440211289E+01 -0.213101663E+00 -0.432503703E-01
   H -0.234738786E+02 -0.860744442E+00 -0.149344859E+01
   H  0.227341501E+02  0.245140648E+01  0.249988057E+01
     4
 # iter = 49500  time[fs]=49.50000
   C -0.434003668E+01  0.779782942E-02  0.113386913E-01
   C  0.448307502E+01 -0.217169995E+00 -0.441743767E-01
   H -0.238698554E+02 -0.875493551E+00 -0.151795409E+01
   H  0.231159790E+02  0.249344700E+01  0.254305450E+01
     4
 # iter = 50000  time[fs]=50.00000
   C -0.441990722E+01  0.846060303E-02  0.124599543E-01
   C  0.456419292E+01 -0.221244516E+00 -0.451011307E-01
   H -0.242661384E+02 -0.890255120E+00 -0.154248154E+01
   H  0.234981068E+02  0.253552411E+01  0.258626425E+01
     4
 # iter = 50500  time[fs]=50.50000
   C -0.449992738E+01  0.912741970E-02  0.135827755E-01
   C  0.464546104E+01 -0.225325027E+00 -0.460305619E-01
   H -0.246627178E+02 -0.905028762E+00 -0.156703024E+01
   H  0.238805238E+02  0.257763666E+01  0.262950868E+01
     4
 # iter = 51000  time[fs]=51.00000
   C -0.458009187E+01  0.979815030E-02  0.147071212E-01
   C  0.472687406E+01 -0.229411340E+00 -0.469626024E-01
   H -0.250595841E+02 -0.919814106E+00 -0.159159953E+01
   H  0.242632209E+02  0.261978356E+01  0.267278672E+01
     4
 # iter = 51500  time[fs]=51.50000
   C -0.466039570E+01  0.104726716E-01  0.158329584E-01
   C  0.480842697E+01 -0.233503272E+00 -0.478971865E-01
   H -0.254567285E+02 -0.934610800E+00 -0.161618879E+01
   H  0.246461894E+02  0.266196376E+01  0.271609734E+01
     4
 # iter = 52000  time[fs]=52.00000
   C -0.474083409E+01  0.111508659E-01  0.169602549E-01
   C  0.489011499E+01 -0.237600651E+00 -0.488342507E-01
   H -0.258541425E+02 -0.949418509E+00 -0.164079740E+01
   H  0.250294209E+02  0.270417625E+01  0.275943957E+01
     4
 # iter = 52500  time[fs]=52.50000
   C -0.482140251E+01  0.118326206E-01  0.180889790E-01
   C  0.497193358E+01 -0.241703311E+00 -0.497737335E-01
   H -0.262518180E+02 -0.964236908E+00 -0.166542479E+01
   H  0.254129076E+02  0.274642009E+01  0.280281247E+01
     4
 # iter = 53000  time[fs]=53.00000
   C -0.490209666E+01  0.125178284E-01  0.192191000E-01
   C  0.505387841E+01 -0.245811095E+00 -0.507155753E-01
   H -0.266497471E+02 -0.979065690E+00 -0.169007040E+01
   H  0.257966417E+02  0.278869436E+01  0.284621515E+01
     4
 # iter = 53500  time[fs]=53.50000
   C -0.498291243E+01  0.132063862E-01  0.203505879E-01
   C  0.513594535E+01 -0.249923851E+00 -0.516597188E-01
   H -0.270479226E+02 -0.993904560E+00 -0.171473371E+01
   H  0.261806161E+02  0.283099818E+01  0.288964674E+01
     4
 # iter = 54000  time[fs]=54.00000
   C -0.506384590E+01  0.138981955E-01  0.214834132E-01
   C  0.521813049E+01 -0.254041434E+00 -0.526061083E-01
   H -0.274463371E+02 -0.100875323E+01 -0.173941422E+01
   H  0.265648238E+02  0.287333072E+01  0.293310642E+01
     4
 # iter = 54500  time[fs]=54.50000
   C -0.514489333E+01  0.145931620E-01  0.226175474E-01
   C  0.530043007E+01 -0.258163706E+00 -0.535546899E-01
   H -0.278449840E+02 -0.102361144E+01 -0.176411144E+01
   H  0.269492581E+02  0.291569116E+01  0.297659341E+01
     4
 # iter = 55000  time[fs]=55.00000
   C -0.522605116E+01  0.152911954E-01  0.237529626E-01
   C  0.538284050E+01 -0.262290534E+00 -0.545054116E-01
   H -0.282438567E+02 -0.103847892E+01 -0.178882489E+01
   H  0.273339126E+02  0.295807875E+01  0.302010695E+01
     4
 # iter = 55500  time[fs]=55.50000
   C -0.530731599E+01  0.159922087E-01  0.248896316E-01
   C  0.546535839E+01 -0.266421789E+00 -0.554582229E-01
   H -0.286429489E+02 -0.105335542E+01 -0.181355415E+01
   H  0.277187812E+02  0.300049273E+01  0.306364633E+01
     4
 # iter = 56000  time[fs]=56.00000
   C -0.538868455E+01  0.166961190E-01  0.260275279E-01
   C  0.554798046E+01 -0.270557351E+00 -0.564130751E-01
   H -0.290422547E+02 -0.106824071E+01 -0.183829878E+01
   H  0.281038581E+02  0.304293240E+01  0.310721083E+01
     4
 # iter = 56500  time[fs]=56.50000
   C -0.547015374E+01  0.174028463E-01  0.271666258E-01
   C  0.563070358E+01 -0.274697101E+00 -0.573699209E-01
   H -0.294417682E+02 -0.108313454E+01 -0.186305836E+01
   H  0.284891375E+02  0.308539709E+01  0.315079980E+01
     4
 # iter = 57000  time[fs]=57.00000
   C -0.555172058E+01  0.181123140E-01  0.283069001E-01
   C  0.571352477E+01 -0.278840927E+00 -0.583287147E-01
   H -0.298414840E+02 -0.109803671E+01 -0.188783252E+01
   H  0.288746142E+02  0.312788612E+01  0.319441260E+01
     4
 # iter = 57500  time[fs]=57.50000
   C -0.563338220E+01  0.188244484E-01  0.294483263E-01
   C  0.579644116E+01 -0.282988720E+00 -0.592894122E-01
   H -0.302413967E+02 -0.111294699E+01 -0.191262086E+01
   H  0.292602828E+02  0.317039888E+01  0.323804860E+01
     4
 # iter = 58000  time[fs]=58.00000
   C -0.571513589E+01  0.195391788E-01  0.305908807E-01
   C  0.587945002E+01 -0.287140375E+00 -0.602519704E-01
   H -0.306415012E+02 -0.112786519E+01 -0.193742302E+01
   H  0.296461384E+02  0.321293475E+01  0.328170722E+01
     4
 # iter = 58500  time[fs]=58.50000
   C -0.579697902E+01  0.202564369E-01  0.317345401E-01
   C  0.596254871E+01 -0.291295794E+00 -0.612163479E-01
   H -0.310417925E+02 -0.114279110E+01 -0.196223865E+01
   H  0.300321762E+02  0.325549316E+01  0.332538787E+01
     4
 # iter = 59000  time[fs]=59.00000
   C -0.587890908E+01  0.209761574E-01  0.328792820E-01
   C  0.604573471E+01 -0.295454879E+00 -0.621825043E-01
   H -0.314422661E+02 -0.115772453E+01 -0.198706742E+01
   H  0.304183915E+02  0.329807354E+01  0.336909002E+01
     4
 # iter = 59500  time[fs]=59.50000
   C -0.596092366E+01  0.216982772E-01  0.340250843E-01
   C  0.612900561E+01 -0.299617537E+00 -0.631504007E-01
   H -0.318429172E+02 -0.117266531E+01 -0.201190899E+01
   H  0.308047799E+02  0.334067535E+01  0.341281314E+01
     4
 # iter = 60000  time[fs]=60.00000
   C -0.604302045E+01  0.224227354E-01  0.351719256E-01
   C  0.621235908E+01 -0.303783679E+00 -0.641199993E-01
   H -0.322437415E+02 -0.118761325E+01 -0.203676306E+01
   H  0.311913371E+02  0.338329807E+01  0.345655670E+01
     4
 # iter = 60500  time[fs]=60.50000
   C -0.612519722E+01  0.231494738E-01  0.363197853E-01
   C  0.629579290E+01 -0.307953219E+00 -0.650912633E-01
   H -0.326447347E+02 -0.120256818E+01 -0.206162933E+01
   H  0.315780589E+02  0.342594119E+01  0.350032023E+01
     4
 # iter = 61000  time[fs]=61.00000
   C -0.620745184E+01  0.238784358E-01  0.374686429E-01
   C  0.637930491E+01 -0.312126074E+00 -0.660641574E-01
   H -0.330458929E+02 -0.121752994E+01 -0.208650749E+01
   H  0.319649415E+02  0.346860424E+01  0.354410324E+01
     4
 # iter = 61500  time[fs]=61.50000
   C -0.628978225E+01  0.246095671E-01  0.386184788E-01
   C  0.646289306E+01 -0.316302163E+00 -0.670386468E-01
   H -0.334472119E+02 -0.123249837E+01 -0.211139728E+01
   H  0.323519808E+02  0.351128674E+01  0.358790527E+01
     4
 # iter = 62000  time[fs]=62.00000
   C -0.637218649E+01  0.253428152E-01  0.397692738E-01
   C  0.654655537E+01 -0.320481409E+00 -0.680146983E-01
   H -0.338486882E+02 -0.124747332E+01 -0.213629841E+01
   H  0.327391733E+02  0.355398824E+01  0.363172589E+01
     4
 # iter = 62500  time[fs]=62.50000
   C -0.645466264E+01  0.260781297E-01  0.409210093E-01
   C  0.663028992E+01 -0.324663738E+00 -0.689922793E-01
   H -0.342503179E+02 -0.126245463E+01 -0.216121063E+01
   H  0.331265153E+02  0.359670830E+01  0.367556467E+01
     4
 # iter = 63000  time[fs]=63.00000
   C -0.653720888E+01  0.268154617E-01  0.420736669E-01
   C  0.671409489E+01 -0.328849078E+00 -0.699713584E-01
   H -0.346520976E+02 -0.127744218E+01 -0.218613369E+01
   H  0.335140034E+02  0.363944651E+01  0.371942119E+01
     4
 # iter = 63500  time[fs]=63.50000
   C -0.661982345E+01  0.275547639E-01  0.432272289E-01
   C  0.679796849E+01 -0.333037359E+00 -0.709519048E-01
   H -0.350540237E+02 -0.129243580E+01 -0.221106734E+01
   H  0.339016342E+02  0.368220246E+01  0.376329506E+01
     4
 # iter = 64000  time[fs]=64.00000
   C -0.670250464E+01  0.282959908E-01  0.443816782E-01
   C  0.688190904E+01 -0.337228513E+00 -0.719338891E-01
   H -0.354560931E+02 -0.130743539E+01 -0.223601134E+01
   H  0.342894045E+02  0.372497574E+01  0.380718588E+01
     4
 # iter = 64500  time[fs]=64.50000
   C -0.678525082E+01  0.290390985E-01  0.455369979E-01
   C  0.696591488E+01 -0.341422477E+00 -0.729172822E-01
   H -0.358583026E+02 -0.132244079E+01 -0.226096546E+01
   H  0.346773112E+02  0.376776599E+01  0.385109330E+01
     4
 # iter = 65000  time[fs]=65.00000
   C -0.686806042E+01  0.297840443E-01  0.466931716E-01
   C  0.704998442E+01 -0.345619186E+00 -0.739020561E-01
   H -0.362606489E+02 -0.133745189E+01 -0.228592949E+01
   H  0.350653513E+02  0.381057282E+01  0.389501693E+01
     4
 # iter = 65500  time[fs]=65.50000
   C -0.695093190E+01  0.305307871E-01  0.478501835E-01
   C  0.713411615E+01 -0.349818580E+00 -0.748881837E-01
   H -0.366631292E+02 -0.135246857E+01 -0.231090320E+01
   H  0.354535218E+02  0.385339589E+01  0.393895645E+01
     4
 # iter = 66000  time[fs]=66.00000
   C -0.703386380E+01  0.312792871E-01  0.490080178E-01
   C  0.721830857E+01 -0.354020601E+00 -0.758756385E-01
   H -0.370657405E+02 -0.136749071E+01 -0.233588640E+01
   H  0.358418199E+02  0.389623485E+01  0.398291150E+01
     4
 # iter = 66500  time[fs]=66.50000
   C -0.711685470E+01  0.320295057E-01  0.501666596E-01
   C  0.730256028E+01 -0.358225191E+00 -0.768643947E-01
   H -0.374684801E+02 -0.138251819E+01 -0.236087888E+01
   H  0.362302430E+02  0.393908937E+01  0.402688176E+01
     4
 # iter = 67000  time[fs]=67.00000
   C -0.719990323E+01  0.327814057E-01  0.513260941E-01
   C  0.738686988E+01 -0.362432295E+00 -0.778544273E-01
   H -0.378713452E+02 -0.139755091E+01 -0.238588045E+01
   H  0.366187882E+02  0.398195911E+01  0.407086691E+01
     4
 # iter = 67500  time[fs]=67.50000
   C -0.728300805E+01  0.335349509E-01  0.524863068E-01
   C  0.747123606E+01 -0.366641860E+00 -0.788457121E-01
   H -0.382743332E+02 -0.141258876E+01 -0.241089091E+01
   H  0.370074531E+02  0.402484377E+01  0.411486665E+01
     4
 # iter = 68000  time[fs]=68.00000
   C -0.736616790E+01  0.342901063E-01  0.536472838E-01
   C  0.755565752E+01 -0.370853835E+00 -0.798382253E-01
   H -0.386774416E+02 -0.142763162E+01 -0.243591010E+01
   H  0.373962352E+02  0.406774304E+01  0.415888068E+01
     4
 # iter = 68500  time[fs]=68.50000
   C -0.744938153E+01  0.350468380E-01  0.548090114E-01
   C  0.764013303E+01 -0.375068168E+00 -0.808319440E-01
   H -0.390806678E+02 -0.144267942E+01 -0.246093782E+01
   H  0.377851321E+02  0.411065662E+01  0.420290870E+01
     4
 # iter = 69000  time[fs]=69.00000
   C -0.753264775E+01  0.358051131E-01  0.559714763E-01
   C  0.772466137E+01 -0.379284811E+00 -0.818268457E-01
   H -0.394840095E+02 -0.145773203E+01 -0.248597391E+01
   H  0.381741414E+02  0.415358423E+01  0.424695043E+01
     4
 # iter = 69500  time[fs]=69.50000
   C -0.761596539E+01  0.365648999E-01  0.571346655E-01
   C  0.780924139E+01 -0.383503718E+00 -0.828229086E-01
   H -0.398874644E+02 -0.147278938E+01 -0.251101819E+01
   H  0.385632609E+02  0.419652560E+01  0.429100562E+01
     4
 # iter = 70000  time[fs]=70.00000
   C -0.769933333E+01  0.373261673E-01  0.582985664E-01
   C  0.789387196E+01 -0.387724842E+00 -0.838201116E-01
   H -0.402910302E+02 -0.148785137E+01 -0.253607052E+01
   H  0.389524883E+02  0.423948044E+01  0.433507398E+01
     4
 # iter = 70500  time[fs]=70.50000
   C -0.778275049E+01  0.380888855E-01  0.594631665E-01
   C  0.797855199E+01 -0.391948140E+00 -0.848184339E-01
   H -0.406947047E+02 -0.150291790E+01 -0.256113073E+01
   H  0.393418215E+02  0.428244849E+01  0.437915526E+01
     4
 # iter = 71000  time[fs]=71.00000
   C -0.786621582E+01  0.388530253E-01  0.606284538E-01
   C  0.806328042E+01 -0.396173567E+00 -0.858178555E-01
   H -0.410984858E+02 -0.151798890E+01 -0.258619867E+01
   H  0.397312585E+02  0.432542951E+01  0.442324922E+01
     4
 # iter = 71500  time[fs]=71.50000
   C -0.794972829E+01  0.396185584E-01  0.617944167E-01
   C  0.814805622E+01 -0.400401082E+00 -0.868183567E-01
   H -0.415023715E+02 -0.153306427E+01 -0.261127419E+01
   H  0.401207973E+02  0.436842325E+01  0.446735561E+01
     4
 # iter = 72000  time[fs]=72.00000
   C -0.803328692E+01  0.403854576E-01  0.629610435E-01
   C  0.823287842E+01 -0.404630645E+00 -0.878199185E-01
   H -0.419063596E+02 -0.154814394E+01 -0.263635715E+01
   H  0.405104358E+02  0.441142946E+01  0.451147419E+01
     4
 # iter = 72500  time[fs]=72.50000
   C -0.811689075E+01  0.411536960E-01  0.641283231E-01
   C  0.831774603E+01 -0.408862216E+00 -0.888225222E-01
   H -0.423104484E+02 -0.156322783E+01 -0.266144740E+01
   H  0.409001722E+02  0.445444791E+01  0.455560474E+01
     4
 # iter = 73000  time[fs]=73.00000
   C -0.820053885E+01  0.419232479E-01  0.652962446E-01
   C  0.840265814E+01 -0.413095757E+00 -0.898261498E-01
   H -0.427146358E+02 -0.157831585E+01 -0.268654482E+01
   H  0.412900046E+02  0.449747837E+01  0.459974704E+01
     4
 # iter = 73500  time[fs]=73.50000
   C -0.828423032E+01  0.426940882E-01  0.664647973E-01
   C  0.848761384E+01 -0.417331230E+00 -0.908307834E-01
   H -0.431189200E+02 -0.159340794E+01 -0.271164926E+01
   H  0.416799312E+02  0.454052062E+01  0.464390086E+01
     4
 # iter = 74000  time[fs]=74.00000
   C -0.836796428E+01  0.434661923E-01  0.676339708E-01
   C  0.857261225E+01 -0.421568600E+00 -0.918364060E-01
   H -0.435232994E+02 -0.160850401E+01 -0.273676060E+01
   H  0.420699504E+02  0.458357445E+01  0.468806600E+01
     4
 # iter = 74500  time[fs]=74.50000
   C -0.845173990E+01  0.442395366E-01  0.688037549E-01
   C  0.865765251E+01 -0.425807830E+00 -0.928430007E-01
   H -0.439277720E+02 -0.162360401E+01 -0.276187872E+01
   H  0.424600603E+02  0.462663965E+01  0.473224226E+01
     4
 # iter = 75000  time[fs]=75.00000
   C -0.853555633E+01  0.450140979E-01  0.699741397E-01
   C  0.874273380E+01 -0.430048887E+00 -0.938505511E-01
   H -0.443323362E+02 -0.163870785E+01 -0.278700350E+01
   H  0.428502594E+02  0.466971602E+01  0.477642943E+01
     4
 # iter = 75500  time[fs]=75.50000
   C -0.861941279E+01  0.457898537E-01  0.711451154E-01
   C  0.882785532E+01 -0.434291737E+00 -0.948590411E-01
   H -0.447369904E+02 -0.165381547E+01 -0.281213480E+01
   H  0.432405460E+02  0.471280334E+01  0.482062731E+01
     4
 # iter = 76000  time[fs]=76.00000
   C -0.870330850E+01  0.465667823E-01  0.723166726E-01
   C  0.891301628E+01 -0.438536348E+00 -0.958684553E-01
   H -0.451417330E+02 -0.166892680E+01 -0.283727253E+01
   H  0.436309186E+02  0.475590144E+01  0.486483573E+01
     4
 # iter = 76500  time[fs]=76.50000
   C -0.878724269E+01  0.473448623E-01  0.734888021E-01
   C  0.899821594E+01 -0.442782689E+00 -0.968787784E-01
   H -0.455465623E+02 -0.168404179E+01 -0.286241656E+01
   H  0.440213756E+02  0.479901013E+01  0.490905450E+01
     4
 # iter = 77000  time[fs]=77.00000
   C -0.887121464E+01  0.481240730E-01  0.746614947E-01
   C  0.908345354E+01 -0.447030728E+00 -0.978899955E-01
   H -0.459514770E+02 -0.169916036E+01 -0.288756679E+01
   H  0.444119156E+02  0.484212921E+01  0.495328343E+01
     4
 # iter = 77500  time[fs]=77.50000
   C -0.895522364E+01  0.489043942E-01  0.758347417E-01
   C  0.916872837E+01 -0.451280436E+00 -0.989020921E-01
   H -0.463564754E+02 -0.171428246E+01 -0.291272312E+01
   H  0.448025371E+02  0.488525852E+01  0.499752235E+01
     4
 # iter = 78000  time[fs]=78.00000
   C -0.903926899E+01  0.496858064E-01  0.770085343E-01
   C  0.925403974E+01 -0.455531783E+00 -0.999150540E-01
   H -0.467615562E+02 -0.172940803E+01 -0.293788542E+01
   H  0.451932386E+02  0.492839788E+01  0.504177110E+01
     4
 # iter = 78500  time[fs]=78.50000
   C -0.912335001E+01  0.504682904E-01  0.781828642E-01
   C  0.933938698E+01 -0.459784741E+00 -0.100928867E+00
   H -0.471667179E+02 -0.174453700E+01 -0.296305362E+01
   H  0.455840190E+02  0.497154712E+01  0.508602950E+01
     4
 # iter = 79000  time[fs]=79.00000
   C -0.920746604E+01  0.512518275E-01  0.793577231E-01
   C  0.942476941E+01 -0.464039282E+00 -0.101943519E+00
   H -0.475719592E+02 -0.175966933E+01 -0.298822760E+01
   H  0.459748767E+02  0.501470607E+01  0.513029740E+01
     4
 # iter = 79500  time[fs]=79.50000
   C -0.929161646E+01  0.520363996E-01  0.805331028E-01
   C  0.951018640E+01 -0.468295380E+00 -0.102958995E+00
   H -0.479772788E+02 -0.177480495E+01 -0.301340726E+01
   H  0.463658105E+02  0.505787457E+01  0.517457464E+01
     4
 # iter = 80000  time[fs]=80.00000
   C -0.937580064E+01  0.528219890E-01  0.817089956E-01
   C  0.959563732E+01 -0.472553007E+00 -0.103975283E+00
   H -0.483826752E+02 -0.178994382E+01 -0.303859253E+01
   H  0.467568191E+02  0.510105247E+01  0.521886106E+01
