     4
 # iter = 25000  time[fs]=25.00000
   C -0.978826448E+00 -0.586186854E-01 -0.563573283E-02
   C  0.100453050E+01  0.201101750E-01  0.433223435E-02
   H -0.524579114E+01 -0.532318968E+00  0.465703571E+00
   H  0.532316425E+01  0.745318342E+00 -0.412941225E+00
     4
 # iter = 25500  time[fs]=25.50000
   C -0.102588326E+01 -0.605560577E-01 -0.845168179E-02
   C  0.104715474E+01  0.161993809E-01  0.438013035E-02
   H -0.558829240E+01 -0.572723223E+00  0.487678980E+00
   H  0.563189113E+01  0.780891078E+00 -0.448623596E+00
     4
 # iter = 26000  time[fs]=26.00000
   C -0.107700418E+01 -0.636926044E-01 -0.124124500E-01
   C  0.109192906E+01  0.115135154E-01  0.360227838E-02
   H -0.594187583E+01 -0.619134667E+00  0.504810204E+00
   H  0.594033046E+01  0.811823898E+00 -0.490153032E+00
     4
 # iter = 26500  time[fs]=26.50000
   C -0.112866709E+01 -0.647373813E-01 -0.142397181E-01
   C  0.114115964E+01  0.860271027E-02  0.456282600E-02
   H -0.628979074E+01 -0.655402620E+00  0.533108834E+00
   H  0.626404801E+01  0.854129143E+00 -0.521394788E+00
     4
 # iter = 27000  time[fs]=27.00000
   C -0.118047993E+01 -0.635153427E-01 -0.137693392E-01
   C  0.119473665E+01  0.758176647E-02  0.738776758E-02
   H -0.663069262E+01 -0.680672639E+00  0.573316316E+00
   H  0.660337035E+01  0.908532354E+00 -0.541513867E+00
     4
 # iter = 27500  time[fs]=27.50000
   C -0.123466752E+01 -0.624525673E-01 -0.134366697E-01
   C  0.125053711E+01  0.653274855E-02  0.101679724E-01
   H -0.697609316E+01 -0.706859531E+00  0.613425321E+00
   H  0.694590425E+01  0.962997621E+00 -0.562447983E+00
     4
 # iter = 28000  time[fs]=28.00000
   C -0.129275980E+01 -0.632640736E-01 -0.149642855E-01
   C  0.130701421E+01  0.409722260E-02  0.115521364E-01
   H -0.733406748E+01 -0.742386036E+00  0.644933583E+00
   H  0.728281613E+01  0.100899955E+01 -0.592637867E+00
     4
 # iter = 28500  time[fs]=28.50000
   C -0.135388273E+01 -0.652451578E-01 -0.176534253E-01
   C  0.136453253E+01  0.813259926E-03  0.120842215E-01
   H -0.770084734E+01 -0.783793517E+00  0.671229078E+00
   H  0.761722491E+01  0.104991698E+01 -0.628633401E+00
     4
 # iter = 29000  time[fs]=29.00000
   C -0.141616607E+01 -0.666797660E-01 -0.197927036E-01
   C  0.142426558E+01 -0.198728035E-02  0.131008522E-01
   H -0.806773395E+01 -0.822656674E+00  0.700674777E+00
   H  0.795726772E+01  0.109411029E+01 -0.662013042E+00
     4
 # iter = 29500  time[fs]=29.50000
   C -0.147887405E+01 -0.669719784E-01 -0.207899449E-01
   C  0.148652733E+01 -0.384736363E-02  0.150627568E-01
   H -0.843156428E+01 -0.856049109E+00  0.736143258E+00
   H  0.830561217E+01  0.114444541E+01 -0.689856429E+00
     4
 # iter = 30000  time[fs]=30.00000
   C -0.154270316E+01 -0.669448654E-01 -0.214712375E-01
   C  0.155053709E+01 -0.541899262E-02  0.173207193E-01
   H -0.879617441E+01 -0.888010885E+00  0.773548133E+00
   H  0.865798102E+01  0.119682370E+01 -0.716213097E+00
     4
 # iter = 30500  time[fs]=30.50000
   C -0.160845828E+01 -0.675178043E-01 -0.227583336E-01
   C  0.161545260E+01 -0.742828641E-02  0.191507292E-01
   H -0.916589742E+01 -0.923054134E+00  0.808336646E+00
   H  0.900965045E+01  0.124668049E+01 -0.745603916E+00
     4
 # iter = 31000  time[fs]=31.00000
   C -0.167604538E+01 -0.687003033E-01 -0.246625478E-01
   C  0.168115567E+01 -0.988823052E-02  0.205414138E-01
   H -0.954061708E+01 -0.961222717E+00  0.840428625E+00
   H  0.936039284E+01  0.129392842E+01 -0.778077586E+00
     4
 # iter = 31500  time[fs]=31.50000
   C -0.174476568E+01 -0.698872214E-01 -0.265800863E-01
   C  0.174801996E+01 -0.123298837E-01  0.219629274E-01
   H -0.991721502E+01 -0.999542009E+00  0.872766102E+00
   H  0.971302242E+01  0.134150581E+01 -0.810661601E+00
     4
 # iter = 32000  time[fs]=32.00000
   C -0.181415863E+01 -0.707027534E-01 -0.281361464E-01
   C  0.181624953E+01 -0.144630223E-01  0.237063617E-01
   H -0.102937142E+02 -0.103616325E+01  0.907168750E+00
   H  0.100692435E+02  0.139122830E+01 -0.841509618E+00
     4
 # iter = 32500  time[fs]=32.50000
   C -0.188430368E+01 -0.713030643E-01 -0.294876322E-01
   C  0.188564109E+01 -0.164131081E-01  0.256468334E-01
   H -0.106707635E+02 -0.107184964E+01  0.942847438E+00
   H  0.104281605E+02  0.144230099E+01 -0.871388674E+00
     4
 # iter = 33000  time[fs]=33.00000
   C -0.195545582E+01 -0.720126757E-01 -0.309595886E-01
   C  0.195586746E+01 -0.184368433E-01  0.275279952E-01
   H -0.110498501E+02 -0.110819093E+01  0.978189178E+00
   H  0.107880632E+02  0.149310488E+01 -0.901892525E+00
     4
 # iter = 33500  time[fs]=33.50000
   C -0.202764595E+01 -0.729256004E-01 -0.326463701E-01
   C  0.202678877E+01 -0.206101166E-01  0.292741464E-01
   H -0.114313392E+02 -0.114564490E+01  0.101271518E+01
   H  0.111483856E+02  0.154315649E+01 -0.933481783E+00
     4
 # iter = 34000  time[fs]=34.00000
   C -0.210067618E+01 -0.739013292E-01 -0.344076619E-01
   C  0.209845488E+01 -0.228249278E-01  0.309933459E-01
   H -0.118144529E+02 -0.118351771E+01  0.104710021E+01
   H  0.115097245E+02  0.159312724E+01 -0.965464325E+00
     4
 # iter = 34500  time[fs]=34.50000
   C -0.217435707E+01 -0.748026375E-01 -0.361063203E-01
   C  0.217091857E+01 -0.249755409E-01  0.327912854E-01
   H -0.121984371E+02 -0.122113171E+01  0.108200457E+01
   H  0.118726695E+02  0.164367446E+01 -0.997163980E+00
     4
 # iter = 35000  time[fs]=35.00000
   C -0.224864228E+01 -0.756307978E-01 -0.377436121E-01
   C  0.224412923E+01 -0.270643430E-01  0.346654501E-01
   H -0.125832247E+02 -0.125848937E+01  0.111741000E+01
   H  0.122371371E+02  0.169477661E+01 -0.102858503E+01
     4
 # iter = 35500  time[fs]=35.50000
   C -0.232356533E+01 -0.764628100E-01 -0.393964650E-01
   C  0.231798140E+01 -0.291527676E-01  0.365542144E-01
   H -0.129691271E+02 -0.129596513E+01  0.115292768E+01
   H  0.126026783E+02  0.174604157E+01 -0.106010377E+01
     4
 # iter = 36000  time[fs]=36.00000
   C -0.239912811E+01 -0.773403158E-01 -0.411063938E-01
   C  0.239240123E+01 -0.312743994E-01  0.384237549E-01
   H -0.133562869E+02 -0.133375988E+01  0.118834354E+01
   H  0.129690240E+02  0.179725233E+01 -0.109192269E+01
     4
 # iter = 36500  time[fs]=36.50000
   C -0.247527504E+01 -0.782441853E-01 -0.428541004E-01
   C  0.246736597E+01 -0.334151151E-01  0.402879218E-01
   H -0.137445538E+02 -0.137177621E+01  0.122374289E+01
   H  0.133362095E+02  0.184849173E+01 -0.112394560E+01
     4
 # iter = 37000  time[fs]=37.00000
   C -0.255193965E+01 -0.791413697E-01 -0.446063363E-01
   C  0.254286693E+01 -0.355497696E-01  0.421715623E-01
   H -0.141337131E+02 -0.140984846E+01  0.125928024E+01
   H  0.137043429E+02  0.189991205E+01 -0.115600789E+01
     4
 # iter = 37500  time[fs]=37.50000
   C -0.262908273E+01 -0.800233946E-01 -0.463544042E-01
   C  0.261887902E+01 -0.376723375E-01  0.440803861E-01
   H -0.145236749E+02 -0.144793180E+01  0.129499018E+01
   H  0.140734161E+02  0.195154573E+01 -0.118806574E+01
     4
 # iter = 38000  time[fs]=38.00000
   C -0.270668784E+01 -0.809021082E-01 -0.481099135E-01
   C  0.269536385E+01 -0.397926032E-01  0.460042817E-01
   H -0.149144528E+02 -0.148608129E+01  0.133080815E+01
   H  0.144433249E+02  0.200332616E+01 -0.122017525E+01
     4
 # iter = 38500  time[fs]=38.50000
   C -0.278473909E+01 -0.817877004E-01 -0.498828035E-01
   C  0.277228660E+01 -0.419189740E-01  0.479345082E-01
   H -0.153060554E+02 -0.152434399E+01  0.136667834E+01
   H  0.148139769E+02  0.205519559E+01 -0.125238438E+01
     4
 # iter = 39000  time[fs]=39.00000
   C -0.286321168E+01 -0.826794713E-01 -0.516721169E-01
   C  0.284962310E+01 -0.440512684E-01  0.498709109E-01
   H -0.156984407E+02 -0.156271359E+01  0.140259891E+01
   H  0.151853361E+02  0.210715044E+01 -0.128468763E+01
     4
 # iter = 39500  time[fs]=39.50000
   C -0.294207785E+01 -0.835719386E-01 -0.534721100E-01
   C  0.292735478E+01 -0.461855043E-01  0.518171362E-01
   H -0.160915461E+02 -0.160116042E+01  0.143859197E+01
   H  0.155573932E+02  0.215921122E+01 -0.131705606E+01
     4
 # iter = 40000  time[fs]=40.00000
   C -0.302131424E+01 -0.844623889E-01 -0.552798065E-01
   C  0.300546263E+01 -0.483198170E-01  0.537747159E-01
   H -0.164853249E+02 -0.163966854E+01  0.147466645E+01
   H  0.159301276E+02  0.221138532E+01 -0.134947439E+01
     4
 # iter = 40500  time[fs]=40.50000
   C -0.310090265E+01 -0.853517711E-01 -0.570958934E-01
   C  0.308392632E+01 -0.504551651E-01  0.557423629E-01
   H -0.168797506E+02 -0.167824009E+01  0.151081363E+01
   H  0.163035031E+02  0.226366262E+01 -0.138194539E+01
     4
 # iter = 41000  time[fs]=41.00000
   C -0.318082683E+01 -0.862416300E-01 -0.589216562E-01
   C  0.316272648E+01 -0.525929372E-01  0.577183664E-01
   H -0.172748017E+02 -0.171688025E+01  0.154702223E+01
   H  0.166774829E+02  0.231603049E+01 -0.141447482E+01
     4
 # iter = 41500  time[fs]=41.50000
   C -0.326107046E+01 -0.871321868E-01 -0.607570600E-01
   C  0.324184606E+01 -0.547334550E-01  0.597020893E-01
   H -0.176704521E+02 -0.175558782E+01  0.158328773E+01
   H  0.170520385E+02  0.236848317E+01 -0.144706202E+01
     4
 # iter = 42000  time[fs]=42.00000
   C -0.334161745E+01 -0.880227678E-01 -0.626011804E-01
   C  0.332126986E+01 -0.568763131E-01  0.616936293E-01
   H -0.180666728E+02 -0.179435729E+01  0.161961029E+01
   H  0.174271475E+02  0.242101964E+01 -0.147970197E+01
     4
 # iter = 42500  time[fs]=42.50000
   C -0.342245289E+01 -0.889128495E-01 -0.644532479E-01
   C  0.340098366E+01 -0.590212007E-01  0.636929980E-01
   H -0.184634375E+02 -0.183318399E+01  0.165598955E+01
   H  0.178027886E+02  0.247363845E+01 -0.151239045E+01
     4
 # iter = 43000  time[fs]=43.00000
   C -0.350356329E+01 -0.898023715E-01 -0.663129623E-01
   C  0.348097385E+01 -0.611681494E-01  0.656998732E-01
   H -0.188607233E+02 -0.187206563E+01  0.169242310E+01
   H  0.181789397E+02  0.252633616E+01 -0.154512559E+01
     4
 # iter = 43500  time[fs]=43.50000
   C -0.358493620E+01 -0.906914445E-01 -0.681802007E-01
   C  0.356122758E+01 -0.633173075E-01  0.677138245E-01
   H -0.192585096E+02 -0.191100082E+01  0.172890790E+01
   H  0.185555790E+02  0.257910874E+01 -0.157790640E+01
     4
 # iter = 44000  time[fs]=44.00000
   C -0.366655987E+01 -0.915800826E-01 -0.700547502E-01
   C  0.364173291E+01 -0.654687335E-01  0.697345208E-01
   H -0.196567766E+02 -0.194998780E+01  0.176544154E+01
   H  0.189326867E+02  0.263195286E+01 -0.161073151E+01
     4
 # iter = 44500  time[fs]=44.50000
   C -0.374842320E+01 -0.924681958E-01 -0.719363007E-01
   C  0.372247873E+01 -0.676223916E-01  0.717617338E-01
   H -0.200555050E+02 -0.198902438E+01  0.180202228E+01
   H  0.193102447E+02  0.268486594E+01 -0.164359905E+01
     4
 # iter = 45000  time[fs]=45.00000
   C -0.383051574E+01 -0.933556914E-01 -0.738245455E-01
   C  0.380345463E+01 -0.697782326E-01  0.737952575E-01
   H -0.204546766E+02 -0.202810843E+01  0.183864856E+01
   H  0.196882357E+02  0.273784558E+01 -0.167650721E+01
     4
 # iter = 45500  time[fs]=45.50000
   C -0.391282773E+01 -0.942425214E-01 -0.757192299E-01
   C  0.388465082E+01 -0.719362337E-01  0.758348685E-01
   H -0.208542744E+02 -0.206723811E+01  0.187531872E+01
   H  0.200666436E+02  0.279088934E+01 -0.170945446E+01
     4
 # iter = 46000  time[fs]=46.00000
   C -0.399535000E+01 -0.951286656E-01 -0.776201335E-01
   C  0.396605806E+01 -0.740963853E-01  0.778803383E-01
   H -0.212542825E+02 -0.210641179E+01  0.191203109E+01
   H  0.204454526E+02  0.284399482E+01 -0.174243944E+01
     4
 # iter = 46500  time[fs]=46.50000
   C -0.407807394E+01 -0.960141049E-01 -0.795270437E-01
   C  0.404766768E+01 -0.762586720E-01  0.799314531E-01
   H -0.216546859E+02 -0.214562790E+01  0.194878410E+01
   H  0.208246483E+02  0.289715977E+01 -0.177546087E+01
     4
 # iter = 47000  time[fs]=47.00000
   C -0.416099141E+01 -0.968988152E-01 -0.814397492E-01
   C  0.412947150E+01 -0.784230685E-01  0.819880168E-01
   H -0.220554702E+02 -0.218488492E+01  0.198557632E+01
   H  0.212042166E+02  0.295038208E+01 -0.180851745E+01
     4
 # iter = 47500  time[fs]=47.50000
   C -0.424409474E+01 -0.977827736E-01 -0.833580465E-01
   C  0.421146182E+01 -0.805895456E-01  0.840498452E-01
   H -0.224566217E+02 -0.222418139E+01  0.202240640E+01
   H  0.215841445E+02  0.300365979E+01 -0.184160797E+01
     4
 # iter = 48000  time[fs]=48.00000
   C -0.432737668E+01 -0.986659635E-01 -0.852817443E-01
   C  0.429363137E+01 -0.827580745E-01  0.861167614E-01
   H -0.228581277E+02 -0.226351594E+01  0.205927304E+01
   H  0.219644196E+02  0.305699101E+01 -0.187473128E+01
     4
 # iter = 48500  time[fs]=48.50000
   C -0.441083040E+01 -0.995483728E-01 -0.872106620E-01
   C  0.437597328E+01 -0.849286264E-01  0.881885956E-01
   H -0.232599760E+02 -0.230288728E+01  0.209617503E+01
   H  0.223450299E+02  0.311037394E+01 -0.190788628E+01
     4
 # iter = 49000  time[fs]=49.00000
   C -0.449444942E+01 -0.100429993E+00 -0.891446281E-01
   C  0.445848105E+01 -0.871011720E-01  0.902651862E-01
   H -0.236621548E+02 -0.234229416E+01  0.213311117E+01
   H  0.227259642E+02  0.316380687E+01 -0.194107194E+01
     4
 # iter = 49500  time[fs]=49.50000
   C -0.457822764E+01 -0.101310816E+00 -0.910834785E-01
   C  0.454114852E+01 -0.892756808E-01  0.923463793E-01
   H -0.240646533E+02 -0.238173543E+01  0.217008036E+01
   H  0.231072119E+02  0.321728818E+01 -0.197428728E+01
     4
 # iter = 50000  time[fs]=50.00000
   C -0.466215924E+01 -0.102190837E+00 -0.930270564E-01
   C  0.462396988E+01 -0.914521216E-01  0.944320285E-01
   H -0.244674610E+02 -0.242120996E+01  0.220708154E+01
   H  0.234887627E+02  0.327081630E+01 -0.200753135E+01
     4
 # iter = 50500  time[fs]=50.50000
   C -0.474623872E+01 -0.103070054E+00 -0.949752123E-01
   C  0.470693961E+01 -0.936304630E-01  0.965219937E-01
   H -0.248705677E+02 -0.246071669E+01  0.224411370E+01
   H  0.238706069E+02  0.332438978E+01 -0.204080325E+01
     4
 # iter = 51000  time[fs]=51.00000
   C -0.483046087E+01 -0.103948465E+00 -0.969278037E-01
   C  0.479005245E+01 -0.958106735E-01  0.986161415E-01
   H -0.252739641E+02 -0.250025461E+01  0.228117587E+01
   H  0.242527353E+02  0.337800721E+01 -0.207410213E+01
     4
 # iter = 51500  time[fs]=51.50000
   C -0.491482073E+01 -0.104826069E+00 -0.988846945E-01
   C  0.487330344E+01 -0.979927217E-01  0.100714344E+00
   H -0.256776411E+02 -0.253982275E+01  0.231826714E+01
   H  0.246351390E+02  0.343166722E+01 -0.210742716E+01
     4
 # iter = 52000  time[fs]=52.00000
   C -0.499931359E+01 -0.105702868E+00 -0.100845754E+00
   C  0.495668784E+01 -0.100176576E+00  0.102816479E+00
   H -0.260815899E+02 -0.257942019E+01  0.235538662E+01
   H  0.250178097E+02  0.348536856E+01 -0.214077757E+01
     4
 # iter = 52500  time[fs]=52.50000
   C -0.508393496E+01 -0.106578865E+00 -0.102810859E+00
   C  0.504020116E+01 -0.102362205E+00  0.104922430E+00
   H -0.264858024E+02 -0.261904604E+01  0.239253347E+01
   H  0.254007392E+02  0.353910998E+01 -0.217415261E+01
     4
 # iter = 53000  time[fs]=53.00000
   C -0.516868060E+01 -0.107454064E+00 -0.104779888E+00
   C  0.512383911E+01 -0.104549578E+00  0.107032084E+00
   H -0.268902705E+02 -0.265869947E+01  0.242970690E+01
   H  0.257839200E+02  0.359289031E+01 -0.220755157E+01
     4
 # iter = 53500  time[fs]=53.50000
   C -0.525354642E+01 -0.108328468E+00 -0.106752729E+00
   C  0.520759761E+01 -0.106738664E+00  0.109145335E+00
   H -0.272949869E+02 -0.269837966E+01  0.246690613E+01
   H  0.261673445E+02  0.364670843E+01 -0.224097375E+01
     4
 # iter = 54000  time[fs]=54.00000
   C -0.533852857E+01 -0.109202082E+00 -0.108729272E+00
   C  0.529147279E+01 -0.108929433E+00  0.111262081E+00
   H -0.276999442E+02 -0.273808585E+01  0.250413042E+01
   H  0.265510057E+02  0.370056327E+01 -0.227441851E+01
     4
 # iter = 54500  time[fs]=54.50000
   C -0.542362334E+01 -0.110074913E+00 -0.110709413E+00
   C  0.537546092E+01 -0.111121854E+00  0.113382221E+00
   H -0.281051355E+02 -0.277781730E+01  0.254137908E+01
   H  0.269348970E+02  0.375445379E+01 -0.230788520E+01
     4
 # iter = 55000  time[fs]=55.00000
   C -0.550882721E+01 -0.110946966E+00 -0.112693049E+00
   C  0.545955848E+01 -0.113315898E+00  0.115505663E+00
   H -0.285105542E+02 -0.281757329E+01  0.257865143E+01
   H  0.273190119E+02  0.380837900E+01 -0.234137324E+01
     4
 # iter = 55500  time[fs]=55.50000
   C -0.559413682E+01 -0.111818249E+00 -0.114680086E+00
   C  0.554376208E+01 -0.115511535E+00  0.117632316E+00
   H -0.289161939E+02 -0.285735316E+01  0.261594681E+01
   H  0.277033440E+02  0.386233796E+01 -0.237488204E+01
     4
 # iter = 56000  time[fs]=56.00000
   C -0.567954895E+01 -0.112688768E+00 -0.116670431E+00
   C  0.562806849E+01 -0.117708737E+00  0.119762091E+00
   H -0.293220486E+02 -0.289715624E+01  0.265326461E+01
   H  0.280878876E+02  0.391632975E+01 -0.240841104E+01
     4
 # iter = 56500  time[fs]=56.50000
   C -0.576506051E+01 -0.113558531E+00 -0.118663994E+00
   C  0.571247463E+01 -0.119907476E+00  0.121894907E+00
   H -0.297281124E+02 -0.293698192E+01  0.269060422E+01
   H  0.284726369E+02  0.397035350E+01 -0.244195972E+01
     4
 # iter = 57000  time[fs]=57.00000
   C -0.585066858E+01 -0.114427546E+00 -0.120660690E+00
   C  0.579697753E+01 -0.122107724E+00  0.124030681E+00
   H -0.301343796E+02 -0.297682959E+01  0.272796508E+01
   H  0.288575863E+02  0.402440837E+01 -0.247552755E+01
     4
 # iter = 57500  time[fs]=57.50000
   C -0.593637032E+01 -0.115295820E+00 -0.122660438E+00
   C  0.588157438E+01 -0.124309453E+00  0.126169338E+00
   H -0.305408449E+02 -0.301669868E+01  0.276534664E+01
   H  0.292427307E+02  0.407849356E+01 -0.250911404E+01
     4
 # iter = 58000  time[fs]=58.00000
   C -0.602216304E+01 -0.116163363E+00 -0.124663157E+00
   C  0.596626246E+01 -0.126512637E+00  0.128310802E+00
   H -0.309475031E+02 -0.305658863E+01  0.280274835E+01
   H  0.296280649E+02  0.413260828E+01 -0.254271873E+01
     4
 # iter = 58500  time[fs]=58.50000
   C -0.610804414E+01 -0.117030182E+00 -0.126668772E+00
   C  0.605103918E+01 -0.128717250E+00  0.130455003E+00
   H -0.313543492E+02 -0.309649891E+01  0.284016971E+01
   H  0.300135841E+02  0.418675179E+01 -0.257634114E+01
     4
 # iter = 59000  time[fs]=59.00000
   C -0.619401116E+01 -0.117896286E+00 -0.128677209E+00
   C  0.613590203E+01 -0.130923265E+00  0.132601870E+00
   H -0.317613785E+02 -0.313642900E+01  0.287761023E+01
   H  0.303992836E+02  0.424092337E+01 -0.260998085E+01
     4
 # iter = 59500  time[fs]=59.50000
   C -0.628006171E+01 -0.118761684E+00 -0.130688399E+00
   C  0.622084865E+01 -0.133130658E+00  0.134751338E+00
   H -0.321685862E+02 -0.317637841E+01  0.291506943E+01
   H  0.307851588E+02  0.429512232E+01 -0.264363742E+01
     4
 # iter = 60000  time[fs]=60.00000
   C -0.636619349E+01 -0.119626383E+00 -0.132702273E+00
   C  0.630587672E+01 -0.135339404E+00  0.136903342E+00
   H -0.325759680E+02 -0.321634667E+01  0.295254687E+01
   H  0.311712055E+02  0.434934797E+01 -0.267731046E+01
     4
 # iter = 60500  time[fs]=60.50000
   C -0.645240432E+01 -0.120490394E+00 -0.134718765E+00
   C  0.639098405E+01 -0.137549479E+00  0.139057821E+00
   H -0.329835195E+02 -0.325633331E+01  0.299004209E+01
   H  0.315574194E+02  0.440359969E+01 -0.271099955E+01
     4
 # iter = 61000  time[fs]=61.00000
   C -0.653869209E+01 -0.121353725E+00 -0.136737812E+00
   C  0.647616852E+01 -0.139760859E+00  0.141214716E+00
   H -0.333912367E+02 -0.329633789E+01  0.302755467E+01
   H  0.319437964E+02  0.445787685E+01 -0.274470433E+01
     4
 # iter = 61500  time[fs]=61.50000
   C -0.662505476E+01 -0.122216384E+00 -0.138759354E+00
   C  0.656142810E+01 -0.141973521E+00  0.143373968E+00
   H -0.337991156E+02 -0.333635999E+01  0.306508420E+01
   H  0.323303328E+02  0.451217885E+01 -0.277842442E+01
     4
 # iter = 62000  time[fs]=62.00000
   C -0.671149039E+01 -0.123078380E+00 -0.140783331E+00
   C  0.664676082E+01 -0.144187442E+00  0.145535522E+00
   H -0.342071522E+02 -0.337639920E+01  0.310263030E+01
   H  0.327170246E+02  0.456650511E+01 -0.281215948E+01
     4
 # iter = 62500  time[fs]=62.50000
   C -0.679799710E+01 -0.123939722E+00 -0.142809686E+00
   C  0.673216480E+01 -0.146402600E+00  0.147699326E+00
   H -0.346153430E+02 -0.341645510E+01  0.314019257E+01
   H  0.331038684E+02  0.462085508E+01 -0.284590916E+01
     4
 # iter = 63000  time[fs]=63.00000
   C -0.688457307E+01 -0.124800418E+00 -0.144838365E+00
   C  0.681763824E+01 -0.148618974E+00  0.149865326E+00
   H -0.350236843E+02 -0.345652734E+01  0.317777065E+01
   H  0.334908605E+02  0.467522821E+01 -0.287967312E+01
     4
 # iter = 63500  time[fs]=63.50000
   C -0.697121658E+01 -0.125660478E+00 -0.146869315E+00
   C  0.690317938E+01 -0.150836543E+00  0.152033473E+00
   H -0.354321726E+02 -0.349661552E+01  0.321536418E+01
   H  0.338779976E+02  0.472962398E+01 -0.291345105E+01
     4
 # iter = 64000  time[fs]=64.00000
   C -0.705792594E+01 -0.126519910E+00 -0.148902484E+00
   C  0.698878654E+01 -0.153055285E+00  0.154203718E+00
   H -0.358408047E+02 -0.353671929E+01  0.325297282E+01
   H  0.342652765E+02  0.478404188E+01 -0.294724264E+01
     4
 # iter = 64500  time[fs]=64.50000
   C -0.714469954E+01 -0.127378721E+00 -0.150937822E+00
   C  0.707445810E+01 -0.155275180E+00  0.156376016E+00
   H -0.362495773E+02 -0.357683831E+01  0.329059624E+01
   H  0.346526938E+02  0.483848144E+01 -0.298104759E+01
     4
 # iter = 65000  time[fs]=65.00000
   C -0.723153581E+01 -0.128236922E+00 -0.152975283E+00
   C  0.716019249E+01 -0.157496209E+00  0.158550320E+00
   H -0.366584873E+02 -0.361697224E+01  0.332823410E+01
   H  0.350402467E+02  0.489294217E+01 -0.301486561E+01
     4
 # iter = 65500  time[fs]=65.50000
   C -0.731843325E+01 -0.129094519E+00 -0.155014818E+00
   C  0.724598821E+01 -0.159718352E+00  0.160726586E+00
   H -0.370675317E+02 -0.365712075E+01  0.336588611E+01
   H  0.354279321E+02  0.494742362E+01 -0.304869642E+01
     4
 # iter = 66000  time[fs]=66.00000
   C -0.740539041E+01 -0.129951522E+00 -0.157056384E+00
   C  0.733184379E+01 -0.161941590E+00  0.162904773E+00
   H -0.374767075E+02 -0.369728354E+01  0.340355195E+01
   H  0.358157471E+02  0.500192535E+01 -0.308253975E+01
     4
 # iter = 66500  time[fs]=66.50000
   C -0.749240589E+01 -0.130807938E+00 -0.159099937E+00
   C  0.741775784E+01 -0.164165904E+00  0.165084840E+00
   H -0.378860119E+02 -0.373746030E+01  0.344123134E+01
   H  0.362036890E+02  0.505644693E+01 -0.311639533E+01
     4
 # iter = 67000  time[fs]=67.00000
   C -0.757947833E+01 -0.131663776E+00 -0.161145434E+00
   C  0.750372899E+01 -0.166391278E+00  0.167266746E+00
   H -0.382954422E+02 -0.377765073E+01  0.347892399E+01
   H  0.365917552E+02  0.511098794E+01 -0.315026291E+01
     4
 # iter = 67500  time[fs]=67.50000
   C -0.766660642E+01 -0.132519043E+00 -0.163192835E+00
   C  0.758975592E+01 -0.168617692E+00  0.169450452E+00
   H -0.387049957E+02 -0.381785454E+01  0.351662962E+01
   H  0.369799429E+02  0.516554798E+01 -0.318414225E+01
     4
 # iter = 68000  time[fs]=68.00000
   C -0.775378890E+01 -0.133373747E+00 -0.165242100E+00
   C  0.767583738E+01 -0.170845130E+00  0.171635923E+00
   H -0.391146698E+02 -0.385807147E+01  0.355434798E+01
   H  0.373682496E+02  0.522012666E+01 -0.321803310E+01
     4
 # iter = 68500  time[fs]=68.50000
   C -0.784102455E+01 -0.134227896E+00 -0.167293192E+00
   C  0.776197214E+01 -0.173073574E+00  0.173823120E+00
   H -0.395244621E+02 -0.389830124E+01  0.359207880E+01
   H  0.377566730E+02  0.527472360E+01 -0.325193523E+01
     4
 # iter = 69000  time[fs]=69.00000
   C -0.792831218E+01 -0.135081498E+00 -0.169346071E+00
   C  0.784815900E+01 -0.175303008E+00  0.176012010E+00
   H -0.399343702E+02 -0.393854360E+01  0.362982184E+01
   H  0.381452106E+02  0.532933844E+01 -0.328584842E+01
     4
 # iter = 69500  time[fs]=69.50000
   C -0.801565065E+01 -0.135934560E+00 -0.171400704E+00
   C  0.793439682E+01 -0.177533417E+00  0.178202558E+00
   H -0.403443917E+02 -0.397879828E+01  0.366757684E+01
   H  0.385338602E+02  0.538397082E+01 -0.331977244E+01
     4
 # iter = 70000  time[fs]=70.00000
   C -0.810303884E+01 -0.136787089E+00 -0.173457053E+00
   C  0.802068449E+01 -0.179764783E+00  0.180394732E+00
   H -0.407545243E+02 -0.401906506E+01  0.370534358E+01
   H  0.389226194E+02  0.543862039E+01 -0.335370709E+01
     4
 # iter = 70500  time[fs]=70.50000
   C -0.819047570E+01 -0.137639093E+00 -0.175515086E+00
   C  0.810702093E+01 -0.181997092E+00  0.182588498E+00
   H -0.411647658E+02 -0.405934368E+01  0.374312182E+01
   H  0.393114862E+02  0.549328683E+01 -0.338765216E+01
     4
 # iter = 71000  time[fs]=71.00000
   C -0.827796017E+01 -0.138490580E+00 -0.177574770E+00
   C  0.819340510E+01 -0.184230328E+00  0.184783826E+00
   H -0.415751141E+02 -0.409963392E+01  0.378091135E+01
   H  0.397004585E+02  0.554796979E+01 -0.342160745E+01
     4
 # iter = 71500  time[fs]=71.50000
   C -0.836549125E+01 -0.139341556E+00 -0.179636072E+00
   C  0.827983599E+01 -0.186464477E+00  0.186980685E+00
   H -0.419855671E+02 -0.413993555E+01  0.381871194E+01
   H  0.400895341E+02  0.560266897E+01 -0.345557276E+01
     4
 # iter = 72000  time[fs]=72.00000
   C -0.845306797E+01 -0.140192028E+00 -0.181698961E+00
   C  0.836631263E+01 -0.188699524E+00  0.189179046E+00
   H -0.423961227E+02 -0.418024836E+01  0.385652338E+01
   H  0.404787111E+02  0.565738406E+01 -0.348954791E+01
     4
 # iter = 72500  time[fs]=72.50000
   C -0.854068938E+01 -0.141042003E+00 -0.183763407E+00
   C  0.845283406E+01 -0.190935455E+00  0.191378881E+00
   H -0.428067791E+02 -0.422057213E+01  0.389434548E+01
   H  0.408679876E+02  0.571211476E+01 -0.352353270E+01
     4
 # iter = 73000  time[fs]=73.00000
   C -0.862835456E+01 -0.141891487E+00 -0.185829380E+00
   C  0.853939936E+01 -0.193172257E+00  0.193580161E+00
   H -0.432175344E+02 -0.426090667E+01  0.393217804E+01
   H  0.412573617E+02  0.576686077E+01 -0.355752697E+01
     4
 # iter = 73500  time[fs]=73.50000
   C -0.871606262E+01 -0.142740489E+00 -0.187896852E+00
   C  0.862600764E+01 -0.195409914E+00  0.195782861E+00
   H -0.436283865E+02 -0.430125176E+01  0.397002085E+01
   H  0.416468316E+02  0.582162183E+01 -0.359153054E+01
     4
 # iter = 74000  time[fs]=74.00000
   C -0.880381270E+01 -0.143589013E+00 -0.189965796E+00
   C  0.871265804E+01 -0.197648415E+00  0.197986952E+00
   H -0.440393339E+02 -0.434160722E+01  0.400787374E+01
   H  0.420363954E+02  0.587639764E+01 -0.362554324E+01
     4
 # iter = 74500  time[fs]=74.50000
   C -0.889160396E+01 -0.144437066E+00 -0.192036183E+00
   C  0.879934971E+01 -0.199887747E+00  0.200192410E+00
   H -0.444503746E+02 -0.438197285E+01  0.404573652E+01
   H  0.424260516E+02  0.593118794E+01 -0.365956490E+01
     4
 # iter = 75000  time[fs]=75.00000
   C -0.897943559E+01 -0.145284656E+00 -0.194107988E+00
   C  0.888608184E+01 -0.202127896E+00  0.202399210E+00
   H -0.448615071E+02 -0.442234848E+01  0.408360901E+01
   H  0.428157983E+02  0.598599248E+01 -0.369359536E+01
     4
 # iter = 75500  time[fs]=75.50000
   C -0.906730679E+01 -0.146131787E+00 -0.196181185E+00
   C  0.897285363E+01 -0.204368850E+00  0.204607328E+00
   H -0.452727295E+02 -0.446273391E+01  0.412149105E+01
   H  0.432056340E+02  0.604081100E+01 -0.372763447E+01
     4
 # iter = 76000  time[fs]=76.00000
   C -0.915521681E+01 -0.146978467E+00 -0.198255748E+00
   C  0.905966433E+01 -0.206610597E+00  0.206816739E+00
   H -0.456840404E+02 -0.450312899E+01  0.415938245E+01
   H  0.435955571E+02  0.609564325E+01 -0.376168208E+01
     4
 # iter = 76500  time[fs]=76.50000
   C -0.924316488E+01 -0.147824701E+00 -0.200331655E+00
   C  0.914651317E+01 -0.208853126E+00  0.209027422E+00
   H -0.460954382E+02 -0.454353353E+01  0.419728306E+01
   H  0.439855660E+02  0.615048899E+01 -0.379573804E+01
     4
 # iter = 77000  time[fs]=77.00000
   C -0.933115030E+01 -0.148670495E+00 -0.202408881E+00
   C  0.923339943E+01 -0.211096424E+00  0.211239353E+00
   H -0.465069213E+02 -0.458394738E+01  0.423519273E+01
   H  0.443756593E+02  0.620534799E+01 -0.382980220E+01
     4
 # iter = 77500  time[fs]=77.50000
   C -0.941917234E+01 -0.149515854E+00 -0.204487403E+00
   C  0.932032241E+01 -0.213340480E+00  0.213452512E+00
   H -0.469184882E+02 -0.462437037E+01  0.427311128E+01
   H  0.447658354E+02  0.626022002E+01 -0.386387443E+01
     4
 # iter = 78000  time[fs]=78.00000
   C -0.950723034E+01 -0.150360786E+00 -0.206567198E+00
   C  0.940728142E+01 -0.215585283E+00  0.215666876E+00
   H -0.473301375E+02 -0.466480235E+01  0.431103857E+01
   H  0.451560929E+02  0.631510486E+01 -0.389795458E+01
     4
 # iter = 78500  time[fs]=78.50000
   C -0.959532362E+01 -0.151205295E+00 -0.208648245E+00
   C  0.949427578E+01 -0.217830822E+00  0.217882426E+00
   H -0.477418678E+02 -0.470524315E+01  0.434897446E+01
   H  0.455464304E+02  0.637000229E+01 -0.393204252E+01
     4
 # iter = 79000  time[fs]=79.00000
   C -0.968345153E+01 -0.152049386E+00 -0.210730523E+00
   C  0.958130486E+01 -0.220077086E+00  0.220099140E+00
   H -0.481536776E+02 -0.474569265E+01  0.438691880E+01
   H  0.459368466E+02  0.642491210E+01 -0.396613813E+01
     4
 # iter = 79500  time[fs]=79.50000
   C -0.977161344E+01 -0.152893066E+00 -0.212814010E+00
   C  0.966836801E+01 -0.222324064E+00  0.222316999E+00
   H -0.485655657E+02 -0.478615067E+01  0.442487144E+01
   H  0.463273402E+02  0.647983408E+01 -0.400024127E+01
     4
 # iter = 80000  time[fs]=80.00000
   C -0.985980874E+01 -0.153736339E+00 -0.214898687E+00
   C  0.975546463E+01 -0.224571748E+00  0.224535985E+00
   H -0.489775308E+02 -0.482661710E+01  0.446283226E+01
   H  0.467179098E+02  0.653476803E+01 -0.403435183E+01
