     4
 # iter = 25000  time[fs]=25.00000
   C -0.906817070E+00  0.397298885E-02 -0.248821980E-01
   C  0.104218005E+01 -0.224634337E-02  0.204265289E-01
   H -0.520236435E+01  0.338089543E+00 -0.384016172E+00
   H  0.533451661E+01 -0.908467468E-01  0.537631241E+00
     4
 # iter = 25500  time[fs]=25.50000
   C -0.947826488E+00  0.140401265E-02 -0.258524406E-01
   C  0.108547580E+01 -0.381184555E-02  0.179409033E-01
   H -0.553873837E+01  0.350599732E+00 -0.417232382E+00
   H  0.564614556E+01 -0.105890109E+00  0.561784984E+00
     4
 # iter = 26000  time[fs]=26.00000
   C -0.992838582E+00 -0.209948109E-02 -0.278045941E-01
   C  0.113082161E+01 -0.639732827E-02  0.144871999E-01
   H -0.588586552E+01  0.358065167E+00 -0.456273406E+00
   H  0.595793434E+01 -0.126459510E+00  0.581138634E+00
     4
 # iter = 26500  time[fs]=26.50000
   C -0.103885366E+01 -0.378522552E-02 -0.279774716E-01
   C  0.118097656E+01 -0.698981653E-02  0.130681101E-01
   H -0.622704081E+01  0.376523468E+00 -0.485010594E+00
   H  0.628539569E+01 -0.136452473E+00  0.611720002E+00
     4
 # iter = 27000  time[fs]=27.00000
   C -0.108550072E+01 -0.351729319E-02 -0.262272588E-01
   C  0.123585510E+01 -0.543821120E-02  0.138262207E-01
   H -0.656095754E+01  0.406735787E+00 -0.502608599E+00
   H  0.662880932E+01 -0.135062479E+00  0.654268918E+00
     4
 # iter = 27500  time[fs]=27.50000
   C -0.113460752E+01 -0.334363396E-02 -0.245950460E-01
   C  0.129300112E+01 -0.398032970E-02  0.145167577E-01
   H -0.689915925E+01  0.436709582E+00 -0.520999044E+00
   H  0.697574043E+01 -0.134252554E+00  0.696762602E+00
     4
 # iter = 28000  time[fs]=28.00000
   C -0.118742080E+01 -0.471322294E-02 -0.245241001E-01
   C  0.135063066E+01 -0.419939382E-02  0.135506912E-01
   H -0.724974747E+01  0.457955447E+00 -0.548618754E+00
   H  0.731732044E+01 -0.142485373E+00  0.730686996E+00
     4
 # iter = 28500  time[fs]=28.50000
   C -0.124317165E+01 -0.704066080E-02 -0.254244203E-01
   C  0.140920112E+01 -0.545409724E-02  0.115644060E-01
   H -0.760897567E+01  0.473873805E+00 -0.582020351E+00
   H  0.765663981E+01 -0.156329497E+00  0.759430423E+00
     4
 # iter = 29000  time[fs]=29.00000
   C -0.130025754E+01 -0.888966659E-02 -0.258560069E-01
   C  0.147011658E+01 -0.617289086E-02  0.101253418E-01
   H -0.796816304E+01  0.492839094E+00 -0.612787810E+00
   H  0.800181192E+01 -0.167379532E+00  0.791361380E+00
     4
 # iter = 29500  time[fs]=29.50000
   C -0.135803127E+01 -0.976403173E-02 -0.253195848E-01
   C  0.153376862E+01 -0.581268130E-02  0.977325657E-02
   H -0.832416215E+01  0.517733392E+00 -0.638003048E+00
   H  0.835548354E+01 -0.172729515E+00  0.829353050E+00
     4
 # iter = 30000  time[fs]=30.00000
   C -0.141705083E+01 -0.103588687E-01 -0.245077238E-01
   C  0.159926042E+01 -0.513356313E-02  0.974538816E-02
   H -0.868082285E+01  0.544477903E+00 -0.661713808E+00
   H  0.871335877E+01 -0.176441994E+00  0.869313333E+00
     4
 # iter = 30500  time[fs]=30.50000
   C -0.147796765E+01 -0.114495615E-01 -0.241937367E-01
   C  0.166562050E+01 -0.498357876E-02  0.919154315E-02
   H -0.904249018E+01  0.568526430E+00 -0.688438994E+00
   H  0.907069738E+01 -0.183049471E+00  0.906683390E+00
     4
 # iter = 31000  time[fs]=31.00000
   C -0.154068050E+01 -0.130465956E-01 -0.243864584E-01
   C  0.173272581E+01 -0.537428576E-02  0.809840666E-02
   H -0.940905795E+01  0.589804995E+00 -0.718228122E+00
   H  0.942725765E+01 -0.192610910E+00  0.941381076E+00
     4
 # iter = 31500  time[fs]=31.50000
   C -0.160458236E+01 -0.146436484E-01 -0.245782605E-01
   C  0.180102924E+01 -0.575207965E-02  0.701815028E-02
   H -0.977741640E+01  0.611261444E+00 -0.748111335E+00
   H  0.978584157E+01 -0.202162907E+00  0.976349312E+00
     4
 # iter = 32000  time[fs]=32.00000
   C -0.166926823E+01 -0.159266639E-01 -0.244540477E-01
   C  0.187078303E+01 -0.577372759E-02  0.629285778E-02
   H -0.101455960E+02  0.634720570E+00 -0.776244155E+00
   H  0.101481427E+02 -0.209867318E+00  0.101340787E+01
     4
 # iter = 32500  time[fs]=32.50000
   C -0.173478827E+01 -0.170281554E-01 -0.241455025E-01
   C  0.194175975E+01 -0.558449108E-02  0.577636045E-02
   H -0.105142525E+02  0.659397605E+00 -0.803393778E+00
   H  0.105132555E+02 -0.216498652E+00  0.105176558E+01
     4
 # iter = 33000  time[fs]=33.00000
   C -0.180134162E+01 -0.182218154E-01 -0.239256616E-01
   C  0.201358535E+01 -0.548408060E-02  0.516823496E-02
   H -0.108848793E+02  0.683683396E+00 -0.831153588E+00
   H  0.108794612E+02 -0.223657460E+00  0.108980683E+01
     4
 # iter = 33500  time[fs]=33.50000
   C -0.186894060E+01 -0.195875012E-01 -0.238738750E-01
   C  0.208610475E+01 -0.556021166E-02  0.438020508E-02
   H -0.112578467E+02  0.707102700E+00 -0.859984545E+00
   H  0.112461859E+02 -0.231810497E+00  0.112705119E+01
     4
 # iter = 34000  time[fs]=34.00000
   C -0.193740663E+01 -0.210078952E-01 -0.238724410E-01
   C  0.215938476E+01 -0.568494502E-02  0.353977196E-02
   H -0.116323816E+02  0.730333580E+00 -0.889195595E+00
   H  0.116140196E+02 -0.240271210E+00  0.116417290E+01
     4
 # iter = 34500  time[fs]=34.50000
   C -0.200656935E+01 -0.223682942E-01 -0.238063704E-01
   C  0.223349489E+01 -0.573320776E-02  0.277167290E-02
   H -0.120077341E+02  0.754039364E+00 -0.918111582E+00
   H  0.119835455E+02 -0.248368504E+00  0.120183180E+01
     4
 # iter = 35000  time[fs]=35.00000
   C -0.207637958E+01 -0.236702158E-01 -0.236769727E-01
   C  0.230838254E+01 -0.570704828E-02  0.207360966E-02
   H -0.123838409E+02  0.778204475E+00 -0.946737315E+00
   H  0.123546743E+02 -0.256111320E+00  0.124000870E+01
     4
 # iter = 35500  time[fs]=35.50000
   C -0.214685615E+01 -0.249786942E-01 -0.235491373E-01
   C  0.238393011E+01 -0.567798420E-02  0.137388479E-02
   H -0.127610167E+02  0.802442512E+00 -0.975449358E+00
   H  0.127269521E+02 -0.263880249E+00  0.127831358E+01
     4
 # iter = 36000  time[fs]=36.00000
   C -0.221799210E+01 -0.263289847E-01 -0.234580270E-01
   C  0.246005658E+01 -0.568495248E-02  0.633437543E-03
   H -0.131394074E+02  0.826541635E+00 -0.100445054E+01
   H  0.131001051E+02 -0.271881707E+00  0.131653139E+01
     4
 # iter = 36500  time[fs]=36.50000
   C -0.228973297E+01 -0.277052299E-01 -0.233877345E-01
   C  0.253674043E+01 -0.571097319E-02 -0.130830880E-03
   H -0.135188653E+02  0.850589226E+00 -0.103364519E+01
   H  0.134741641E+02 -0.280023119E+00  0.135474677E+01
     4
 # iter = 37000  time[fs]=37.00000
   C -0.236201578E+01 -0.290798263E-01 -0.233106409E-01
   C  0.261397623E+01 -0.572620742E-02 -0.889123561E-03
   H -0.138991784E+02  0.874741706E+00 -0.106286925E+01
   H  0.138492335E+02 -0.288143231E+00  0.139311365E+01
     4
 # iter = 37500  time[fs]=37.50000
   C -0.243480105E+01 -0.304457677E-01 -0.232197519E-01
   C  0.269173894E+01 -0.572333373E-02 -0.163413097E-02
   H -0.142802591E+02  0.899035413E+00 -0.109207936E+01
   H  0.142253015E+02 -0.296201319E+00  0.143166601E+01
     4
 # iter = 38000  time[fs]=38.00000
   C -0.250806895E+01 -0.318130824E-01 -0.231251291E-01
   C  0.276998751E+01 -0.571365010E-02 -0.237713871E-02
   H -0.146621229E+02  0.923407408E+00 -0.112133193E+01
   H  0.146022607E+02 -0.304256334E+00  0.147033864E+01
     4
 # iter = 38500  time[fs]=38.50000
   C -0.258180060E+01 -0.331903754E-01 -0.230354287E-01
   C  0.284868480E+01 -0.570688478E-02 -0.312784320E-02
   H -0.150447806E+02  0.947803360E+00 -0.115067528E+01
   H  0.149800156E+02 -0.312358908E+00  0.150907511E+01
     4
 # iter = 39000  time[fs]=39.00000
   C -0.265597008E+01 -0.345770802E-01 -0.229501487E-01
   C  0.292780586E+01 -0.570272099E-02 -0.388588046E-02
   H -0.154281918E+02  0.972222824E+00 -0.118010426E+01
   H  0.153585275E+02 -0.320506021E+00  0.154787306E+01
     4
 # iter = 39500  time[fs]=39.50000
   C -0.273054936E+01 -0.359685928E-01 -0.228647604E-01
   C  0.300733212E+01 -0.569641262E-02 -0.464644504E-02
   H -0.158122956E+02  0.996689198E+00 -0.120959026E+01
   H  0.157377844E+02 -0.328671030E+00  0.158675412E+01
     4
 # iter = 40000  time[fs]=40.00000
   C -0.280551448E+01 -0.373626182E-01 -0.227770526E-01
   C  0.308724419E+01 -0.568572675E-02 -0.540723512E-02
   H -0.161970467E+02  0.102121260E+01 -0.123911833E+01
   H  0.161177634E+02 -0.336840804E+00  0.162572676E+01
     4
 # iter = 40500  time[fs]=40.50000
   C -0.288084612E+01 -0.387599245E-01 -0.226878827E-01
   C  0.316752099E+01 -0.567176822E-02 -0.616927930E-02
   H -0.165824201E+02  0.104578545E+01 -0.126869154E+01
   H  0.164984262E+02 -0.345020129E+00  0.166478183E+01
     4
 # iter = 41000  time[fs]=41.00000
   C -0.295652691E+01 -0.401617694E-01 -0.225986024E-01
   C  0.324814232E+01 -0.565616556E-02 -0.693412432E-02
   H -0.169683955E+02  0.107039749E+01 -0.129831593E+01
   H  0.168797337E+02 -0.353216652E+00  0.170390763E+01
     4
 # iter = 41500  time[fs]=41.50000
   C -0.303253968E+01 -0.415682899E-01 -0.225094459E-01
   C  0.332909054E+01 -0.563930999E-02 -0.770207557E-02
   H -0.173549480E+02  0.109504518E+01 -0.132799108E+01
   H  0.172616555E+02 -0.361431456E+00  0.174309926E+01
     4
 # iter = 42000  time[fs]=42.00000
   C -0.310886770E+01 -0.429788648E-01 -0.224198910E-01
   C  0.341035006E+01 -0.562075220E-02 -0.847259509E-02
   H -0.177420499E+02  0.111972960E+01 -0.135771224E+01
   H  0.176441677E+02 -0.369661183E+00  0.178235651E+01
     4
 # iter = 42500  time[fs]=42.50000
   C -0.318549545E+01 -0.443929932E-01 -0.223295369E-01
   C  0.349190626E+01 -0.560016396E-02 -0.924526418E-02
   H -0.181296756E+02  0.114445123E+01 -0.138747544E+01
   H  0.180272471E+02 -0.377903170E+00  0.182167869E+01
     4
 # iter = 43000  time[fs]=43.00000
   C -0.326240881E+01 -0.458105592E-01 -0.222383680E-01
   C  0.357374510E+01 -0.557762795E-02 -0.100200740E-01
   H -0.185178033E+02  0.116920849E+01 -0.141727903E+01
   H  0.184108700E+02 -0.386157001E+00  0.186106306E+01
     4
 # iter = 43500  time[fs]=43.50000
   C -0.333959473E+01 -0.472315875E-01 -0.221465089E-01
   C  0.365585333E+01 -0.555337094E-02 -0.107971596E-01
   H -0.189064133E+02  0.119399908E+01 -0.144712224E+01
   H  0.187950133E+02 -0.394423073E+00  0.190050627E+01
     4
 # iter = 44000  time[fs]=44.00000
   C -0.341704090E+01 -0.486560193E-01 -0.220540001E-01
   C  0.373821865E+01 -0.552751940E-02 -0.115765558E-01
   H -0.192954866E+02  0.121882129E+01 -0.147700390E+01
   H  0.191796558E+02 -0.402701287E+00  0.194000564E+01
     4
 # iter = 44500  time[fs]=44.50000
   C -0.349473573E+01 -0.500837070E-01 -0.219607921E-01
   C  0.382082961E+01 -0.550009361E-02 -0.123581918E-01
   H -0.196850046E+02  0.124367406E+01 -0.150692234E+01
   H  0.195647780E+02 -0.410991016E+00  0.197955915E+01
     4
 # iter = 45000  time[fs]=45.00000
   C -0.357266831E+01 -0.515144994E-01 -0.218668302E-01
   C  0.390367553E+01 -0.547110181E-02 -0.131419859E-01
   H -0.200749501E+02  0.126855647E+01 -0.153687594E+01
   H  0.199503616E+02 -0.419291604E+00  0.201916497E+01
     4
 # iter = 45500  time[fs]=45.50000
   C -0.365082845E+01 -0.529482826E-01 -0.217720954E-01
   C  0.398674630E+01 -0.544058531E-02 -0.139278908E-01
   H -0.204653065E+02  0.129346744E+01 -0.156686335E+01
   H  0.203363891E+02 -0.427602607E+00  0.205882122E+01
     4
 # iter = 46000  time[fs]=46.00000
   C -0.372920659E+01 -0.543849662E-01 -0.216765902E-01
   C  0.407003245E+01 -0.540860323E-02 -0.147158782E-01
   H -0.208560587E+02  0.131840588E+01 -0.159688338E+01
   H  0.207228439E+02 -0.435923707E+00  0.209852598E+01
     4
 # iter = 46500  time[fs]=46.50000
   C -0.380779371E+01 -0.558244605E-01 -0.215803159E-01
   C  0.415352504E+01 -0.537520882E-02 -0.155059160E-01
   H -0.212471922E+02  0.134337074E+01 -0.162693489E+01
   H  0.211097104E+02 -0.444254587E+00  0.213827747E+01
     4
 # iter = 47000  time[fs]=47.00000
   C -0.388658134E+01 -0.572666726E-01 -0.214832683E-01
   C  0.423721569E+01 -0.534044474E-02 -0.162979629E-01
   H -0.216386931E+02  0.136836111E+01 -0.165701677E+01
   H  0.214969736E+02 -0.452594899E+00  0.217807404E+01
     4
 # iter = 47500  time[fs]=47.50000
   C -0.396556146E+01 -0.587115112E-01 -0.213854428E-01
   C  0.432109647E+01 -0.530434940E-02 -0.170919754E-01
   H -0.220305485E+02  0.139337610E+01 -0.168712794E+01
   H  0.218846197E+02 -0.460944300E+00  0.221791416E+01
     4
 # iter = 48000  time[fs]=48.00000
   C -0.404472654E+01 -0.601588912E-01 -0.212868387E-01
   C  0.440515992E+01 -0.526696155E-02 -0.178879124E-01
   H -0.224227460E+02  0.141841489E+01 -0.171726739E+01
   H  0.222726353E+02 -0.469302477E+00  0.225779634E+01
     4
 # iter = 48500  time[fs]=48.50000
   C -0.412406943E+01 -0.616087326E-01 -0.211874580E-01
   C  0.448939898E+01 -0.522832005E-02 -0.186857347E-01
   H -0.228152738E+02  0.144347667E+01 -0.174743417E+01
   H  0.226610077E+02 -0.477669136E+00  0.229771916E+01
     4
 # iter = 49000  time[fs]=49.00000
   C -0.420358341E+01 -0.630609590E-01 -0.210873043E-01
   C  0.457380699E+01 -0.518846232E-02 -0.194854038E-01
   H -0.232081208E+02  0.146856067E+01 -0.177762737E+01
   H  0.230497249E+02 -0.486044003E+00  0.233768129E+01
     4
 # iter = 49500  time[fs]=49.50000
   C -0.428326209E+01 -0.645154970E-01 -0.209863818E-01
   C  0.465837764E+01 -0.514742383E-02 -0.202868813E-01
   H -0.236012764E+02  0.149366619E+01 -0.180784612E+01
   H  0.234387755E+02 -0.494426811E+00  0.237768144E+01
     4
 # iter = 50000  time[fs]=50.00000
   C -0.436309944E+01 -0.659722764E-01 -0.208846955E-01
   C  0.474310494E+01 -0.510523843E-02 -0.210901289E-01
   H -0.239947305E+02  0.151879252E+01 -0.183808961E+01
   H  0.238281486E+02 -0.502817305E+00  0.241771840E+01
     4
 # iter = 50500  time[fs]=50.50000
   C -0.444308971E+01 -0.674312297E-01 -0.207822512E-01
   C  0.482798325E+01 -0.506193869E-02 -0.218951095E-01
   H -0.243884735E+02  0.154393901E+01 -0.186835705E+01
   H  0.242178339E+02 -0.511215245E+00  0.245779102E+01
     4
 # iter = 51000  time[fs]=51.00000
   C -0.452322750E+01 -0.688922925E-01 -0.206790557E-01
   C  0.491300718E+01 -0.501755604E-02 -0.227017864E-01
   H -0.247824963E+02  0.156910504E+01 -0.189864769E+01
   H  0.246078215E+02 -0.519620400E+00  0.249789818E+01
     4
 # iter = 51500  time[fs]=51.50000
   C -0.460350762E+01 -0.703554033E-01 -0.205751162E-01
   C  0.499817163E+01 -0.497212071E-02 -0.235101240E-01
   H -0.251767901E+02  0.159429001E+01 -0.192896083E+01
   H  0.249981019E+02 -0.528032549E+00  0.253803882E+01
     4
 # iter = 52000  time[fs]=52.00000
   C -0.468392520E+01 -0.718205029E-01 -0.204704404E-01
   C  0.508347177E+01 -0.492566176E-02 -0.243200871E-01
   H -0.255713465E+02  0.161949334E+01 -0.195929577E+01
   H  0.253886662E+02 -0.536451482E+00  0.257821195E+01
     4
 # iter = 52500  time[fs]=52.50000
   C -0.476447556E+01 -0.732875346E-01 -0.203650366E-01
   C  0.516890298E+01 -0.487820714E-02 -0.251316416E-01
   H -0.259661577E+02  0.164471450E+01 -0.198965187E+01
   H  0.257795058E+02 -0.544876998E+00  0.261841660E+01
     4
 # iter = 53000  time[fs]=53.00000
   C -0.484515428E+01 -0.747564441E-01 -0.202589132E-01
   C  0.525446088E+01 -0.482978374E-02 -0.259447539E-01
   H -0.263612160E+02  0.166995295E+01 -0.202002850E+01
   H  0.261706125E+02 -0.553308906E+00  0.265865184E+01
     4
 # iter = 53500  time[fs]=53.50000
   C -0.492595713E+01 -0.762271792E-01 -0.201520790E-01
   C  0.534014130E+01 -0.478041746E-02 -0.267593913E-01
   H -0.267565141E+02  0.169520820E+01 -0.205042508E+01
   H  0.265619784E+02 -0.561747021E+00  0.269891679E+01
     4
 # iter = 54000  time[fs]=54.00000
   C -0.500688008E+01 -0.776996898E-01 -0.200445429E-01
   C  0.542594025E+01 -0.473013322E-02 -0.275755219E-01
   H -0.271520451E+02  0.172047977E+01 -0.208084102E+01
   H  0.269535960E+02 -0.570191166E+00  0.273921061E+01
     4
 # iter = 54500  time[fs]=54.50000
   C -0.508791930E+01 -0.791739277E-01 -0.199363143E-01
   C  0.551185395E+01 -0.467895506E-02 -0.283931146E-01
   H -0.275478023E+02  0.174576721E+01 -0.211127579E+01
   H  0.273454581E+02 -0.578641174E+00  0.277953248E+01
     4
 # iter = 55000  time[fs]=55.00000
   C -0.516907114E+01 -0.806498467E-01 -0.198274023E-01
   C  0.559787877E+01 -0.462690611E-02 -0.292121389E-01
   H -0.279437794E+02  0.177107007E+01 -0.214172885E+01
   H  0.277375579E+02 -0.587096881E+00  0.281988164E+01
     4
 # iter = 55500  time[fs]=55.50000
   C -0.525033209E+01 -0.821274023E-01 -0.197178164E-01
   C  0.568401126E+01 -0.457400866E-02 -0.300325653E-01
   H -0.283399701E+02  0.179638793E+01 -0.217219972E+01
   H  0.281298887E+02 -0.595558133E+00  0.286025733E+01
     4
 # iter = 56000  time[fs]=56.00000
   C -0.533169881E+01 -0.836065517E-01 -0.196075660E-01
   C  0.577024813E+01 -0.452028423E-02 -0.308543648E-01
   H -0.287363687E+02  0.182172039E+01 -0.220268790E+01
   H  0.285224441E+02 -0.604024780E+00  0.290065884E+01
     4
 # iter = 56500  time[fs]=56.50000
   C -0.541316811E+01 -0.850872538E-01 -0.194966606E-01
   C  0.585658621E+01 -0.446575355E-02 -0.316775093E-01
   H -0.291329695E+02  0.184706706E+01 -0.223319293E+01
   H  0.289152181E+02 -0.612496679E+00  0.294108548E+01
     4
 # iter = 57000  time[fs]=57.00000
   C -0.549473693E+01 -0.865694688E-01 -0.193851096E-01
   C  0.594302248E+01 -0.441043662E-02 -0.325019713E-01
   H -0.295297670E+02  0.187242756E+01 -0.226371437E+01
   H  0.293082049E+02 -0.620973693E+00  0.298153659E+01
     4
 # iter = 57500  time[fs]=57.50000
   C -0.557640236E+01 -0.880531587E-01 -0.192729226E-01
   C  0.602955406E+01 -0.435435276E-02 -0.333277242E-01
   H -0.299267562E+02  0.189780154E+01 -0.229425179E+01
   H  0.297013988E+02 -0.629455689E+00  0.302201154E+01
     4
 # iter = 58000  time[fs]=58.00000
   C -0.565816158E+01 -0.895382866E-01 -0.191601088E-01
   C  0.611617817E+01 -0.429752059E-02 -0.341547418E-01
   H -0.303239319E+02  0.192318865E+01 -0.232480478E+01
   H  0.300947944E+02 -0.637942539E+00  0.306250971E+01
     4
 # iter = 58500  time[fs]=58.50000
   C -0.574001192E+01 -0.910248170E-01 -0.190466778E-01
   C  0.620289218E+01 -0.423995811E-02 -0.349829989E-01
   H -0.307212894E+02  0.194858856E+01 -0.235537294E+01
   H  0.304883865E+02 -0.646434121E+00  0.310303052E+01
     4
 # iter = 59000  time[fs]=59.00000
   C -0.582195081E+01 -0.925127157E-01 -0.189326387E-01
   C  0.628969353E+01 -0.418168270E-02 -0.358124706E-01
   H -0.311188240E+02  0.197400095E+01 -0.238595590E+01
   H  0.308821701E+02 -0.654930317E+00  0.314357341E+01
     4
 # iter = 59500  time[fs]=59.50000
   C -0.590397577E+01 -0.940019498E-01 -0.188180009E-01
   C  0.637657979E+01 -0.412271116E-02 -0.366431330E-01
   H -0.315165313E+02  0.199942551E+01 -0.241655328E+01
   H  0.312761405E+02 -0.663431014E+00  0.318413783E+01
     4
 # iter = 60000  time[fs]=60.00000
   C -0.598608444E+01 -0.954924874E-01 -0.187027733E-01
   C  0.646354861E+01 -0.406305971E-02 -0.374749626E-01
   H -0.319144070E+02  0.202486194E+01 -0.244716473E+01
   H  0.316702929E+02 -0.671936101E+00  0.322472325E+01
     4
 # iter = 60500  time[fs]=60.50000
   C -0.606827454E+01 -0.969842978E-01 -0.185869651E-01
   C  0.655059775E+01 -0.400274405E-02 -0.383079366E-01
   H -0.323124470E+02  0.205030996E+01 -0.247778992E+01
   H  0.320646230E+02 -0.680445474E+00  0.326532916E+01
     4
 # iter = 61000  time[fs]=61.00000
   C -0.615054389E+01 -0.984773512E-01 -0.184705851E-01
   C  0.663772506E+01 -0.394177935E-02 -0.391420327E-01
   H -0.327106473E+02  0.207576929E+01 -0.250842851E+01
   H  0.324591264E+02 -0.688959030E+00  0.330595509E+01
     4
 # iter = 61500  time[fs]=61.50000
   C -0.623289038E+01 -0.999716190E-01 -0.183536422E-01
   C  0.672492845E+01 -0.388018030E-02 -0.399772292E-01
   H -0.331090041E+02  0.210123967E+01 -0.253908019E+01
   H  0.328537989E+02 -0.697476670E+00  0.334660055E+01
     4
 # iter = 62000  time[fs]=62.00000
   C -0.631531199E+01 -0.101467073E+00 -0.182361450E-01
   C  0.681220593E+01 -0.381796110E-02 -0.408135051E-01
   H -0.335075136E+02  0.212672084E+01 -0.256974465E+01
   H  0.332486366E+02 -0.705998301E+00  0.338726509E+01
     4
 # iter = 62500  time[fs]=62.50000
   C -0.639780679E+01 -0.102963688E+00 -0.181181021E-01
   C  0.689955558E+01 -0.375513551E-02 -0.416508399E-01
   H -0.339061722E+02  0.215221254E+01 -0.260042160E+01
   H  0.336436356E+02 -0.714523830E+00  0.342794828E+01
     4
 # iter = 63000  time[fs]=63.00000
   C -0.648037290E+01 -0.104461436E+00 -0.179995219E-01
   C  0.698697555E+01 -0.369171683E-02 -0.424892133E-01
   H -0.343049765E+02  0.217771455E+01 -0.263111074E+01
   H  0.340387922E+02 -0.723053169E+00  0.346864968E+01
     4
 # iter = 63500  time[fs]=63.50000
   C -0.656300851E+01 -0.105960293E+00 -0.178804127E-01
   C  0.707446406E+01 -0.362771796E-02 -0.433286061E-01
   H -0.347039233E+02  0.220322662E+01 -0.266181182E+01
   H  0.344341026E+02 -0.731586231E+00  0.350936890E+01
     4
 # iter = 64000  time[fs]=64.00000
   C -0.664571190E+01 -0.107460235E+00 -0.177607826E-01
   C  0.716201941E+01 -0.356315139E-02 -0.441689990E-01
   H -0.351030091E+02  0.222874854E+01 -0.269252455E+01
   H  0.348295636E+02 -0.740122935E+00  0.355010552E+01
     4
 # iter = 64500  time[fs]=64.50000
   C -0.672848138E+01 -0.108961237E+00 -0.176406398E-01
   C  0.724963993E+01 -0.349802923E-02 -0.450103737E-01
   H -0.355022311E+02  0.225428008E+01 -0.272324868E+01
   H  0.352251717E+02 -0.748663201E+00  0.359085917E+01
     4
 # iter = 65000  time[fs]=65.00000
   C -0.681131535E+01 -0.110463278E+00 -0.175199921E-01
   C  0.733732404E+01 -0.343236322E-02 -0.458527121E-01
   H -0.359015860E+02  0.227982104E+01 -0.275398396E+01
   H  0.356209235E+02 -0.757206950E+00  0.363162948E+01
     4
 # iter = 65500  time[fs]=65.50000
   C -0.689421225E+01 -0.111966336E+00 -0.173988473E-01
   C  0.742507019E+01 -0.336616472E-02 -0.466959965E-01
   H -0.363010710E+02  0.230537122E+01 -0.278473015E+01
   H  0.360168161E+02 -0.765754108E+00  0.367241609E+01
     4
 # iter = 66000  time[fs]=66.00000
   C -0.697717058E+01 -0.113470388E+00 -0.172772130E-01
   C  0.751287691E+01 -0.329944479E-02 -0.475402098E-01
   H -0.367006833E+02  0.233093041E+01 -0.281548702E+01
   H  0.364128463E+02 -0.774304602E+00  0.371321865E+01
     4
 # iter = 66500  time[fs]=66.50000
   C -0.706018889E+01 -0.114975414E+00 -0.171550968E-01
   C  0.760074276E+01 -0.323221411E-02 -0.483853353E-01
   H -0.371004202E+02  0.235649843E+01 -0.284625434E+01
   H  0.368090112E+02 -0.782858362E+00  0.375403682E+01
     4
 # iter = 67000  time[fs]=67.00000
   C -0.714326577E+01 -0.116481395E+00 -0.170325059E-01
   C  0.768866636E+01 -0.316448308E-02 -0.492313566E-01
   H -0.375002790E+02  0.238207509E+01 -0.287703190E+01
   H  0.372053079E+02 -0.791415320E+00  0.379487028E+01
     4
 # iter = 67500  time[fs]=67.50000
   C -0.722639988E+01 -0.117988310E+00 -0.169094477E-01
   C  0.777664639E+01 -0.309626178E-02 -0.500782580E-01
   H -0.379002571E+02  0.240766022E+01 -0.290781947E+01
   H  0.376017337E+02 -0.799975409E+00  0.383571870E+01
     4
 # iter = 68000  time[fs]=68.00000
   C -0.730958991E+01 -0.119496140E+00 -0.167859292E-01
   C  0.786468153E+01 -0.302756001E-02 -0.509260238E-01
   H -0.383003520E+02  0.243325363E+01 -0.293861685E+01
   H  0.379982858E+02 -0.808538566E+00  0.387658179E+01
     4
 # iter = 68500  time[fs]=68.50000
   C -0.739283459E+01 -0.121004869E+00 -0.166619574E-01
   C  0.795277056E+01 -0.295838725E-02 -0.517746389E-01
   H -0.387005614E+02  0.245885517E+01 -0.296942385E+01
   H  0.383949617E+02 -0.817104729E+00  0.391745925E+01
     4
 # iter = 69000  time[fs]=69.00000
   C -0.747613271E+01 -0.122514476E+00 -0.165375391E-01
   C  0.804091226E+01 -0.288875276E-02 -0.526240886E-01
   H -0.391008830E+02  0.248446467E+01 -0.300024027E+01
   H  0.387917588E+02 -0.825673837E+00  0.395835079E+01
     4
 # iter = 69500  time[fs]=69.50000
   C -0.755948308E+01 -0.124024947E+00 -0.164126811E-01
   C  0.812910547E+01 -0.281866550E-02 -0.534743585E-01
   H -0.395013144E+02  0.251008197E+01 -0.303106592E+01
   H  0.391886748E+02 -0.834245832E+00  0.399925612E+01
     4
 # iter = 70000  time[fs]=70.00000
   C -0.764288455E+01 -0.125536262E+00 -0.162873900E-01
   C  0.821734905E+01 -0.274813419E-02 -0.543254345E-01
   H -0.399018534E+02  0.253570692E+01 -0.306190062E+01
   H  0.395857071E+02 -0.842820656E+00  0.404017498E+01
     4
 # iter = 70500  time[fs]=70.50000
   C -0.772633602E+01 -0.127048407E+00 -0.161616722E-01
   C  0.830564191E+01 -0.267716731E-02 -0.551773030E-01
   H -0.403024980E+02  0.256133937E+01 -0.309274420E+01
   H  0.399828535E+02 -0.851398256E+00  0.408110710E+01
     4
 # iter = 71000  time[fs]=71.00000
   C -0.780983642E+01 -0.128561365E+00 -0.160355341E-01
   C  0.839398300E+01 -0.260577309E-02 -0.560299505E-01
   H -0.407032460E+02  0.258697917E+01 -0.312359647E+01
   H  0.403801119E+02 -0.859978578E+00  0.412205223E+01
     4
 # iter = 71500  time[fs]=71.50000
   C -0.789338470E+01 -0.130075122E+00 -0.159089819E-01
   C  0.848237128E+01 -0.253395956E-02 -0.568833640E-01
   H -0.411040955E+02  0.261262619E+01 -0.315445728E+01
   H  0.407774799E+02 -0.868561569E+00  0.416301011E+01
     4
 # iter = 72000  time[fs]=72.00000
   C -0.797697986E+01 -0.131589661E+00 -0.157820217E-01
   C  0.857080577E+01 -0.246173450E-02 -0.577375308E-01
   H -0.415050445E+02  0.263828028E+01 -0.318532647E+01
   H  0.411749555E+02 -0.877147179E+00  0.420398052E+01
     4
 # iter = 72500  time[fs]=72.50000
   C -0.806062092E+01 -0.133104968E+00 -0.156546596E-01
   C  0.865928551E+01 -0.238910550E-02 -0.585924384E-01
   H -0.419060910E+02  0.266394131E+01 -0.321620386E+01
   H  0.415725366E+02 -0.885735359E+00  0.424496320E+01
     4
 # iter = 73000  time[fs]=73.00000
   C -0.814430694E+01 -0.134621030E+00 -0.155269013E-01
   C  0.874780954E+01 -0.231607995E-02 -0.594480746E-01
   H -0.423072334E+02  0.268960916E+01 -0.324708932E+01
   H  0.419702213E+02 -0.894326061E+00  0.428595793E+01
     4
 # iter = 73500  time[fs]=73.50000
   C -0.822803700E+01 -0.136137833E+00 -0.153987527E-01
   C  0.883637698E+01 -0.224266504E-02 -0.603044276E-01
   H -0.427084697E+02  0.271528370E+01 -0.327798269E+01
   H  0.423680076E+02 -0.902919239E+00  0.432696449E+01
     4
 # iter = 74000  time[fs]=74.00000
   C -0.831181020E+01 -0.137655362E+00 -0.152702193E-01
   C  0.892498694E+01 -0.216886775E-02 -0.611614858E-01
   H -0.431097982E+02  0.274096481E+01 -0.330888383E+01
   H  0.427658936E+02 -0.911514847E+00  0.436798266E+01
     4
 # iter = 74500  time[fs]=74.50000
   C -0.839562568E+01 -0.139173605E+00 -0.151413069E-01
   C  0.901363857E+01 -0.209469489E-02 -0.620192378E-01
   H -0.435112172E+02  0.276665236E+01 -0.333979259E+01
   H  0.431638775E+02 -0.920112842E+00  0.440901224E+01
     4
 # iter = 75000  time[fs]=75.00000
   C -0.847948261E+01 -0.140692550E+00 -0.150120207E-01
   C  0.910233104E+01 -0.202015312E-02 -0.628776726E-01
   H -0.439127251E+02  0.279234625E+01 -0.337070884E+01
   H  0.435619575E+02 -0.928713181E+00  0.445005302E+01
     4
 # iter = 75500  time[fs]=75.50000
   C -0.856338016E+01 -0.142212184E+00 -0.148823662E-01
   C  0.919106354E+01 -0.194524889E-02 -0.637367794E-01
   H -0.443143203E+02  0.281804635E+01 -0.340163245E+01
   H  0.439601319E+02 -0.937315822E+00  0.449110479E+01
     4
 # iter = 76000  time[fs]=76.00000
   C -0.864731755E+01 -0.143732494E+00 -0.147523485E-01
   C  0.927983530E+01 -0.186998850E-02 -0.645965476E-01
   H -0.447160012E+02  0.284375257E+01 -0.343256328E+01
   H  0.443583989E+02 -0.945920724E+00  0.453216737E+01
     4
 # iter = 76500  time[fs]=76.50000
   C -0.873129401E+01 -0.145253470E+00 -0.146219729E-01
   C  0.936864556E+01 -0.179437809E-02 -0.654569668E-01
   H -0.451177663E+02  0.286946479E+01 -0.346350121E+01
   H  0.447567570E+02 -0.954527849E+00  0.457324056E+01
     4
 # iter = 77000  time[fs]=77.00000
   C -0.881530879E+01 -0.146775099E+00 -0.144912443E-01
   C  0.945749357E+01 -0.171842365E-02 -0.663180271E-01
   H -0.455196141E+02  0.289518291E+01 -0.349444612E+01
   H  0.451552045E+02 -0.963137157E+00  0.461432419E+01
     4
 # iter = 77500  time[fs]=77.50000
   C -0.889936116E+01 -0.148297371E+00 -0.143601677E-01
   C  0.954637863E+01 -0.164213102E-02 -0.671797183E-01
   H -0.459215432E+02  0.292090682E+01 -0.352539788E+01
   H  0.455537399E+02 -0.971748612E+00  0.465541806E+01
     4
 # iter = 78000  time[fs]=78.00000
   C -0.898345042E+01 -0.149820274E+00 -0.142287480E-01
   C  0.963530004E+01 -0.156550588E-02 -0.680420311E-01
   H -0.463235521E+02  0.294663644E+01 -0.355635638E+01
   H  0.459523617E+02 -0.980362176E+00  0.469652202E+01
     4
 # iter = 78500  time[fs]=78.50000
   C -0.906757588E+01 -0.151343799E+00 -0.140969898E-01
   C  0.972425711E+01 -0.148855379E-02 -0.689049558E-01
   H -0.467256395E+02  0.297237165E+01 -0.358732150E+01
   H  0.463510683E+02 -0.988977814E+00  0.473763588E+01
     4
 # iter = 79000  time[fs]=79.00000
   C -0.915173687E+01 -0.152867934E+00 -0.139648980E-01
   C  0.981324920E+01 -0.141128017E-02 -0.697684832E-01
   H -0.471278041E+02  0.299811238E+01 -0.361829314E+01
   H  0.467498583E+02 -0.997595491E+00  0.477875948E+01
     4
 # iter = 79500  time[fs]=79.50000
   C -0.923593274E+01 -0.154392669E+00 -0.138324769E-01
   C  0.990227565E+01 -0.133369030E-02 -0.706326043E-01
   H -0.475300446E+02  0.302385852E+01 -0.364927118E+01
   H  0.471487304E+02 -0.100621517E+01  0.481989266E+01
     4
 # iter = 80000  time[fs]=80.00000
   C -0.932016286E+01 -0.155917996E+00 -0.136997313E-01
   C  0.999133585E+01 -0.125578933E-02 -0.714973103E-01
   H -0.479323596E+02  0.304960999E+01 -0.368025552E+01
   H  0.475476831E+02 -0.101483683E+01  0.486103526E+01
