     4
 # iter = 25000  time[fs]=25.00000
   C -0.994603488E+00  0.653479404E-01  0.480131979E-02
   C  0.102062258E+01  0.373772557E-01 -0.174088243E-01
   H -0.533475578E+01 -0.475124976E+00 -0.182095566E-01
   H  0.537488278E+01 -0.241066582E+00  0.480307768E+00
     4
 # iter = 25500  time[fs]=25.50000
   C -0.104285644E+01  0.669185636E-01  0.335752371E-02
   C  0.106334149E+01  0.379772363E-01 -0.203693435E-01
   H -0.567671484E+01 -0.515085854E+00 -0.287668168E-01
   H  0.568785398E+01 -0.265498633E+00  0.502008186E+00
     4
 # iter = 26000  time[fs]=26.00000
   C -0.109501235E+01  0.673842352E-01  0.739313844E-03
   C  0.110808289E+01  0.378100167E-01 -0.241377126E-01
   H -0.602980578E+01 -0.561085027E+00 -0.447684783E-01
   H  0.600034542E+01 -0.295604035E+00  0.518762702E+00
     4
 # iter = 26500  time[fs]=26.50000
   C -0.114728366E+01  0.702997482E-01  0.510076871E-03
   C  0.115684621E+01  0.391131344E-01 -0.264729117E-01
   H -0.637728030E+01 -0.596971572E+00 -0.501347662E-01
   H  0.632794232E+01 -0.315263958E+00  0.546616378E+00
     4
 # iter = 27000  time[fs]=27.00000
   C -0.119928662E+01  0.758336576E-01  0.284547143E-02
   C  0.120952662E+01  0.419978852E-01 -0.272604626E-01
   H -0.671779500E+01 -0.621889347E+00 -0.440669652E-01
   H  0.667098883E+01 -0.323658277E+00  0.586323341E+00
     4
 # iter = 27500  time[fs]=27.50000
   C -0.125348223E+01  0.813278318E-01  0.509327671E-02
   C  0.126426564E+01  0.448007574E-01 -0.281609591E-01
   H -0.706286159E+01 -0.647750130E+00 -0.385235643E-01
   H  0.701710747E+01 -0.332738576E+00  0.625872768E+00
     4
 # iter = 28000  time[fs]=28.00000
   C -0.131157214E+01  0.849003650E-01  0.537663151E-02
   C  0.131970795E+01  0.463449216E-01 -0.303486707E-01
   H -0.742055444E+01 -0.682974161E+00 -0.419649966E-01
   H  0.735747830E+01 -0.350957607E+00  0.656760846E+00
     4
 # iter = 28500  time[fs]=28.50000
   C -0.137263888E+01  0.873040955E-01  0.445275685E-02
   C  0.137616520E+01  0.471066474E-01 -0.333451352E-01
   H -0.778710436E+01 -0.724101860E+00 -0.509676261E-01
   H  0.769523172E+01 -0.374875192E+00  0.682384793E+00
     4
 # iter = 29000  time[fs]=29.00000
   C -0.143467775E+01  0.903940720E-01  0.418050471E-02
   C  0.143465468E+01  0.482535913E-01 -0.359807766E-01
   H -0.815381129E+01 -0.762707695E+00 -0.571377443E-01
   H  0.803851473E+01 -0.396078250E+00  0.711120843E+00
     4
 # iter = 29500  time[fs]=29.50000
   C -0.149691538E+01  0.948083354E-01  0.520119220E-02
   C  0.149544476E+01  0.501895148E-01 -0.378500891E-01
   H -0.851751042E+01 -0.795864393E+00 -0.575755307E-01
   H  0.839000369E+01 -0.411654075E+00  0.745848909E+00
     4
 # iter = 30000  time[fs]=30.00000
   C -0.156013405E+01  0.996425355E-01  0.661329389E-02
   C  0.155784973E+01  0.523501212E-01 -0.395157643E-01
   H -0.888203548E+01 -0.827610310E+00 -0.563429008E-01
   H  0.874542925E+01 -0.425659277E+00  0.782482778E+00
     4
 # iter = 30500  time[fs]=30.50000
   C -0.162523145E+01  0.103888750E+00  0.741135162E-02
   C  0.162113056E+01  0.541058089E-01 -0.416059449E-01
   H -0.925171720E+01 -0.862455898E+00 -0.579709625E-01
   H  0.910007459E+01 -0.442621105E+00  0.816468785E+00
     4
 # iter = 31000  time[fs]=31.00000
   C -0.169212481E+01  0.107529992E+00  0.758055159E-02
   C  0.168517983E+01  0.554483920E-01 -0.441275075E-01
   H -0.962643742E+01 -0.900444027E+00 -0.625210944E-01
   H  0.945371832E+01 -0.462593852E+00  0.847729349E+00
     4
 # iter = 31500  time[fs]=31.50000
   C -0.176007125E+01  0.111218858E+00  0.777541713E-02
   C  0.175031918E+01  0.567895461E-01 -0.466675975E-01
   H -0.100030762E+02 -0.938599557E+00 -0.670348130E-01
   H  0.980918017E+01 -0.482609938E+00  0.879211436E+00
     4
 # iter = 32000  time[fs]=32.00000
   C -0.182858525E+01  0.115359158E+00  0.840146707E-02
   C  0.181672261E+01  0.583847067E-01 -0.489697046E-01
   H -0.103796547E+02 -0.975073110E+00 -0.696776173E-01
   H  0.101681694E+02 -0.500827472E+00  0.912738431E+00
     4
 # iter = 32500  time[fs]=32.50000
   C -0.189776721E+01  0.119776553E+00  0.928587603E-02
   C  0.188420914E+01  0.601264543E-01 -0.511402604E-01
   H -0.107568198E+02 -0.101062697E+01 -0.712250416E-01
   H  0.105297949E+02 -0.518017574E+00  0.947522427E+00
     4
 # iter = 33000  time[fs]=33.00000
   C -0.196790703E+01  0.124114073E+00  0.100730243E-01
   C  0.195249000E+01  0.617926295E-01 -0.534005166E-01
   H -0.111360571E+02 -0.104684991E+01 -0.732777348E-01
   H  0.108923503E+02 -0.535777737E+00  0.981950702E+00
     4
 # iter = 33500  time[fs]=33.50000
   C -0.203904953E+01  0.128266000E+00  0.106584093E-01
   C  0.202143997E+01  0.633185208E-01 -0.558143537E-01
   H -0.115177299E+02 -0.108419894E+01 -0.763034556E-01
   H  0.112552735E+02 -0.554571955E+00  0.101554549E+01
     4
 # iter = 34000  time[fs]=34.00000
   C -0.211098943E+01  0.132382177E+00  0.111929647E-01
   C  0.209109939E+01  0.647995856E-01 -0.582855525E-01
   H -0.119010588E+02 -0.112197966E+01 -0.796175845E-01
   H  0.116191645E+02 -0.573711166E+00  0.104898336E+01
     4
 # iter = 34500  time[fs]=34.50000
   C -0.218352964E+01  0.136609211E+00  0.118242855E-01
   C  0.216151140E+01  0.663291395E-01 -0.607200970E-01
   H -0.122852884E+02 -0.115951390E+01 -0.825508308E-01
   H  0.119846159E+02 -0.592521997E+00  0.108292634E+01
     4
 # iter = 35000  time[fs]=35.00000
   C -0.225662785E+01  0.140943320E+00  0.125494828E-01
   C  0.223262908E+01  0.679060610E-01 -0.631184617E-01
   H -0.126703503E+02 -0.119680356E+01 -0.851131975E-01
   H  0.123515470E+02 -0.611011297E+00  0.111735717E+01
     4
 # iter = 35500  time[fs]=35.50000
   C -0.233032788E+01  0.145298586E+00  0.132834505E-01
   C  0.230435791E+01  0.694776099E-01 -0.655327885E-01
   H -0.130565543E+02 -0.123422249E+01 -0.876859045E-01
   H  0.127195112E+02 -0.629557747E+00  0.115188764E+01
     4
 # iter = 36000  time[fs]=36.00000
   C -0.240463840E+01  0.149627785E+00  0.139797053E-01
   C  0.237663104E+01  0.710152243E-01 -0.679910854E-01
   H -0.134440420E+02 -0.127197104E+01 -0.904760751E-01
   H  0.130882420E+02 -0.648366006E+00  0.118630434E+01
     4
 # iter = 36500  time[fs]=36.50000
   C -0.247950496E+01  0.153950012E+00  0.146580155E-01
   C  0.244942633E+01  0.725318552E-01 -0.704798884E-01
   H -0.138326617E+02 -0.130995133E+01 -0.933920495E-01
   H  0.134577764E+02 -0.667341889E+00  0.122069339E+01
     4
 # iter = 37000  time[fs]=37.00000
   C -0.255486069E+01  0.158299672E+00  0.153534078E-01
   C  0.252273405E+01  0.740499864E-01 -0.729762376E-01
   H -0.142221978E+02 -0.134799731E+01 -0.962734837E-01
   H  0.138282248E+02 -0.686322658E+00  0.125521012E+01
     4
 # iter = 37500  time[fs]=37.50000
   C -0.263066788E+01  0.162684588E+00  0.160742712E-01
   C  0.259653029E+01  0.755753602E-01 -0.754739481E-01
   H -0.146125594E+02 -0.138606371E+01 -0.990803937E-01
   H  0.141995808E+02 -0.705266217E+00  0.128988977E+01
     4
 # iter = 38000  time[fs]=38.00000
   C -0.270691316E+01  0.167090601E+00  0.168069705E-01
   C  0.267077963E+01  0.770998725E-01 -0.779807116E-01
   H -0.150037589E+02 -0.142420521E+01 -0.101872324E+00
   H  0.145717418E+02 -0.724230249E+00  0.132466830E+01
     4
 # iter = 38500  time[fs]=38.50000
   C -0.278358335E+01  0.171505474E+00  0.175397516E-01
   C  0.274544992E+01  0.786165689E-01 -0.805030983E-01
   H -0.153958042E+02 -0.146246847E+01 -0.104700461E+00
   H  0.149446170E+02 -0.743264209E+00  0.135949037E+01
     4
 # iter = 39000  time[fs]=39.00000
   C -0.286065526E+01  0.175928923E+00  0.182727756E-01
   C  0.282051837E+01  0.801259398E-01 -0.830402586E-01
   H -0.157886524E+02 -0.150084685E+01 -0.107562343E+00
   H  0.153181719E+02 -0.762363985E+00  0.139435463E+01
     4
 # iter = 39500  time[fs]=39.50000
   C -0.293810213E+01  0.180365959E+00  0.190114664E-01
   C  0.289596717E+01  0.816317513E-01 -0.855880911E-01
   H -0.161822400E+02 -0.153931036E+01 -0.110431871E+00
   H  0.156923983E+02 -0.781501920E+00  0.142928364E+01
     4
 # iter = 40000  time[fs]=40.00000
   C -0.301590171E+01  0.184818663E+00  0.197582879E-01
   C  0.297177824E+01  0.831358892E-01 -0.881443961E-01
   H -0.165765196E+02 -0.157784274E+01 -0.113296408E+00
   H  0.160672771E+02 -0.800663938E+00  0.146428674E+01
     4
 # iter = 40500  time[fs]=40.50000
   C -0.309403711E+01  0.189285203E+00  0.205117652E-01
   C  0.304793241E+01  0.846377472E-01 -0.907094854E-01
   H -0.169714638E+02 -0.161644584E+01 -0.116161184E+00
   H  0.164427733E+02 -0.819853942E+00  0.149935559E+01
     4
 # iter = 41000  time[fs]=41.00000
   C -0.317249335E+01  0.193763168E+00  0.212698166E-01
   C  0.312441144E+01  0.861363182E-01 -0.932840899E-01
   H -0.173670506E+02 -0.165512458E+01 -0.119034258E+00
   H  0.168188509E+02 -0.839078754E+00  0.153447924E+01
     4
 # iter = 41500  time[fs]=41.50000
   C -0.325125514E+01  0.198251641E+00  0.220318370E-01
   C  0.320119917E+01  0.876315025E-01 -0.958680498E-01
   H -0.177632531E+02 -0.169387747E+01 -0.121917105E+00
   H  0.171954825E+02 -0.858338688E+00  0.156965349E+01
     4
 # iter = 42000  time[fs]=42.00000
   C -0.333030725E+01  0.202750737E+00  0.227982273E-01
   C  0.327828115E+01  0.891238143E-01 -0.984606071E-01
   H -0.181600419E+02 -0.173269877E+01 -0.124806736E+00
   H  0.175726468E+02 -0.877629662E+00  0.160487880E+01
     4
 # iter = 42500  time[fs]=42.50000
   C -0.340963558E+01  0.207260451E+00  0.235692547E-01
   C  0.335564384E+01  0.906136675E-01 -0.101061118E+00
   H -0.185573898E+02 -0.177158357E+01 -0.127700836E+00
   H  0.179503233E+02 -0.896948337E+00  0.164015509E+01
     4
 # iter = 43000  time[fs]=43.00000
   C -0.348922742E+01  0.211780320E+00  0.243447084E-01
   C  0.343327427E+01  0.921011620E-01 -0.103669266E+00
   H -0.189552736E+02 -0.181052935E+01 -0.130599312E+00
   H  0.183284907E+02 -0.916293658E+00  0.167548021E+01
     4
 # iter = 43500  time[fs]=43.50000
   C -0.356907104E+01  0.216309733E+00  0.251242147E-01
   C  0.351116022E+01  0.935862813E-01 -0.106284863E+00
   H -0.193536720E+02 -0.184953452E+01 -0.133502863E+00
   H  0.187071280E+02 -0.935665426E+00  0.171085136E+01
     4
 # iter = 44000  time[fs]=44.00000
   C -0.364915536E+01  0.220848219E+00  0.259075262E-01
   C  0.358929030E+01  0.950690758E-01 -0.108907667E+00
   H -0.197525648E+02 -0.188859713E+01 -0.136411678E+00
   H  0.190862163E+02 -0.955062978E+00  0.174626634E+01
     4
 # iter = 44500  time[fs]=44.50000
   C -0.372946985E+01  0.225395454E+00  0.266945277E-01
   C  0.366765391E+01  0.965496668E-01 -0.111537372E+00
   H -0.201519322E+02 -0.192771478E+01 -0.139325399E+00
   H  0.194657378E+02 -0.974485155E+00  0.178172366E+01
     4
 # iter = 45000  time[fs]=45.00000
   C -0.381000464E+01  0.229951145E+00  0.274851244E-01
   C  0.374624109E+01  0.980281772E-01 -0.114173685E+00
   H -0.205517555E+02 -0.196688516E+01 -0.142243624E+00
   H  0.198456763E+02 -0.993930801E+00  0.181722192E+01
     4
 # iter = 45500  time[fs]=45.50000
   C -0.389075047E+01  0.234514977E+00  0.282791877E-01
   C  0.382504246E+01  0.995046989E-01 -0.116816349E+00
   H -0.209520174E+02 -0.200610626E+01 -0.145166150E+00
   H  0.202260159E+02 -0.101339900E+01  0.185275966E+01
     4
 # iter = 46000  time[fs]=46.00000
   C -0.397169864E+01  0.239086630E+00  0.290765731E-01
   C  0.390404919E+01  0.100979304E+00 -0.119465137E+00
   H -0.213527015E+02 -0.204537628E+01 -0.148092886E+00
   H  0.206067419E+02 -0.103288898E+01  0.188833538E+01
     4
 # iter = 46500  time[fs]=46.50000
   C -0.405284098E+01  0.243665806E+00  0.298771478E-01
   C  0.398325296E+01  0.102452063E+00 -0.122119832E+00
   H -0.217537923E+02 -0.208469351E+01 -0.151023727E+00
   H  0.209878399E+02 -0.105240001E+01  0.192394769E+01
     4
 # iter = 47000  time[fs]=47.00000
   C -0.413416976E+01  0.248252230E+00  0.306807957E-01
   C  0.406264593E+01  0.103923050E+00 -0.124780221E+00
   H -0.221552751E+02 -0.212405626E+01 -0.153958532E+00
   H  0.213692967E+02 -0.107193133E+01  0.195959530E+01
     4
 # iter = 47500  time[fs]=47.50000
   C -0.421567768E+01  0.252845648E+00  0.314874098E-01
   C  0.414222070E+01  0.105392334E+00 -0.127446101E+00
   H -0.225571360E+02 -0.216346295E+01 -0.156897150E+00
   H  0.217510997E+02 -0.109148222E+01  0.199527701E+01
     4
 # iter = 48000  time[fs]=48.00000
   C -0.429735785E+01  0.257445815E+00  0.322968863E-01
   C  0.422197028E+01  0.106859982E+00 -0.130117279E+00
   H -0.229593617E+02 -0.220291205E+01 -0.159839448E+00
   H  0.221332368E+02 -0.111105202E+01  0.203099167E+01
     4
 # iter = 48500  time[fs]=48.50000
   C -0.437920375E+01  0.262052496E+00  0.331091248E-01
   C  0.430188806E+01  0.108326055E+00 -0.132793575E+00
   H -0.233619398E+02 -0.224240214E+01 -0.162785310E+00
   H  0.225156967E+02 -0.113064007E+01  0.206673818E+01
     4
 # iter = 49000  time[fs]=49.00000
   C -0.446120923E+01  0.266665468E+00  0.339240294E-01
   C  0.438196779E+01  0.109790611E+00 -0.135474816E+00
   H -0.237648584E+02 -0.228193187E+01 -0.165734623E+00
   H  0.228984686E+02 -0.115024578E+01  0.210251549E+01
     4
 # iter = 49500  time[fs]=49.50000
   C -0.454336845E+01  0.271284522E+00  0.347415099E-01
   C  0.446220355E+01  0.111253704E+00 -0.138160839E+00
   H -0.241681060E+02 -0.232149995E+01 -0.168687279E+00
   H  0.232815421E+02 -0.116986858E+01  0.213832259E+01
     4
 # iter = 50000  time[fs]=50.00000
   C -0.462567587E+01  0.275909455E+00  0.355614803E-01
   C  0.454258971E+01  0.112715388E+00 -0.140851486E+00
   H -0.245716720E+02 -0.236110513E+01 -0.171643173E+00
   H  0.236649074E+02 -0.118950791E+01  0.217415855E+01
     4
 # iter = 50500  time[fs]=50.50000
   C -0.470812623E+01  0.280540078E+00  0.363838588E-01
   C  0.462312095E+01  0.114175712E+00 -0.143546608E+00
   H -0.249755460E+02 -0.240074626E+01 -0.174602206E+00
   H  0.240485553E+02 -0.120916325E+01  0.221002246E+01
     4
 # iter = 51000  time[fs]=51.00000
   C -0.479071456E+01  0.285176208E+00  0.372085674E-01
   C  0.470379222E+01  0.115634723E+00 -0.146246064E+00
   H -0.253797184E+02 -0.244042221E+01 -0.177564282E+00
   H  0.244324767E+02 -0.122883410E+01  0.224591346E+01
     4
 # iter = 51500  time[fs]=51.50000
   C -0.487343611E+01  0.289817670E+00  0.380355315E-01
   C  0.478459869E+01  0.117092467E+00 -0.148949718E+00
   H -0.257841797E+02 -0.248013191E+01 -0.180529312E+00
   H  0.248166632E+02 -0.124851999E+01  0.228183071E+01
     4
 # iter = 52000  time[fs]=52.00000
   C -0.495628638E+01  0.294464300E+00  0.388646799E-01
   C  0.486553581E+01  0.118548987E+00 -0.151657440E+00
   H -0.261889211E+02 -0.251987435E+01 -0.183497208E+00
   H  0.252011068E+02 -0.126822046E+01  0.231777343E+01
     4
 # iter = 52500  time[fs]=52.50000
   C -0.503926108E+01  0.299115940E+00  0.396959448E-01
   C  0.494659922E+01  0.120004323E+00 -0.154369106E+00
   H -0.265939341E+02 -0.255964855E+01 -0.186467887E+00
   H  0.255857996E+02 -0.128793507E+01  0.235374088E+01
     4
 # iter = 53000  time[fs]=53.00000
   C -0.512235612E+01  0.303772437E+00  0.405292613E-01
   C  0.502778477E+01  0.121458514E+00 -0.157084599E+00
   H -0.269992106E+02 -0.259945357E+01 -0.189441271E+00
   H  0.259707342E+02 -0.130766341E+01  0.238973232E+01
     4
 # iter = 53500  time[fs]=53.50000
   C -0.520556762E+01  0.308433647E+00  0.413645673E-01
   C  0.510908852E+01  0.122911597E+00 -0.159803804E+00
   H -0.274047427E+02 -0.263928853E+01 -0.192417282E+00
   H  0.263559036E+02 -0.132740509E+01  0.242574708E+01
     4
 # iter = 54000  time[fs]=54.00000
   C -0.528889185E+01  0.313099433E+00  0.422018035E-01
   C  0.519050670E+01  0.124363608E+00 -0.162526614E+00
   H -0.278105231E+02 -0.267915257E+01 -0.195395849E+00
   H  0.267413010E+02 -0.134715971E+01  0.246178448E+01
     4
 # iter = 54500  time[fs]=54.50000
   C -0.537232528E+01  0.317769661E+00  0.430409129E-01
   C  0.527203571E+01  0.125814581E+00 -0.165252925E+00
   H -0.282165447E+02 -0.271904488E+01 -0.198376901E+00
   H  0.271269198E+02 -0.136692693E+01  0.249784390E+01
     4
 # iter = 55000  time[fs]=55.00000
   C -0.545586452E+01  0.322444204E+00  0.438818413E-01
   C  0.535367212E+01  0.127264547E+00 -0.167982638E+00
   H -0.286228005E+02 -0.275896466E+01 -0.201360371E+00
   H  0.275127539E+02 -0.138670637E+01  0.253392472E+01
     4
 # iter = 55500  time[fs]=55.50000
   C -0.553950634E+01  0.327122942E+00  0.447245363E-01
   C  0.543541266E+01  0.128713539E+00 -0.170715656E+00
   H -0.290292842E+02 -0.279891117E+01 -0.204346195E+00
   H  0.278987973E+02 -0.140649772E+01  0.257002637E+01
     4
 # iter = 56000  time[fs]=56.00000
   C -0.562324765E+01  0.331805757E+00  0.455689480E-01
   C  0.551725419E+01  0.130161585E+00 -0.173451889E+00
   H -0.294359894E+02 -0.283888369E+01 -0.207334311E+00
   H  0.282850442E+02 -0.142630065E+01  0.260614829E+01
     4
 # iter = 56500  time[fs]=56.50000
   C -0.570708549E+01  0.336492538E+00  0.464150284E-01
   C  0.559919370E+01  0.131608713E+00 -0.176191248E+00
   H -0.298429101E+02 -0.287888152E+01 -0.210324659E+00
   H  0.286714893E+02 -0.144611484E+01  0.264228994E+01
     4
 # iter = 57000  time[fs]=57.00000
   C -0.579101704E+01  0.341183177E+00  0.472627315E-01
   C  0.568122832E+01  0.133054951E+00 -0.178933651E+00
   H -0.302500405E+02 -0.291890399E+01 -0.213317182E+00
   H  0.290581270E+02 -0.146594001E+01  0.267845080E+01
     4
 # iter = 57500  time[fs]=57.50000
   C -0.587503957E+01  0.345877572E+00  0.481120130E-01
   C  0.576335531E+01  0.134500325E+00 -0.181679014E+00
   H -0.306573751E+02 -0.295895047E+01 -0.216311824E+00
   H  0.294449525E+02 -0.148577586E+01  0.271463037E+01
     4
 # iter = 58000  time[fs]=58.00000
   C -0.595915050E+01  0.350575622E+00  0.489628304E-01
   C  0.584557202E+01  0.135944860E+00 -0.184427261E+00
   H -0.310649086E+02 -0.299902033E+01 -0.219308534E+00
   H  0.298319609E+02 -0.150562212E+01  0.275082819E+01
     4
 # iter = 58500  time[fs]=58.50000
   C -0.604334733E+01  0.355277233E+00  0.498151428E-01
   C  0.592787593E+01  0.137388579E+00 -0.187178317E+00
   H -0.314726357E+02 -0.303911299E+01 -0.222307259E+00
   H  0.302191473E+02 -0.152547853E+01  0.278704378E+01
     4
 # iter = 59000  time[fs]=59.00000
   C -0.612762767E+01  0.359982313E+00  0.506689111E-01
   C  0.601026462E+01  0.138831505E+00 -0.189932109E+00
   H -0.318805517E+02 -0.307922787E+01 -0.225307951E+00
   H  0.306065074E+02 -0.154534483E+01  0.282327671E+01
     4
 # iter = 59500  time[fs]=59.50000
   C -0.621198922E+01  0.364690773E+00  0.515240973E-01
   C  0.609273575E+01  0.140273661E+00 -0.192688568E+00
   H -0.322886516E+02 -0.311936443E+01 -0.228310562E+00
   H  0.309940368E+02 -0.156522078E+01  0.285952654E+01
     4
 # iter = 60000  time[fs]=60.00000
   C -0.629642979E+01  0.369402530E+00  0.523806652E-01
   C  0.617528709E+01  0.141715067E+00 -0.195447628E+00
   H -0.326969311E+02 -0.315952213E+01 -0.231315047E+00
   H  0.313817312E+02 -0.158510614E+01  0.289579288E+01
     4
 # iter = 60500  time[fs]=60.50000
   C -0.638094725E+01  0.374117500E+00  0.532385797E-01
   C  0.625791650E+01  0.143155744E+00 -0.198209224E+00
   H -0.331053855E+02 -0.319970047E+01 -0.234321361E+00
   H  0.317695867E+02 -0.160500068E+01  0.293207531E+01
     4
 # iter = 61000  time[fs]=61.00000
   C -0.646553958E+01  0.378835606E+00  0.540978071E-01
   C  0.634062190E+01  0.144595711E+00 -0.200973293E+00
   H -0.335140108E+02 -0.323989895E+01 -0.237329462E+00
   H  0.321575994E+02 -0.162490418E+01  0.296837347E+01
     4
 # iter = 61500  time[fs]=61.50000
   C -0.655020481E+01  0.383556771E+00  0.549583148E-01
   C  0.642340131E+01  0.146034987E+00 -0.203739777E+00
   H -0.339228027E+02 -0.328011710E+01 -0.240339308E+00
   H  0.325457655E+02 -0.164481643E+01  0.300468697E+01
     4
 # iter = 62000  time[fs]=62.00000
   C -0.663494106E+01  0.388280921E+00  0.558200715E-01
   C  0.650625282E+01  0.147473590E+00 -0.206508617E+00
   H -0.343317574E+02 -0.332035446E+01 -0.243350860E+00
   H  0.329340813E+02 -0.166473723E+01  0.304101547E+01
     4
 # iter = 62500  time[fs]=62.50000
   C -0.671974652E+01  0.393007987E+00  0.566830469E-01
   C  0.658917459E+01  0.148911537E+00 -0.209279758E+00
   H -0.347408710E+02 -0.336061058E+01 -0.246364079E+00
   H  0.333225434E+02 -0.168466638E+01  0.307735862E+01
     4
 # iter = 63000  time[fs]=63.00000
   C -0.680461944E+01  0.397737900E+00  0.575472119E-01
   C  0.667216486E+01  0.150348846E+00 -0.212053145E+00
   H -0.351501398E+02 -0.340088504E+01 -0.249378929E+00
   H  0.337111485E+02 -0.170460368E+01  0.311371609E+01
     4
 # iter = 63500  time[fs]=63.50000
   C -0.688955814E+01  0.402470593E+00  0.584125383E-01
   C  0.675522190E+01  0.151785532E+00 -0.214828727E+00
   H -0.355595603E+02 -0.344117742E+01 -0.252395373E+00
   H  0.340998932E+02 -0.172454896E+01  0.315008755E+01
     4
 # iter = 64000  time[fs]=64.00000
   C -0.697456100E+01  0.407206003E+00  0.592789990E-01
   C  0.683834408E+01  0.153221611E+00 -0.217606454E+00
   H -0.359691291E+02 -0.348148733E+01 -0.255413377E+00
   H  0.344887744E+02 -0.174450203E+01  0.318647270E+01
     4
 # iter = 64500  time[fs]=64.50000
   C -0.705962645E+01  0.411944069E+00  0.601465675E-01
   C  0.692152981E+01  0.154657098E+00 -0.220386278E+00
   H -0.363788427E+02 -0.352181437E+01 -0.258432906E+00
   H  0.348777890E+02 -0.176446273E+01  0.322287124E+01
     4
 # iter = 65000  time[fs]=65.00000
   C -0.714475299E+01  0.416684731E+00  0.610152186E-01
   C  0.700477757E+01  0.156092007E+00 -0.223168150E+00
   H -0.367886981E+02 -0.356215818E+01 -0.261453929E+00
   H  0.352669342E+02 -0.178443088E+01  0.325928286E+01
     4
 # iter = 65500  time[fs]=65.50000
   C -0.722993916E+01  0.421427931E+00  0.618849277E-01
   C  0.708808586E+01  0.157526352E+00 -0.225952026E+00
   H -0.371986921E+02 -0.360251839E+01 -0.264476415E+00
   H  0.356562070E+02 -0.180440633E+01  0.329570730E+01
     4
 # iter = 66000  time[fs]=66.00000
   C -0.731518357E+01  0.426173614E+00  0.627556710E-01
   C  0.717145327E+01  0.158960147E+00 -0.228737862E+00
   H -0.376088216E+02 -0.364289465E+01 -0.267500331E+00
   H  0.360456047E+02 -0.182438891E+01  0.333214428E+01
     4
 # iter = 66500  time[fs]=66.50000
   C -0.740048484E+01  0.430921726E+00  0.636274256E-01
   C  0.725487843E+01  0.160393405E+00 -0.231525616E+00
   H -0.380190838E+02 -0.368328663E+01 -0.270525650E+00
   H  0.364351246E+02 -0.184437848E+01  0.336859354E+01
     4
 # iter = 67000  time[fs]=67.00000
   C -0.748584167E+01  0.435672215E+00  0.645001693E-01
   C  0.733835999E+01  0.161826138E+00 -0.234315246E+00
   H -0.384294758E+02 -0.372369398E+01 -0.273552341E+00
   H  0.368247641E+02 -0.186437490E+01  0.340505481E+01
     4
 # iter = 67500  time[fs]=67.50000
   C -0.757125279E+01  0.440425030E+00  0.653738806E-01
   C  0.742189668E+01  0.163258359E+00 -0.237106712E+00
   H -0.388399950E+02 -0.376411641E+01 -0.276580378E+00
   H  0.372145208E+02 -0.188437801E+01  0.344152786E+01
     4
 # iter = 68000  time[fs]=68.00000
   C -0.765671697E+01  0.445180122E+00  0.662485386E-01
   C  0.750548725E+01  0.164690078E+00 -0.239899977E+00
   H -0.392506386E+02 -0.380455359E+01 -0.279609733E+00
   H  0.376043921E+02 -0.190438768E+01  0.347801243E+01
     4
 # iter = 68500  time[fs]=68.50000
   C -0.774223304E+01  0.449937444E+00  0.671241231E-01
   C  0.758913050E+01  0.166121309E+00 -0.242695001E+00
   H -0.396614041E+02 -0.384500522E+01 -0.282640380E+00
   H  0.379943758E+02 -0.192440378E+01  0.351450831E+01
     4
 # iter = 69000  time[fs]=69.00000
   C -0.782779985E+01  0.454696949E+00  0.680006146E-01
   C  0.767282526E+01  0.167552060E+00 -0.245491750E+00
   H -0.400722891E+02 -0.388547102E+01 -0.285672294E+00
   H  0.383844696E+02 -0.194442617E+01  0.355101526E+01
     4
 # iter = 69500  time[fs]=69.50000
   C -0.791341628E+01  0.459458594E+00  0.688779942E-01
   C  0.775657041E+01  0.168982344E+00 -0.248290187E+00
   H -0.404832910E+02 -0.392595070E+01 -0.288705450E+00
   H  0.387746712E+02 -0.196445474E+01  0.358753306E+01
     4
 # iter = 70000  time[fs]=70.00000
   C -0.799908126E+01  0.464222334E+00  0.697562434E-01
   C  0.784036486E+01  0.170412170E+00 -0.251090280E+00
   H -0.408944075E+02 -0.396644400E+01 -0.291739824E+00
   H  0.391649784E+02 -0.198448936E+01  0.362406150E+01
     4
 # iter = 70500  time[fs]=70.50000
   C -0.808479375E+01  0.468988129E+00  0.706353445E-01
   C  0.792420755E+01  0.171841549E+00 -0.253891994E+00
   H -0.413056365E+02 -0.400695064E+01 -0.294775393E+00
   H  0.395553893E+02 -0.200452991E+01  0.366060037E+01
     4
 # iter = 71000  time[fs]=71.00000
   C -0.817055275E+01  0.473755937E+00  0.715152802E-01
   C  0.800809747E+01  0.173270490E+00 -0.256695297E+00
   H -0.417169756E+02 -0.404747036E+01 -0.297812134E+00
   H  0.399459017E+02 -0.202457627E+01  0.369714948E+01
     4
 # iter = 71500  time[fs]=71.50000
   C -0.825635727E+01  0.478525718E+00  0.723960336E-01
   C  0.809203361E+01  0.174699002E+00 -0.259500159E+00
   H -0.421284228E+02 -0.408800292E+01 -0.300850025E+00
   H  0.403365138E+02 -0.204462834E+01  0.373370862E+01
     4
 # iter = 72000  time[fs]=72.00000
   C -0.834220638E+01  0.483297435E+00  0.732775886E-01
   C  0.817601502E+01  0.176127094E+00 -0.262306549E+00
   H -0.425399759E+02 -0.412854808E+01 -0.303889045E+00
   H  0.407272235E+02 -0.206468601E+01  0.377027760E+01
     4
 # iter = 72500  time[fs]=72.50000
   C -0.842809914E+01  0.488071049E+00  0.741599293E-01
   C  0.826004076E+01  0.177554776E+00 -0.265114438E+00
   H -0.429516329E+02 -0.416910558E+01 -0.306929173E+00
   H  0.411180291E+02 -0.208474917E+01  0.380685625E+01
     4
 # iter = 73000  time[fs]=73.00000
   C -0.851403468E+01  0.492846526E+00  0.750430404E-01
   C  0.834410994E+01  0.178982056E+00 -0.267923796E+00
   H -0.433633919E+02 -0.420967522E+01 -0.309970389E+00
   H  0.415089287E+02 -0.210481771E+01  0.384344438E+01
     4
 # iter = 73500  time[fs]=73.50000
   C -0.860001212E+01  0.497623828E+00  0.759269069E-01
   C  0.842822167E+01  0.180408941E+00 -0.270734596E+00
   H -0.437752509E+02 -0.425025675E+01 -0.313012673E+00
   H  0.418999206E+02 -0.212489154E+01  0.388004182E+01
     4
 # iter = 74000  time[fs]=74.00000
   C -0.868603063E+01  0.502402923E+00  0.768115143E-01
   C  0.851237511E+01  0.181835441E+00 -0.273546812E+00
   H -0.441872081E+02 -0.429084997E+01 -0.316056006E+00
   H  0.422910030E+02 -0.214497057E+01  0.391664840E+01
     4
 # iter = 74500  time[fs]=74.50000
   C -0.877208939E+01  0.507183777E+00  0.776968487E-01
   C  0.859656942E+01  0.183261562E+00 -0.276360416E+00
   H -0.445992618E+02 -0.433145466E+01 -0.319100369E+00
   H  0.426821743E+02 -0.216505469E+01  0.395326395E+01
     4
 # iter = 75000  time[fs]=75.00000
   C -0.885818762E+01  0.511966358E+00  0.785828961E-01
   C  0.868080381E+01  0.184687313E+00 -0.279175383E+00
   H -0.450114100E+02 -0.437207062E+01 -0.322145744E+00
   H  0.430734330E+02 -0.218514382E+01  0.398988831E+01
     4
 # iter = 75500  time[fs]=75.50000
   C -0.894432454E+01  0.516750634E+00  0.794696435E-01
   C  0.876507749E+01  0.186112700E+00 -0.281991689E+00
   H -0.454236512E+02 -0.441269764E+01 -0.325192114E+00
   H  0.434647773E+02 -0.220523786E+01  0.402652133E+01
     4
 # iter = 76000  time[fs]=76.00000
   C -0.903049942E+01  0.521536574E+00  0.803570777E-01
   C  0.884938971E+01  0.187537731E+00 -0.284809309E+00
   H -0.458359836E+02 -0.445333554E+01 -0.328239461E+00
   H  0.438562059E+02 -0.222533673E+01  0.406316285E+01
     4
 # iter = 76500  time[fs]=76.50000
   C -0.911671152E+01  0.526324148E+00  0.812451863E-01
   C  0.893373974E+01  0.188962413E+00 -0.287628220E+00
   H -0.462484056E+02 -0.449398411E+01 -0.331287769E+00
   H  0.442477171E+02 -0.224544035E+01  0.409981273E+01
     4
 # iter = 77000  time[fs]=77.00000
   C -0.920296013E+01  0.531113329E+00  0.821339569E-01
   C  0.901812685E+01  0.190386752E+00 -0.290448398E+00
   H -0.466609157E+02 -0.453464318E+01 -0.334337021E+00
   H  0.446393096E+02 -0.226554863E+01  0.413647082E+01
     4
 # iter = 77500  time[fs]=77.50000
   C -0.928924459E+01  0.535904086E+00  0.830233775E-01
   C  0.910255036E+01  0.191810756E+00 -0.293269821E+00
   H -0.470735124E+02 -0.457531256E+01 -0.337387200E+00
   H  0.450309819E+02 -0.228566148E+01  0.417313698E+01
     4
 # iter = 78000  time[fs]=78.00000
   C -0.937556421E+01  0.540696393E+00  0.839134367E-01
   C  0.918700958E+01  0.193234430E+00 -0.296092468E+00
   H -0.474861940E+02 -0.461599207E+01 -0.340438293E+00
   H  0.454227327E+02 -0.230577884E+01  0.420981107E+01
     4
 # iter = 78500  time[fs]=78.50000
   C -0.946191835E+01  0.545490223E+00  0.848041230E-01
   C  0.927150386E+01  0.194657780E+00 -0.298916317E+00
   H -0.478989592E+02 -0.465668156E+01 -0.343490283E+00
   H  0.458145606E+02 -0.232590063E+01  0.424649296E+01
     4
 # iter = 79000  time[fs]=79.00000
   C -0.954830638E+01  0.550285549E+00  0.856954255E-01
   C  0.935603255E+01  0.196080813E+00 -0.301741347E+00
   H -0.483118066E+02 -0.469738084E+01 -0.346543156E+00
   H  0.462064643E+02 -0.234602677E+01  0.428318252E+01
     4
 # iter = 79500  time[fs]=79.50000
   C -0.963472769E+01  0.555082347E+00  0.865873333E-01
   C  0.944059504E+01  0.197503534E+00 -0.304567539E+00
   H -0.487247347E+02 -0.473808976E+01 -0.349596897E+00
   H  0.465984425E+02 -0.236615719E+01  0.431987962E+01
     4
 # iter = 80000  time[fs]=80.00000
   C -0.972118167E+01  0.559880591E+00  0.874798361E-01
   C  0.952519072E+01  0.198925950E+00 -0.307394873E+00
   H -0.491377422E+02 -0.477880816E+01 -0.352651493E+00
   H  0.469904940E+02 -0.238629181E+01  0.435658414E+01
