     4
 # iter = 25000  time[fs]=25.00000
   C -0.104442494E+01  0.289064717E-01  0.750508812E-02
   C  0.937363140E+00 -0.854396485E-04 -0.269303383E-01
   H -0.533304785E+01 -0.489564829E+00 -0.465446805E+00
   H  0.527358024E+01 -0.181651762E+00 -0.216083337E+00
     4
 # iter = 25500  time[fs]=25.50000
   C -0.109451312E+01  0.305160431E-01  0.849600942E-02
   C  0.973951272E+00 -0.443449783E-03 -0.278650475E-01
   H -0.567578905E+01 -0.527257749E+00 -0.502455735E+00
   H  0.558272486E+01 -0.198628584E+00 -0.235788243E+00
     4
 # iter = 26000  time[fs]=26.00000
   C -0.114833065E+01  0.313993665E-01  0.876648319E-02
   C  0.101226947E+01 -0.195553606E-02 -0.299623531E-01
   H -0.602900031E+01 -0.570863271E+00 -0.545331346E+00
   H  0.589223193E+01 -0.221228110E+00 -0.261129135E+00
     4
 # iter = 26500  time[fs]=26.50000
   C -0.120324364E+01  0.339466819E-01  0.107060935E-01
   C  0.105546622E+01 -0.123824287E-02 -0.298375920E-01
   H -0.637600761E+01 -0.604235944E+00 -0.577934813E+00
   H  0.621758316E+01 -0.233335508E+00 -0.275991178E+00
     4
 # iter = 27000  time[fs]=27.00000
   C -0.125890906E+01  0.382700692E-01  0.144263078E-01
   C  0.110348940E+01  0.187647549E-02 -0.273216937E-01
   H -0.671553563E+01 -0.626531351E+00 -0.599426934E+00
   H  0.655903555E+01 -0.234133752E+00 -0.279557073E+00
     4
 # iter = 27500  time[fs]=27.50000
   C -0.131690026E+01  0.425800178E-01  0.181370562E-01
   C  0.115361875E+01  0.487255281E-02 -0.249298568E-01
   H -0.705915945E+01 -0.649678164E+00 -0.621740532E+00
   H  0.690413780E+01 -0.235576913E+00 -0.283780445E+00
     4
 # iter = 28000  time[fs]=28.00000
   C -0.137828693E+01  0.456092424E-01  0.205705632E-01
   C  0.120388685E+01  0.597009274E-02 -0.244412416E-01
   H -0.741500640E+01 -0.682110136E+00 -0.653312829E+00
   H  0.724400739E+01 -0.246120174E+00 -0.297115956E+00
     4
 # iter = 28500  time[fs]=28.50000
   C -0.144238602E+01  0.478628499E-01  0.222315163E-01
   C  0.125484343E+01  0.588966376E-02 -0.251346529E-01
   H -0.777934733E+01 -0.720373584E+00 -0.690693153E+00
   H  0.758172150E+01 -0.262325848E+00 -0.316125395E+00
     4
 # iter = 29000  time[fs]=29.00000
   C -0.150779039E+01  0.505874917E-01  0.243662060E-01
   C  0.130809962E+01  0.639756831E-02 -0.252432550E-01
   H -0.814351393E+01 -0.756045192E+00 -0.725460780E+00
   H  0.792538158E+01 -0.275783252E+00 -0.332397560E+00
     4
 # iter = 29500  time[fs]=29.50000
   C -0.157392589E+01  0.542114538E-01  0.274026029E-01
   C  0.136412527E+01  0.810436323E-02 -0.241560367E-01
   H -0.850437098E+01 -0.786201973E+00 -0.754694912E+00
   H  0.827762444E+01 -0.283581885E+00 -0.343021422E+00
     4
 # iter = 30000  time[fs]=30.00000
   C -0.164126879E+01  0.581257851E-01  0.307314783E-01
   C  0.142193886E+01  0.101560343E-01 -0.227266257E-01
   H -0.886578127E+01 -0.814889546E+00 -0.782443010E+00
   H  0.863414624E+01 -0.289780374E+00 -0.352055080E+00
     4
 # iter = 30500  time[fs]=30.50000
   C -0.171037761E+01  0.616519226E-01  0.336740279E-01
   C  0.148047237E+01  0.115998260E-01 -0.219074466E-01
   H -0.923210142E+01 -0.846625282E+00 -0.813224031E+00
   H  0.899020002E+01 -0.298907814E+00 -0.364027112E+00
     4
 # iter = 31000  time[fs]=31.00000
   C -0.178115637E+01  0.647777551E-01  0.362179321E-01
   C  0.153960915E+01  0.124232305E-01 -0.217107233E-01
   H -0.960323402E+01 -0.881456112E+00 -0.847086297E+00
   H  0.934553796E+01 -0.311020171E+00 -0.378993002E+00
     4
 # iter = 31500  time[fs]=31.50000
   C -0.185306946E+01  0.679415328E-01  0.388012610E-01
   C  0.159987788E+01  0.132489958E-01 -0.215134633E-01
   H -0.997607593E+01 -0.916408936E+00 -0.881057934E+00
   H  0.970295655E+01 -0.323151399E+00 -0.393986249E+00
     4
 # iter = 32000  time[fs]=32.00000
   C -0.192575779E+01  0.714142953E-01  0.416948973E-01
   C  0.166157977E+01  0.144634208E-01 -0.209291568E-01
   H -0.103486637E+02 -0.949636617E+00 -0.913292886E+00
   H  0.100641444E+02 -0.333461032E+00 -0.407165960E+00
     4
 # iter = 32500  time[fs]=32.50000
   C -0.199925922E+01  0.750783706E-01  0.447810315E-01
   C  0.172447501E+01  0.159037412E-01 -0.201203857E-01
   H -0.107216591E+02 -0.981904724E+00 -0.944557662E+00
   H  0.104281921E+02 -0.342721536E+00 -0.419304193E+00
     4
 # iter = 33000  time[fs]=33.00000
   C -0.207374177E+01  0.786933184E-01  0.478191026E-01
   C  0.178815741E+01  0.172335912E-01 -0.194233576E-01
   H -0.110965612E+02 -0.101480546E+01 -0.976445300E+00
   H  0.107933768E+02 -0.352531652E+00 -0.431999304E+00
     4
 # iter = 33500  time[fs]=33.50000
   C -0.214921125E+01  0.821876789E-01  0.507375450E-01
   C  0.185246549E+01  0.183548811E-01 -0.189360248E-01
   H -0.114737455E+02 -0.104879843E+01 -0.100941615E+01
   H  0.111591216E+02 -0.363356508E+00 -0.445716061E+00
     4
 # iter = 34000  time[fs]=34.00000
   C -0.222550762E+01  0.856618666E-01  0.536366808E-01
   C  0.191748600E+01  0.194119031E-01 -0.185139747E-01
   H -0.118524426E+02 -0.108319101E+01 -0.104277826E+01
   H  0.115260133E+02 -0.374508078E+00 -0.459766102E+00
     4
 # iter = 34500  time[fs]=34.50000
   C -0.230247839E+01  0.892141611E-01  0.566147076E-01
   C  0.198330759E+01  0.205457064E-01 -0.180160530E-01
   H -0.122319061E+02 -0.111730663E+01 -0.107585565E+01
   H  0.118946326E+02 -0.385313950E+00 -0.473476698E+00
     4
 # iter = 35000  time[fs]=35.00000
   C -0.238007690E+01  0.928417539E-01  0.596687448E-01
   C  0.204988064E+01  0.217544316E-01 -0.174440268E-01
   H -0.126120763E+02 -0.115114897E+01 -0.110865253E+01
   H  0.122648878E+02 -0.395781875E+00 -0.486855306E+00
     4
 # iter = 35500  time[fs]=35.50000
   C -0.245831602E+01  0.964866355E-01  0.627407188E-01
   C  0.211708159E+01  0.229581134E-01 -0.168777802E-01
   H -0.129932709E+02 -0.118509368E+01 -0.114154505E+01
   H  0.126363228E+02 -0.406291375E+00 -0.500281168E+00
     4
 # iter = 36000  time[fs]=36.00000
   C -0.253718639E+01  0.100116835E+00  0.657986014E-01
   C  0.218482722E+01  0.241133875E-01 -0.163606056E-01
   H -0.133756388E+02 -0.121934273E+01 -0.117473561E+01
   H  0.130086617E+02 -0.417047890E+00 -0.513959463E+00
     4
 # iter = 36500  time[fs]=36.50000
   C -0.261663757E+01  0.103744988E+00  0.688549787E-01
   C  0.225310046E+01  0.252397209E-01 -0.158729728E-01
   H -0.137590347E+02 -0.125379957E+01 -0.120812806E+01
   H  0.133819337E+02 -0.427957956E+00 -0.527796482E+00
     4
 # iter = 37000  time[fs]=37.00000
   C -0.269661190E+01  0.107394048E+00  0.719327584E-01
   C  0.232190171E+01  0.263710131E-01 -0.153809257E-01
   H -0.141432488E+02 -0.128829930E+01 -0.124155786E+01
   H  0.137562415E+02 -0.438859503E+00 -0.541629928E+00
     4
 # iter = 37500  time[fs]=37.50000
   C -0.277707237E+01  0.111069110E+00  0.750369941E-01
   C  0.239120876E+01  0.275158333E-01 -0.148758452E-01
   H -0.145281956E+02 -0.132279781E+01 -0.127498124E+01
   H  0.141315718E+02 -0.449711065E+00 -0.555418116E+00
     4
 # iter = 38000  time[fs]=38.00000
   C -0.285799929E+01  0.114760504E+00  0.781579805E-01
   C  0.246098088E+01  0.286618022E-01 -0.143700660E-01
   H -0.149138928E+02 -0.135735089E+01 -0.130845428E+01
   H  0.145078160E+02 -0.460570911E+00 -0.569219113E+00
     4
 # iter = 38500  time[fs]=38.50000
   C -0.293937396E+01  0.118459867E+00  0.812873208E-01
   C  0.253118132E+01  0.297982869E-01 -0.138741811E-01
   H -0.153003527E+02 -0.139200623E+01 -0.134202496E+01
   H  0.148848771E+02 -0.471489048E+00 -0.583082736E+00
     4
 # iter = 39000  time[fs]=39.00000
   C -0.302117167E+01  0.122166880E+00  0.844246684E-01
   C  0.260178660E+01  0.309259281E-01 -0.133875140E-01
   H -0.156875368E+02 -0.142675813E+01 -0.137568782E+01
   H  0.152627153E+02 -0.482461878E+00 -0.597005204E+00
     4
 # iter = 39500  time[fs]=39.50000
   C -0.310336605E+01  0.125884798E+00  0.875732508E-01
   C  0.267278002E+01  0.320503290E-01 -0.129044295E-01
   H -0.160753855E+02 -0.146157743E+01 -0.140941396E+01
   H  0.156413177E+02 -0.493462223E+00 -0.610959174E+00
     4
 # iter = 40000  time[fs]=40.00000
   C -0.318593438E+01  0.129614915E+00  0.907343372E-01
   C  0.274414367E+01  0.331742523E-01 -0.124221361E-01
   H -0.164638550E+02 -0.149644869E+01 -0.144318813E+01
   H  0.160206603E+02 -0.504476461E+00 -0.624930859E+00
     4
 # iter = 40500  time[fs]=40.50000
   C -0.326885812E+01  0.133355902E+00  0.939065778E-01
   C  0.281585739E+01  0.342966944E-01 -0.119416115E-01
   H -0.168529215E+02 -0.153137451E+01 -0.147701315E+01
   H  0.164007038E+02 -0.515508919E+00 -0.638924439E+00
     4
 # iter = 41000  time[fs]=41.00000
   C -0.335212052E+01  0.137106047E+00  0.970882406E-01
   C  0.288790178E+01  0.354160493E-01 -0.114644380E-01
   H -0.172425661E+02 -0.156636051E+01 -0.151089482E+01
   H  0.167814085E+02 -0.526566819E+00 -0.652946993E+00
     4
 # iter = 41500  time[fs]=41.50000
   C -0.343570510E+01  0.140864652E+00  0.100278610E+00
   C  0.296026005E+01  0.365320891E-01 -0.109908224E-01
   H -0.176327648E+02 -0.160140588E+01 -0.154483249E+01
   H  0.171627431E+02 -0.537650852E+00 -0.666999075E+00
     4
 # iter = 42000  time[fs]=42.00000
   C -0.351959586E+01  0.144631718E+00  0.103477669E+00
   C  0.303291751E+01  0.376455189E-01 -0.105200405E-01
   H -0.180234911E+02 -0.163650548E+01 -0.157882121E+01
   H  0.175446828E+02 -0.548757291E+00 -0.681076831E+00
     4
 # iter = 42500  time[fs]=42.50000
   C -0.360377795E+01  0.148407171E+00  0.106685330E+00
   C  0.310586032E+01  0.387568962E-01 -0.100515173E-01
   H -0.184147204E+02 -0.167165500E+01 -0.161285679E+01
   H  0.179272040E+02 -0.559883130E+00 -0.695177135E+00
     4
 # iter = 43000  time[fs]=43.00000
   C -0.368823782E+01  0.152190633E+00  0.109901201E+00
   C  0.317907515E+01  0.398663063E-01 -0.958515152E-02
   H -0.188064317E+02 -0.170685244E+01 -0.164693739E+01
   H  0.183102822E+02 -0.571027633E+00 -0.709299136E+00
     4
 # iter = 43500  time[fs]=43.50000
   C -0.377296290E+01  0.155981634E+00  0.113124798E+00
   C  0.325254936E+01  0.409736626E-01 -0.912101537E-02
   H -0.191986062E+02 -0.174209676E+01 -0.168106208E+01
   H  0.186938938E+02 -0.582190896E+00 -0.723442822E+00
     4
 # iter = 44000  time[fs]=44.00000
   C -0.385794136E+01  0.159779799E+00  0.116355736E+00
   C  0.332627121E+01  0.420789822E-01 -0.865907860E-02
   H -0.195912257E+02 -0.177738645E+01 -0.171522950E+01
   H  0.190780169E+02 -0.593372541E+00 -0.737607713E+00
     4
 # iter = 44500  time[fs]=44.50000
   C -0.394316204E+01  0.163584859E+00  0.119593734E+00
   C  0.340022983E+01  0.431823928E-01 -0.819920140E-02
   H -0.199842725E+02 -0.181271961E+01 -0.174943783E+01
   H  0.194626316E+02 -0.604571678E+00 -0.751792817E+00
     4
 # iter = 45000  time[fs]=45.00000
   C -0.402861445E+01  0.167396566E+00  0.122838537E+00
   C  0.347441502E+01  0.442840277E-01 -0.774123945E-02
   H -0.203777297E+02 -0.184809434E+01 -0.178368531E+01
   H  0.198477191E+02 -0.615787402E+00 -0.765997141E+00
     4
 # iter = 45500  time[fs]=45.50000
   C -0.411428876E+01  0.171214665E+00  0.126089877E+00
   C  0.354881716E+01  0.453839756E-01 -0.728509411E-02
   H -0.207715819E+02 -0.188350905E+01 -0.181797042E+01
   H  0.202332614E+02 -0.627019037E+00 -0.780219918E+00
     4
 # iter = 46000  time[fs]=46.00000
   C -0.420017574E+01  0.175038896E+00  0.129347488E+00
   C  0.362342719E+01  0.464822978E-01 -0.683069461E-02
   H -0.211658142E+02 -0.191896232E+01 -0.185229186E+01
   H  0.206192415E+02 -0.638266047E+00 -0.794460528E+00
     4
 # iter = 46500  time[fs]=46.50000
   C -0.428626672E+01  0.178869019E+00  0.132611121E+00
   C  0.369823658E+01  0.475790559E-01 -0.637797097E-02
   H -0.215604129E+02 -0.195445279E+01 -0.188664836E+01
   H  0.210056434E+02 -0.649527906E+00 -0.808718365E+00
     4
 # iter = 47000  time[fs]=47.00000
   C -0.437255350E+01  0.182704812E+00  0.135880548E+00
   C  0.377323731E+01  0.486743170E-01 -0.592684816E-02
   H -0.219553646E+02 -0.198997916E+01 -0.192103867E+01
   H  0.213924517E+02 -0.660804074E+00 -0.822992812E+00
     4
 # iter = 47500  time[fs]=47.50000
   C -0.445902834E+01  0.186546068E+00  0.139155555E+00
   C  0.384842181E+01  0.497681474E-01 -0.547725282E-02
   H -0.223506570E+02 -0.202554013E+01 -0.195546161E+01
   H  0.217796522E+02 -0.672094025E+00 -0.837283270E+00
     4
 # iter = 48000  time[fs]=48.00000
   C -0.454568396E+01  0.190392590E+00  0.142435938E+00
   C  0.392378294E+01  0.508606073E-01 -0.502911800E-02
   H -0.227462781E+02 -0.206113452E+01 -0.198991605E+01
   H  0.221672311E+02 -0.683397268E+00 -0.851589179E+00
     4
 # iter = 48500  time[fs]=48.50000
   C -0.463251344E+01  0.194244189E+00  0.145721503E+00
   C  0.399931393E+01  0.519517518E-01 -0.458238245E-02
   H -0.231422166E+02 -0.209676120E+01 -0.202440093E+01
   H  0.225551756E+02 -0.694713348E+00 -0.865910018E+00
     4
 # iter = 49000  time[fs]=49.00000
   C -0.471951028E+01  0.198100687E+00  0.149012066E+00
   C  0.407500842E+01  0.530416329E-01 -0.413698865E-02
   H -0.235384619E+02 -0.213241909E+01 -0.205891526E+01
   H  0.229434732E+02 -0.706041833E+00 -0.880245291E+00
     4
 # iter = 49500  time[fs]=49.50000
   C -0.480666830E+01  0.201961913E+00  0.152307452E+00
   C  0.415086034E+01  0.541303000E-01 -0.369288178E-02
   H -0.239350037E+02 -0.216810718E+01 -0.209345807E+01
   H  0.233321123E+02 -0.717382310E+00 -0.894594523E+00
     4
 # iter = 50000  time[fs]=50.00000
   C -0.489398164E+01  0.205827707E+00  0.155607496E+00
   C  0.422686397E+01  0.552178003E-01 -0.325000983E-02
   H -0.243318325E+02 -0.220382448E+01 -0.212802844E+01
   H  0.237210817E+02 -0.728734383E+00 -0.908957262E+00
     4
 # iter = 50500  time[fs]=50.50000
   C -0.498144476E+01  0.209697917E+00  0.158912040E+00
   C  0.430301387E+01  0.563041784E-01 -0.280832374E-02
   H -0.247289390E+02 -0.223957008E+01 -0.216262552E+01
   H  0.241103708E+02 -0.740097679E+00 -0.923333077E+00
     4
 # iter = 51000  time[fs]=51.00000
   C -0.506905239E+01  0.213572396E+00  0.162220934E+00
   C  0.437930490E+01  0.573894764E-01 -0.236777725E-02
   H -0.251263143E+02 -0.227534309E+01 -0.219724846E+01
   H  0.244999694E+02 -0.751471839E+00 -0.937721557E+00
     4
 # iter = 51500  time[fs]=51.50000
   C -0.515679952E+01  0.217451005E+00  0.165534037E+00
   C  0.445573214E+01  0.584737342E-01 -0.192832657E-02
   H -0.255239502E+02 -0.231114266E+01 -0.223189647E+01
   H  0.248898679E+02 -0.762856523E+00 -0.952122312E+00
     4
 # iter = 52000  time[fs]=52.00000
   C -0.524468140E+01  0.221333614E+00  0.168851212E+00
   C  0.453229096E+01  0.595569896E-01 -0.148993024E-02
   H -0.259218385E+02 -0.234696798E+01 -0.226656880E+01
   H  0.252800571E+02 -0.774251406E+00 -0.966534967E+00
     4
 # iter = 52500  time[fs]=52.50000
   C -0.533269351E+01  0.225220095E+00  0.172172331E+00
   C  0.460897691E+01  0.606392786E-01 -0.105254896E-02
   H -0.263199718E+02 -0.238281830E+01 -0.230126472E+01
   H  0.256705282E+02 -0.785656179E+00 -0.980959165E+00
     4
 # iter = 53000  time[fs]=53.00000
   C -0.542083153E+01  0.229110329E+00  0.175497269E+00
   C  0.468578579E+01  0.617206353E-01 -0.616145422E-03
   H -0.267183426E+02 -0.241869286E+01 -0.233598355E+01
   H  0.260612728E+02 -0.797070544E+00 -0.995394565E+00
     4
 # iter = 53500  time[fs]=53.50000
   C -0.550909136E+01  0.233004201E+00  0.178825909E+00
   C  0.476271358E+01  0.628010924E-01 -0.180684243E-03
   H -0.271169439E+02 -0.245459098E+01 -0.237072461E+01
   H  0.264522828E+02 -0.808494218E+00 -0.100984084E+01
     4
 # iter = 54000  time[fs]=54.00000
   C -0.559746910E+01  0.236901601E+00  0.182158138E+00
   C  0.483975645E+01  0.638806805E-01  0.253868191E-03
   H -0.275157692E+02 -0.249051196E+01 -0.240548729E+01
   H  0.268435505E+02 -0.819926931E+00 -0.102429768E+01
     4
 # iter = 54500  time[fs]=54.50000
   C -0.568596100E+01  0.240802424E+00  0.185493849E+00
   C  0.491691075E+01  0.649594292E-01  0.687543833E-03
   H -0.279148119E+02 -0.252645518E+01 -0.244027096E+01
   H  0.272350685E+02 -0.831368422E+00 -0.103876477E+01
     4
 # iter = 55000  time[fs]=55.00000
   C -0.577456351E+01  0.244706569E+00  0.188832940E+00
   C  0.499417299E+01  0.660373665E-01  0.112037308E-02
   H -0.283140660E+02 -0.256241999E+01 -0.247507504E+01
   H  0.276268298E+02 -0.842818443E+00 -0.105324185E+01
     4
 # iter = 55500  time[fs]=55.50000
   C -0.586327322E+01  0.248613942E+00  0.192175310E+00
   C  0.507153985E+01  0.671145192E-01  0.155238485E-02
   H -0.287135256E+02 -0.259840583E+01 -0.250989899E+01
   H  0.280188277E+02 -0.854276755E+00 -0.106772862E+01
     4
 # iter = 56000  time[fs]=56.00000
   C -0.595208688E+01  0.252524449E+00  0.195520867E+00
   C  0.514900815E+01  0.681909126E-01  0.198360671E-02
   H -0.291131849E+02 -0.263441210E+01 -0.254474225E+01
   H  0.284110555E+02 -0.865743130E+00 -0.108222483E+01
     4
 # iter = 56500  time[fs]=56.50000
   C -0.604100138E+01  0.256438003E+00  0.198869520E+00
   C  0.522657484E+01  0.692665711E-01  0.241406492E-02
   H -0.295130387E+02 -0.267043827E+01 -0.257960432E+01
   H  0.288035071E+02 -0.877217348E+00 -0.109673022E+01
     4
 # iter = 57000  time[fs]=57.00000
   C -0.613001374E+01  0.260354518E+00  0.202221183E+00
   C  0.530423700E+01  0.703415180E-01  0.284378452E-02
   H -0.299130817E+02 -0.270648381E+01 -0.261448470E+01
   H  0.291961764E+02 -0.888699200E+00 -0.111124455E+01
     4
 # iter = 57500  time[fs]=57.50000
   C -0.621912111E+01  0.264273915E+00  0.205575772E+00
   C  0.538199186E+01  0.714157755E-01  0.327278942E-02
   H -0.303133090E+02 -0.274254822E+01 -0.264938292E+01
   H  0.295890578E+02 -0.900188482E+00 -0.112576758E+01
     4
 # iter = 58000  time[fs]=58.00000
   C -0.630832076E+01  0.268196114E+00  0.208933207E+00
   C  0.545983675E+01  0.724893648E-01  0.370110243E-02
   H -0.307137156E+02 -0.277863100E+01 -0.268429851E+01
   H  0.299821456E+02 -0.911685000E+00 -0.114029910E+01
     4
 # iter = 58500  time[fs]=58.50000
   C -0.639761006E+01  0.272121041E+00  0.212293412E+00
   C  0.553776909E+01  0.735623061E-01  0.412874536E-02
   H -0.311142970E+02 -0.281473170E+01 -0.271923105E+01
   H  0.303754347E+02 -0.923188568E+00 -0.115483887E+01
     4
 # iter = 59000  time[fs]=59.00000
   C -0.648698652E+01  0.276048624E+00  0.215656314E+00
   C  0.561578645E+01  0.746346190E-01  0.455573905E-02
   H -0.315150488E+02 -0.285084986E+01 -0.275418009E+01
   H  0.307689197E+02 -0.934699005E+00 -0.116938670E+01
     4
 # iter = 59500  time[fs]=59.50000
   C -0.657644771E+01  0.279978794E+00  0.219021842E+00
   C  0.569388645E+01  0.757063221E-01  0.498210345E-02
   H -0.319159667E+02 -0.288698504E+01 -0.278914524E+01
   H  0.311625959E+02 -0.946216139E+00 -0.118394238E+01
     4
 # iter = 60000  time[fs]=60.00000
   C -0.666599133E+01  0.283911484E+00  0.222389928E+00
   C  0.577206685E+01  0.767774331E-01  0.540785762E-02
   H -0.323170465E+02 -0.292313684E+01 -0.282412611E+01
   H  0.315564584E+02 -0.957739802E+00 -0.119850572E+01
     4
 # iter = 60500  time[fs]=60.50000
   C -0.675561516E+01  0.287846631E+00  0.225760506E+00
   C  0.585032547E+01  0.778479693E-01  0.583301985E-02
   H -0.327182843E+02 -0.295930484E+01 -0.285912231E+01
   H  0.319505028E+02 -0.969269834E+00 -0.121307654E+01
     4
 # iter = 61000  time[fs]=61.00000
   C -0.684531705E+01  0.291784172E+00  0.229133514E+00
   C  0.592866021E+01  0.789179469E-01  0.625760762E-02
   H -0.331196762E+02 -0.299548867E+01 -0.289413347E+01
   H  0.323447245E+02 -0.980806080E+00 -0.122765464E+01
     4
 # iter = 61500  time[fs]=61.50000
   C -0.693509496E+01  0.295724048E+00  0.232508890E+00
   C  0.600706909E+01  0.799873819E-01  0.668163773E-02
   H -0.335212186E+02 -0.303168794E+01 -0.292915925E+01
   H  0.327391194E+02 -0.992348391E+00 -0.124223987E+01
     4
 # iter = 62000  time[fs]=62.00000
   C -0.702494690E+01  0.299666203E+00  0.235886577E+00
   C  0.608555015E+01  0.810562891E-01  0.710512625E-02
   H -0.339229079E+02 -0.306790229E+01 -0.296419930E+01
   H  0.331336833E+02 -0.100389662E+01 -0.125683205E+01
     4
 # iter = 62500  time[fs]=62.50000
   C -0.711487098E+01  0.303610580E+00  0.239266519E+00
   C  0.616410155E+01  0.821246833E-01  0.752808862E-02
   H -0.343247407E+02 -0.310413138E+01 -0.299925330E+01
   H  0.335284122E+02 -0.101545064E+01 -0.127143102E+01
     4
 # iter = 63000  time[fs]=63.00000
   C -0.720486537E+01  0.307557127E+00  0.242648659E+00
   C  0.624272150E+01  0.831925783E-01  0.795053967E-02
   H -0.347267136E+02 -0.314037486E+01 -0.303432092E+01
   H  0.339233025E+02 -0.102701030E+01 -0.128603663E+01
     4
 # iter = 63500  time[fs]=63.50000
   C -0.729492830E+01  0.311505792E+00  0.246032948E+00
   C  0.632140828E+01  0.842599876E-01  0.837249362E-02
   H -0.351288235E+02 -0.317663242E+01 -0.306940187E+01
   H  0.343183502E+02 -0.103857548E+01 -0.130064872E+01
     4
 # iter = 64000  time[fs]=64.00000
   C -0.738505808E+01  0.315456526E+00  0.249419333E+00
   C  0.640016022E+01  0.853269241E-01  0.879396415E-02
   H -0.355310671E+02 -0.321290374E+01 -0.310449583E+01
   H  0.347135520E+02 -0.105014605E+01 -0.131526715E+01
     4
 # iter = 64500  time[fs]=64.50000
   C -0.747525306E+01  0.319409281E+00  0.252807767E+00
   C  0.647897573E+01  0.863934002E-01  0.921496440E-02
   H -0.359334417E+02 -0.324918851E+01 -0.313960254E+01
   H  0.351089042E+02 -0.106172190E+01 -0.132989178E+01
     4
 # iter = 65000  time[fs]=65.00000
   C -0.756551167E+01  0.323364011E+00  0.256198201E+00
   C  0.655785326E+01  0.874594278E-01  0.963550701E-02
   H -0.363359441E+02 -0.328548643E+01 -0.317472170E+01
   H  0.355044037E+02 -0.107330290E+01 -0.134452246E+01
     4
 # iter = 65500  time[fs]=65.50000
   C -0.765583238E+01  0.327320670E+00  0.259590591E+00
   C  0.663679132E+01  0.885250185E-01  0.100556042E-01
   H -0.367385717E+02 -0.332179723E+01 -0.320985305E+01
   H  0.359000472E+02 -0.108488894E+01 -0.135915908E+01
     4
 # iter = 66000  time[fs]=66.00000
   C -0.774621372E+01  0.331279216E+00  0.262984892E+00
   C  0.671578848E+01  0.895901833E-01  0.104752675E-01
   H -0.371413217E+02 -0.335812063E+01 -0.324499632E+01
   H  0.362958314E+02 -0.109647991E+01 -0.137380150E+01
     4
 # iter = 66500  time[fs]=66.50000
   C -0.783665427E+01  0.335239607E+00  0.266381061E+00
   C  0.679484334E+01  0.906549330E-01  0.108945084E-01
   H -0.375441916E+02 -0.339445636E+01 -0.328015128E+01
   H  0.366917535E+02 -0.110807571E+01 -0.138844960E+01
     4
 # iter = 67000  time[fs]=67.00000
   C -0.792715266E+01  0.339201802E+00  0.269779059E+00
   C  0.687395457E+01  0.917192779E-01  0.113133376E-01
   H -0.379471787E+02 -0.343080416E+01 -0.331531767E+01
   H  0.370878105E+02 -0.111967624E+01 -0.140310326E+01
     4
 # iter = 67500  time[fs]=67.50000
   C -0.801770755E+01  0.343165762E+00  0.273178844E+00
   C  0.695312088E+01  0.927832279E-01  0.117317657E-01
   H -0.383502806E+02 -0.346716378E+01 -0.335049525E+01
   H  0.374839996E+02 -0.113128138E+01 -0.141776236E+01
     4
 # iter = 68000  time[fs]=68.00000
   C -0.810831768E+01  0.347131450E+00  0.276580378E+00
   C  0.703234101E+01  0.938467926E-01  0.121498026E-01
   H -0.387534949E+02 -0.350353498E+01 -0.338568380E+01
   H  0.378803180E+02 -0.114289106E+01 -0.143242679E+01
     4
 # iter = 68500  time[fs]=68.50000
   C -0.819898180E+01  0.351098829E+00  0.279983624E+00
   C  0.711161374E+01  0.949099813E-01  0.125674582E-01
   H -0.391568192E+02 -0.353991752E+01 -0.342088309E+01
   H  0.382767629E+02 -0.115450517E+01 -0.144709644E+01
     4
 # iter = 69000  time[fs]=69.00000
   C -0.828969871E+01  0.355067863E+00  0.283388545E+00
   C  0.719093792E+01  0.959728029E-01  0.129847418E-01
   H -0.395602515E+02 -0.357631118E+01 -0.345609291E+01
   H  0.386733320E+02 -0.116612362E+01 -0.146177121E+01
     4
 # iter = 69500  time[fs]=69.50000
   C -0.838046724E+01  0.359038517E+00  0.286795108E+00
   C  0.727031241E+01  0.970352661E-01  0.134016625E-01
   H -0.399637894E+02 -0.361271572E+01 -0.349131305E+01
   H  0.390700226E+02 -0.117774633E+01 -0.147645099E+01
     4
 # iter = 70000  time[fs]=70.00000
   C -0.847128629E+01  0.363010759E+00  0.290203276E+00
   C  0.734973610E+01  0.980973793E-01  0.138182290E-01
   H -0.403674309E+02 -0.364913095E+01 -0.352654330E+01
   H  0.394668323E+02 -0.118937321E+01 -0.149113569E+01
     4
 # iter = 70500  time[fs]=70.50000
   C -0.856215475E+01  0.366984556E+00  0.293613018E+00
   C  0.742920794E+01  0.991591504E-01  0.142344498E-01
   H -0.407711739E+02 -0.368555664E+01 -0.356178348E+01
   H  0.398637588E+02 -0.120100418E+01 -0.150582520E+01
     4
 # iter = 71000  time[fs]=71.00000
   C -0.865307157E+01  0.370959876E+00  0.297024302E+00
   C  0.750872691E+01  0.100220587E+00  0.146503330E-01
   H -0.411750164E+02 -0.372199259E+01 -0.359703337E+01
   H  0.402607997E+02 -0.121263915E+01 -0.152051944E+01
     4
 # iter = 71500  time[fs]=71.50000
   C -0.874403574E+01  0.374936689E+00  0.300437097E+00
   C  0.758829199E+01  0.101281698E+00  0.150658866E-01
   H -0.415789565E+02 -0.375843862E+01 -0.363229281E+01
   H  0.406579529E+02 -0.122427806E+01 -0.153521830E+01
     4
 # iter = 72000  time[fs]=72.00000
   C -0.883504627E+01  0.378914966E+00  0.303851372E+00
   C  0.766790223E+01  0.102342489E+00  0.154811181E-01
   H -0.419829924E+02 -0.379489451E+01 -0.366756161E+01
   H  0.410552162E+02 -0.123592082E+01 -0.154992171E+01
     4
 # iter = 72500  time[fs]=72.50000
   C -0.892610219E+01  0.382894678E+00  0.307267099E+00
   C  0.774755670E+01  0.103402968E+00  0.158960349E-01
   H -0.423871221E+02 -0.383136010E+01 -0.370283958E+01
   H  0.414525874E+02 -0.124756736E+01 -0.156462958E+01
     4
 # iter = 73000  time[fs]=73.00000
   C -0.901720257E+01  0.386875796E+00  0.310684248E+00
   C  0.782725448E+01  0.104463141E+00  0.163106442E-01
   H -0.427913439E+02 -0.386783520E+01 -0.373812657E+01
   H  0.418500646E+02 -0.125921760E+01 -0.157934182E+01
     4
 # iter = 73500  time[fs]=73.50000
   C -0.910834652E+01  0.390858294E+00  0.314102793E+00
   C  0.790699469E+01  0.105523016E+00  0.167249528E-01
   H -0.431956562E+02 -0.390431963E+01 -0.377342241E+01
   H  0.422476457E+02 -0.127087149E+01 -0.159405836E+01
     4
 # iter = 74000  time[fs]=74.00000
   C -0.919953316E+01  0.394842146E+00  0.317522707E+00
   C  0.798677648E+01  0.106582598E+00  0.171389675E-01
   H -0.436000571E+02 -0.394081322E+01 -0.380872693E+01
   H  0.426453289E+02 -0.128252895E+01 -0.160877911E+01
     4
 # iter = 74500  time[fs]=74.50000
   C -0.929076163E+01  0.398827325E+00  0.320943964E+00
   C  0.806659901E+01  0.107641895E+00  0.175526947E-01
   H -0.440045452E+02 -0.397731581E+01 -0.384403998E+01
   H  0.430431122E+02 -0.129418992E+01 -0.162350399E+01
     4
 # iter = 75000  time[fs]=75.00000
   C -0.938203111E+01  0.402813808E+00  0.324366538E+00
   C  0.814646149E+01  0.108700911E+00  0.179661407E-01
   H -0.444091187E+02 -0.401382722E+01 -0.387936140E+01
   H  0.434409938E+02 -0.130585433E+01 -0.163823294E+01
     4
 # iter = 75500  time[fs]=75.50000
   C -0.947334080E+01  0.406801569E+00  0.327790405E+00
   C  0.822636313E+01  0.109759653E+00  0.183793116E-01
   H -0.448137762E+02 -0.405034732E+01 -0.391469104E+01
   H  0.438389720E+02 -0.131752212E+01 -0.165296587E+01
     4
 # iter = 76000  time[fs]=76.00000
   C -0.956468992E+01  0.410790585E+00  0.331215541E+00
   C  0.830630317E+01  0.110818127E+00  0.187922133E-01
   H -0.452185162E+02 -0.408687594E+01 -0.395002876E+01
   H  0.442370450E+02 -0.132919322E+01 -0.166770273E+01
     4
 # iter = 76500  time[fs]=76.50000
   C -0.965607771E+01  0.414780834E+00  0.334641922E+00
   C  0.838628088E+01  0.111876337E+00  0.192048514E-01
   H -0.456233372E+02 -0.412341292E+01 -0.398537443E+01
   H  0.446352112E+02 -0.134086759E+01 -0.168244343E+01
     4
 # iter = 77000  time[fs]=77.00000
   C -0.974750345E+01  0.418772293E+00  0.338069527E+00
   C  0.846629553E+01  0.112934290E+00  0.196172315E-01
   H -0.460282378E+02 -0.415995814E+01 -0.402072789E+01
   H  0.450334688E+02 -0.135254516E+01 -0.169718792E+01
     4
 # iter = 77500  time[fs]=77.50000
   C -0.983896640E+01  0.422764940E+00  0.341498333E+00
   C  0.854634642E+01  0.113991991E+00  0.200293590E-01
   H -0.464332165E+02 -0.419651144E+01 -0.405608901E+01
   H  0.454318163E+02 -0.136422588E+01 -0.171193612E+01
     4
 # iter = 78000  time[fs]=78.00000
   C -0.993046589E+01  0.426758755E+00  0.344928319E+00
   C  0.862643289E+01  0.115049444E+00  0.204412390E-01
   H -0.468382721E+02 -0.423307269E+01 -0.409145768E+01
   H  0.458302522E+02 -0.137590969E+01 -0.172668797E+01
     4
 # iter = 78500  time[fs]=78.50000
   C -0.100220012E+02  0.430753717E+00  0.348359463E+00
   C  0.870655426E+01  0.116106655E+00  0.208528768E-01
   H -0.472434032E+02 -0.426964174E+01 -0.412683375E+01
   H  0.462287749E+02 -0.138759654E+01 -0.174144341E+01
     4
 # iter = 79000  time[fs]=79.00000
   C -0.101135718E+02  0.434749805E+00  0.351791747E+00
   C  0.878670991E+01  0.117163628E+00  0.212642770E-01
   H -0.476486086E+02 -0.430621848E+01 -0.416221710E+01
   H  0.466273830E+02 -0.139928638E+01 -0.175620239E+01
     4
 # iter = 79500  time[fs]=79.50000
   C -0.102051768E+02  0.438747000E+00  0.355225148E+00
   C  0.886689919E+01  0.118220368E+00  0.216754446E-01
   H -0.480538869E+02 -0.434280277E+01 -0.419760761E+01
   H  0.470260749E+02 -0.141097916E+01 -0.177096483E+01
     4
 # iter = 80000  time[fs]=80.00000
   C -0.102968159E+02  0.442745284E+00  0.358659650E+00
   C  0.894712151E+01  0.119276879E+00  0.220863841E-01
   H -0.484592370E+02 -0.437939449E+01 -0.423300517E+01
   H  0.474248494E+02 -0.142267483E+01 -0.178573069E+01
