     4
 # iter = 25000  time[fs]=25.00000
   C -0.991676733E+00  0.144343822E-02 -0.467338995E-01
   C  0.100416237E+01 -0.109407647E-01  0.353051158E-01
   H -0.523946056E+01 -0.709504750E+00 -0.267838647E+00
   H  0.525881247E+01  0.679601694E+00 -0.361596997E+00
     4
 # iter = 25500  time[fs]=25.50000
   C -0.103923869E+01  0.315012084E-02 -0.479257376E-01
   C  0.104570533E+01 -0.156323840E-01  0.359402659E-01
   H -0.558078547E+01 -0.761855858E+00 -0.290758185E+00
   H  0.556942372E+01  0.714229661E+00 -0.394070447E+00
     4
 # iter = 26000  time[fs]=26.00000
   C -0.109052103E+01  0.410794309E-02 -0.500249715E-01
   C  0.108895366E+01 -0.215432253E-01  0.355837199E-01
   H -0.593264192E+01 -0.820352635E+00 -0.319328860E+00
   H  0.588043164E+01  0.744304980E+00 -0.432418963E+00
     4
 # iter = 26500  time[fs]=26.50000
   C -0.114288895E+01  0.671316013E-02 -0.506260867E-01
   C  0.113710834E+01 -0.252345983E-01  0.376583540E-01
   H -0.627834764E+01 -0.868826787E+00 -0.337441168E+00
   H  0.620731222E+01  0.785828200E+00 -0.460504547E+00
     4
 # iter = 27000  time[fs]=27.00000
   C -0.119599723E+01  0.110843275E-01 -0.496015102E-01
   C  0.119011743E+01 -0.265357860E-01  0.423196353E-01
   H -0.661661706E+01 -0.906411215E+00 -0.344275506E+00
   H  0.655031557E+01  0.839515742E+00 -0.477488496E+00
     4
 # iter = 27500  time[fs]=27.50000
   C -0.125141594E+01  0.154387650E-01 -0.487252181E-01
   C  0.124521710E+01 -0.280040718E-01  0.469956991E-01
   H -0.695901314E+01 -0.945011821E+00 -0.351776440E+00
   H  0.689698301E+01  0.893324587E+00 -0.495304635E+00
     4
 # iter = 28000  time[fs]=28.00000
   C -0.131021271E+01  0.185143953E-01 -0.492509130E-01
   C  0.130040935E+01 -0.314480176E-01  0.498645737E-01
   H -0.731365386E+01 -0.993043393E+00 -0.368392082E+00
   H  0.723842620E+01  0.938723297E+00 -0.522390661E+00
     4
 # iter = 28500  time[fs]=28.50000
   C -0.137170460E+01  0.208189933E-01 -0.506628205E-01
   C  0.135625537E+01 -0.361340613E-01  0.516477583E-01
   H -0.767680602E+01 -0.104703902E+01 -0.390685374E+00
   H  0.757771873E+01  0.979085287E+00 -0.555294546E+00
     4
 # iter = 29000  time[fs]=29.00000
   C -0.143448566E+01  0.236004551E-01 -0.517054848E-01
   C  0.141439557E+01 -0.402653927E-01  0.541311059E-01
   H -0.803979993E+01 -0.109856551E+01 -0.410249582E+00
   H  0.792295968E+01  0.102276616E+01 -0.585593456E+00
     4
 # iter = 29500  time[fs]=29.50000
   C -0.149798243E+01  0.272884440E-01 -0.519421625E-01
   C  0.147531012E+01 -0.432199484E-01  0.579265327E-01
   H -0.839949802E+01 -0.114468990E+01 -0.424174594E+00
   H  0.827678383E+01  0.107262781E+01 -0.610365833E+00
     4
 # iter = 30000  time[fs]=30.00000
   C -0.156267111E+01  0.312758374E-01 -0.519733790E-01
   C  0.153800370E+01 -0.458644019E-01  0.621579281E-01
   H -0.875975901E+01 -0.118944706E+01 -0.436514907E+00
   H  0.863488537E+01  0.112456821E+01 -0.633660007E+00
     4
 # iter = 30500  time[fs]=30.50000
   C -0.162911018E+01  0.348855867E-01 -0.524700497E-01
   C  0.160139296E+01 -0.491657393E-01  0.658496223E-01
   H -0.912493583E+01 -0.123734462E+01 -0.451795372E+00
   H  0.899251565E+01  0.117401973E+01 -0.659995790E+00
     4
 # iter = 31000  time[fs]=31.00000
   C -0.169720430E+01  0.381062031E-01 -0.534379714E-01
   C  0.166536164E+01 -0.531350837E-01  0.689825807E-01
   H -0.949492926E+01 -0.128842215E+01 -0.470070984E+00
   H  0.934942563E+01  0.122089241E+01 -0.689421064E+00
     4
 # iter = 31500  time[fs]=31.50000
   C -0.176641896E+01  0.413759262E-01 -0.544336333E-01
   C  0.173044942E+01 -0.571377758E-01  0.721842515E-01
   H -0.986663570E+01 -0.133970092E+01 -0.488376924E+00
   H  0.970841092E+01  0.126812220E+01 -0.718962695E+00
     4
 # iter = 32000  time[fs]=32.00000
   C -0.183639605E+01  0.449657533E-01 -0.551811651E-01
   C  0.179696459E+01 -0.607795583E-01  0.758422770E-01
   H -0.102380911E+02 -0.138932852E+01 -0.504873202E+00
   H  0.100711595E+02  0.131752267E+01 -0.746773799E+00
     4
 # iter = 32500  time[fs]=32.50000
   C -0.190717402E+01  0.487581779E-01 -0.557935737E-01
   C  0.186466531E+01 -0.642243870E-01  0.797866084E-01
   H -0.106099560E+02 -0.143806501E+01 -0.520330959E+00
   H  0.104367614E+02  0.136829708E+01 -0.773620910E+00
     4
 # iter = 33000  time[fs]=33.00000
   C -0.197892138E+01  0.525129291E-01 -0.565069761E-01
   C  0.193314044E+01 -0.678127468E-01  0.836711548E-01
   H -0.109837283E+02 -0.148749738E+01 -0.536347104E+00
   H  0.108034933E+02  0.141882478E+01 -0.801097330E+00
     4
 # iter = 33500  time[fs]=33.50000
   C -0.205164455E+01  0.561584866E-01 -0.573890569E-01
   C  0.200222753E+01 -0.716429447E-01  0.873924620E-01
   H -0.113597824E+02 -0.153808085E+01 -0.553385839E+00
   H  0.111707781E+02  0.146862082E+01 -0.829663281E+00
     4
 # iter = 34000  time[fs]=34.00000
   C -0.212518423E+01  0.597949922E-01 -0.583361311E-01
   C  0.207201631E+01 -0.755669421E-01  0.910938427E-01
   H -0.117373487E+02 -0.158911917E+01 -0.570759105E+00
   H  0.115392024E+02  0.151835530E+01 -0.858626310E+00
     4
 # iter = 34500  time[fs]=34.50000
   C -0.219938861E+01  0.635204111E-01 -0.592469599E-01
   C  0.214259837E+01 -0.794400597E-01  0.949156265E-01
   H -0.121156808E+02 -0.163993250E+01 -0.587794482E+00
   H  0.119093465E+02  0.156868430E+01 -0.887309956E+00
     4
 # iter = 35000  time[fs]=35.00000
   C -0.227421164E+01  0.673316792E-01 -0.601215812E-01
   C  0.221392460E+01 -0.832629624E-01  0.988531359E-01
   H -0.124947183E+02 -0.169052133E+01 -0.604499254E+00
   H  0.122811189E+02  0.161958522E+01 -0.915718239E+00
     4
 # iter = 35500  time[fs]=35.50000
   C -0.234966664E+01  0.711705592E-01 -0.610154326E-01
   C  0.228587063E+01 -0.871157785E-01  0.102822537E+00
   H -0.128747787E+02 -0.174125831E+01 -0.621252239E+00
   H  0.126540633E+02  0.167066491E+01 -0.944227229E+00
     4
 # iter = 36000  time[fs]=36.00000
   C -0.242574477E+01  0.750048154E-01 -0.619581575E-01
   C  0.235835299E+01 -0.910414870E-01  0.106777425E+00
   H -0.132560105E+02 -0.179234269E+01 -0.638258343E+00
   H  0.130279040E+02  0.172170547E+01 -0.973039192E+00
     4
 # iter = 36500  time[fs]=36.50000
   C -0.250239606E+01  0.788467731E-01 -0.629350277E-01
   C  0.243135540E+01 -0.950192503E-01  0.110735470E+00
   H -0.136382683E+02 -0.184367550E+01 -0.655423822E+00
   H  0.134026700E+02  0.177278888E+01 -0.100205774E+01
     4
 # iter = 37000  time[fs]=37.00000
   C -0.257956330E+01  0.827190619E-01 -0.639211849E-01
   C  0.250487925E+01 -0.990136140E-01  0.114729194E+00
   H -0.140213422E+02 -0.189508969E+01 -0.672586404E+00
   H  0.137784642E+02  0.182406667E+01 -0.103111812E+01
     4
 # iter = 37500  time[fs]=37.50000
   C -0.265720994E+01  0.866264684E-01 -0.649097722E-01
   C  0.257890286E+01 -0.103014929E+00  0.118765523E+00
   H -0.144051465E+02 -0.194653910E+01 -0.689704352E+00
   H  0.141552733E+02  0.187557057E+01 -0.106017636E+01
     4
 # iter = 38000  time[fs]=38.00000
   C -0.273531664E+01  0.905590326E-01 -0.659088252E-01
   C  0.265338566E+01 -0.107034893E+00  0.122830231E+00
   H -0.147896989E+02 -0.199807759E+01 -0.706835615E+00
   H  0.145329888E+02  0.192723329E+01 -0.108928839E+01
     4
 # iter = 38500  time[fs]=38.50000
   C -0.281386506E+01  0.945081034E-01 -0.669252042E-01
   C  0.272829108E+01 -0.111083477E+00  0.126910998E+00
   H -0.151750116E+02 -0.204975109E+01 -0.724029906E+00
   H  0.149115139E+02  0.197899650E+01 -0.111850206E+01
     4
 # iter = 39000  time[fs]=39.00000
   C -0.289283083E+01  0.984730760E-01 -0.679578452E-01
   C  0.280359595E+01 -0.115159235E+00  0.131007079E+00
   H -0.155610459E+02 -0.210155227E+01 -0.741283391E+00
   H  0.152908089E+02  0.203085606E+01 -0.114781176E+01
     4
 # iter = 39500  time[fs]=39.50000
   C -0.297218790E+01  0.102456921E+00 -0.690022210E-01
   C  0.287928396E+01 -0.119255722E+00  0.135122880E+00
   H -0.159477424E+02 -0.215345047E+01 -0.758568694E+00
   H  0.156708608E+02  0.208283194E+01 -0.117718844E+01
     4
 # iter = 40000  time[fs]=40.00000
   C -0.305191384E+01  0.106460660E+00 -0.700558582E-01
   C  0.295533754E+01 -0.123369418E+00  0.139260014E+00
   H -0.163350572E+02 -0.220542885E+01 -0.775871996E+00
   H  0.160516460E+02  0.213493106E+01 -0.120661671E+01
     4
 # iter = 40500  time[fs]=40.50000
   C -0.313199039E+01  0.110482702E+00 -0.711189883E-01
   C  0.303173678E+01 -0.127500673E+00  0.143416355E+00
   H -0.167229664E+02 -0.225748870E+01 -0.793197430E+00
   H  0.164331253E+02  0.218714286E+01 -0.123609927E+01
     4
 # iter = 41000  time[fs]=41.00000
   C -0.321240104E+01  0.114521083E+00 -0.721923049E-01
   C  0.310846247E+01 -0.131650482E+00  0.147589239E+00
   H -0.171114511E+02 -0.230963441E+01 -0.810552033E+00
   H  0.168152590E+02  0.223945427E+01 -0.126564179E+01
     4
 # iter = 41500  time[fs]=41.50000
   C -0.329312955E+01  0.118574860E+00 -0.732755589E-01
   C  0.318549806E+01 -0.135818476E+00  0.151777477E+00
   H -0.175004875E+02 -0.236186405E+01 -0.827936329E+00
   H  0.171980160E+02  0.229185914E+01 -0.129524352E+01
     4
 # iter = 42000  time[fs]=42.00000
   C -0.337416016E+01  0.122643799E+00 -0.743678704E-01
   C  0.326282905E+01 -0.140003367E+00  0.155980894E+00
   H -0.178900489E+02 -0.241417140E+01 -0.845346436E+00
   H  0.175813717E+02  0.234435609E+01 -0.132489938E+01
     4
 # iter = 42500  time[fs]=42.50000
   C -0.345547822E+01  0.126727599E+00 -0.754684905E-01
   C  0.334044185E+01 -0.144204049E+00  0.160199224E+00
   H -0.182801108E+02 -0.246655115E+01 -0.862779205E+00
   H  0.179653024E+02  0.239694332E+01 -0.135460509E+01
     4
 # iter = 43000  time[fs]=43.00000
   C -0.353707035E+01  0.130825667E+00 -0.765770291E-01
   C  0.341832328E+01 -0.148419921E+00  0.164431777E+00
   H -0.186706522E+02 -0.251900037E+01 -0.880233762E+00
   H  0.183497841E+02  0.244961706E+01 -0.138435871E+01
     4
 # iter = 43500  time[fs]=43.50000
   C -0.361892419E+01  0.134937321E+00 -0.776932400E-01
   C  0.349646088E+01 -0.152650585E+00  0.168677738E+00
   H -0.190616544E+02 -0.257151713E+01 -0.897710076E+00
   H  0.187347931E+02  0.250237299E+01 -0.141415920E+01
     4
 # iter = 44000  time[fs]=44.00000
   C -0.370102808E+01  0.139061989E+00 -0.788168242E-01
   C  0.357484308E+01 -0.156895562E+00  0.172936441E+00
   H -0.194530991E+02 -0.262409912E+01 -0.915207645E+00
   H  0.191203077E+02  0.255520748E+01 -0.144400513E+01
     4
 # iter = 44500  time[fs]=44.50000
   C -0.378337100E+01  0.143199208E+00 -0.799474227E-01
   C  0.365345914E+01 -0.161154284E+00  0.177207380E+00
   H -0.198449687E+02 -0.267674361E+01 -0.932725465E+00
   H  0.195063081E+02  0.260811768E+01 -0.147389458E+01
     4
 # iter = 45000  time[fs]=45.00000
   C -0.386594262E+01  0.147348548E+00 -0.810846901E-01
   C  0.373229902E+01 -0.165426198E+00  0.181490089E+00
   H -0.202372465E+02 -0.272944801E+01 -0.950262527E+00
   H  0.198927756E+02  0.266110094E+01 -0.150382571E+01
     4
 # iter = 45500  time[fs]=45.50000
   C -0.394873326E+01  0.151509575E+00 -0.822283283E-01
   C  0.381135323E+01 -0.169710817E+00  0.185784094E+00
   H -0.206299168E+02 -0.278221002E+01 -0.967818051E+00
   H  0.202796924E+02  0.271415458E+01 -0.153379692E+01
     4
 # iter = 46000  time[fs]=46.00000
   C -0.403173381E+01  0.155681863E+00 -0.833780728E-01
   C  0.389061283E+01 -0.174007702E+00  0.190088930E+00
   H -0.210229650E+02 -0.283502756E+01 -0.985391405E+00
   H  0.206670416E+02  0.276727597E+01 -0.156380683E+01
     4
 # iter = 46500  time[fs]=46.50000
   C -0.411493572E+01  0.159865008E+00 -0.845336725E-01
   C  0.397006941E+01 -0.178316431E+00  0.194404157E+00
   H -0.214163773E+02 -0.288789866E+01 -0.100298197E+01
   H  0.210548072E+02  0.282046264E+01 -0.159385410E+01
     4
 # iter = 47000  time[fs]=47.00000
   C -0.419833091E+01  0.164058633E+00 -0.856948848E-01
   C  0.404971506E+01 -0.182636593E+00  0.198729375E+00
   H -0.218101404E+02 -0.294082142E+01 -0.102058913E+01
   H  0.214429741E+02  0.287371229E+01 -0.162393743E+01
     4
 # iter = 47500  time[fs]=47.50000
   C -0.428191176E+01  0.168262382E+00 -0.868614789E-01
   C  0.412954231E+01 -0.186967795E+00  0.203064204E+00
   H -0.222042420E+02 -0.299379400E+01 -0.103821227E+01
   H  0.218315282E+02  0.292702274E+01 -0.165405554E+01
     4
 # iter = 48000  time[fs]=48.00000
   C -0.436567108E+01  0.172475915E+00 -0.880332389E-01
   C  0.420954412E+01 -0.191309665E+00  0.207408288E+00
   H -0.225986701E+02 -0.304681467E+01 -0.105585082E+01
   H  0.222204557E+02  0.298039194E+01 -0.168420726E+01
     4
 # iter = 48500  time[fs]=48.50000
   C -0.444960207E+01  0.176698906E+00 -0.892099625E-01
   C  0.428971382E+01 -0.195661850E+00  0.211761283E+00
   H -0.229934136E+02 -0.309988182E+01 -0.107350426E+01
   H  0.226097440E+02  0.303381791E+01 -0.171439146E+01
     4
 # iter = 49000  time[fs]=49.00000
   C -0.453369829E+01  0.180931045E+00 -0.903914585E-01
   C  0.437004512E+01 -0.200024014E+00  0.216122869E+00
   H -0.233884618E+02 -0.315299390E+01 -0.109117208E+01
   H  0.229993807E+02  0.308729877E+01 -0.174460709E+01
     4
 # iter = 49500  time[fs]=49.50000
   C -0.461795366E+01  0.185172036E+00 -0.915775460E-01
   C  0.445053204E+01 -0.204395836E+00  0.220492738E+00
   H -0.237838045E+02 -0.320614942E+01 -0.110885381E+01
   H  0.233893542E+02  0.314083273E+01 -0.177485312E+01
     4
 # iter = 50000  time[fs]=50.00000
   C -0.470236242E+01  0.189421597E+00 -0.927680535E-01
   C  0.453116893E+01 -0.208777008E+00  0.224870601E+00
   H -0.241794322E+02 -0.325934699E+01 -0.112654898E+01
   H  0.237796535E+02  0.319441811E+01 -0.180512860E+01
     4
 # iter = 50500  time[fs]=50.50000
   C -0.478691908E+01  0.193679460E+00 -0.939628187E-01
   C  0.461195044E+01 -0.213167238E+00  0.229256182E+00
   H -0.245753356E+02 -0.331258526E+01 -0.114425717E+01
   H  0.241702681E+02  0.324805327E+01 -0.183543259E+01
     4
 # iter = 51000  time[fs]=51.00000
   C -0.487161845E+01  0.197945366E+00 -0.951616878E-01
   C  0.469287147E+01 -0.217566247E+00  0.233649220E+00
   H -0.249715059E+02 -0.336586296E+01 -0.116197795E+01
   H  0.245611879E+02  0.330173668E+01 -0.186576422E+01
     4
 # iter = 51500  time[fs]=51.50000
   C -0.495645561E+01  0.202219071E+00 -0.963645151E-01
   C  0.477392720E+01 -0.221973767E+00  0.238049467E+00
   H -0.253679349E+02 -0.341917888E+01 -0.117971093E+01
   H  0.249524033E+02  0.335546686E+01 -0.189612265E+01
     4
 # iter = 52000  time[fs]=52.00000
   C -0.504142586E+01  0.206500339E+00 -0.975711621E-01
   C  0.485511302E+01 -0.226389542E+00  0.242456685E+00
   H -0.257646146E+02 -0.347253185E+01 -0.119745575E+01
   H  0.253439054E+02  0.340924240E+01 -0.192650708E+01
     4
 # iter = 52500  time[fs]=52.50000
   C -0.512652473E+01  0.210788945E+00 -0.987814972E-01
   C  0.493642458E+01 -0.230813328E+00  0.246870649E+00
   H -0.261615373E+02 -0.352592077E+01 -0.121521202E+01
   H  0.257356852E+02  0.346306195E+01 -0.195691673E+01
     4
 # iter = 53000  time[fs]=53.00000
   C -0.521174799E+01  0.215084673E+00 -0.999953954E-01
   C  0.501785771E+01 -0.235244890E+00  0.251291144E+00
   H -0.265586957E+02 -0.357934456E+01 -0.123297943E+01
   H  0.261277346E+02  0.351692423E+01 -0.198735087E+01
     4
 # iter = 53500  time[fs]=53.50000
   C -0.529709158E+01  0.219387318E+00 -0.101212738E+00
   C  0.509940845E+01 -0.239684004E+00  0.255717966E+00
   H -0.269560831E+02 -0.363280222E+01 -0.125075762E+01
   H  0.265200455E+02  0.357082800E+01 -0.201780881E+01
     4
 # iter = 54000  time[fs]=54.00000
   C -0.538255164E+01  0.223696681E+00 -0.102433411E+00
   C  0.518107301E+01 -0.244130454E+00  0.260150917E+00
   H -0.273536926E+02 -0.368629278E+01 -0.126854630E+01
   H  0.269126103E+02  0.362477209E+01 -0.204828986E+01
     4
 # iter = 54500  time[fs]=54.50000
   C -0.546812450E+01  0.228012573E+00 -0.103657306E+00
   C  0.526284780E+01 -0.248584035E+00  0.264589812E+00
   H -0.277515179E+02 -0.373981530E+01 -0.128634515E+01
   H  0.273054217E+02  0.367875536E+01 -0.207879338E+01
     4
 # iter = 55000  time[fs]=55.00000
   C -0.555380663E+01  0.232334811E+00 -0.104884322E+00
   C  0.534472938E+01 -0.253044548E+00  0.269034472E+00
   H -0.281495529E+02 -0.379336889E+01 -0.130415390E+01
   H  0.276984727E+02  0.373277672E+01 -0.210931875E+01
     4
 # iter = 55500  time[fs]=55.50000
   C -0.563959469E+01  0.236663222E+00 -0.106114359E+00
   C  0.542671445E+01 -0.257511803E+00  0.273484727E+00
   H -0.285477917E+02 -0.384695270E+01 -0.132197226E+01
   H  0.280917567E+02  0.378683514E+01 -0.213986538E+01
     4
 # iter = 56000  time[fs]=56.00000
   C -0.572548546E+01  0.240997636E+00 -0.107347323E+00
   C  0.550879988E+01 -0.261985618E+00  0.277940412E+00
   H -0.289462288E+02 -0.390056590E+01 -0.133979997E+01
   H  0.284852672E+02  0.384092962E+01 -0.217043270E+01
     4
 # iter = 56500  time[fs]=56.50000
   C -0.581147587E+01  0.245337894E+00 -0.108583126E+00
   C  0.559098267E+01 -0.266465816E+00  0.282401371E+00
   H -0.293448588E+02 -0.395420771E+01 -0.135763677E+01
   H  0.288789980E+02  0.389505920E+01 -0.220102016E+01
     4
 # iter = 57000  time[fs]=57.00000
   C -0.589756299E+01  0.249683840E+00 -0.109821681E+00
   C  0.567325993E+01 -0.270952230E+00  0.286867455E+00
   H -0.297436765E+02 -0.400787736E+01 -0.137548242E+01
   H  0.292729433E+02  0.394922295E+01 -0.223162723E+01
     4
 # iter = 57500  time[fs]=57.50000
   C -0.598374400E+01  0.254035324E+00 -0.111062907E+00
   C  0.575562892E+01 -0.275444696E+00  0.291338519E+00
   H -0.301426768E+02 -0.406157414E+01 -0.139333669E+01
   H  0.296670973E+02  0.400341999E+01 -0.226225341E+01
     4
 # iter = 58000  time[fs]=58.00000
   C -0.607001621E+01  0.258392204E+00 -0.112306724E+00
   C  0.583808700E+01 -0.279943059E+00  0.295814426E+00
   H -0.305418552E+02 -0.411529734E+01 -0.141119935E+01
   H  0.300614545E+02  0.405764946E+01 -0.229289821E+01
     4
 # iter = 58500  time[fs]=58.50000
   C -0.615637703E+01  0.262754342E+00 -0.113553059E+00
   C  0.592063164E+01 -0.284447169E+00  0.300295044E+00
   H -0.309412068E+02 -0.416904628E+01 -0.142907019E+01
   H  0.304560098E+02  0.411191056E+01 -0.232356116E+01
     4
 # iter = 59000  time[fs]=59.00000
   C -0.624282399E+01  0.267121604E+00 -0.114801838E+00
   C  0.600326041E+01 -0.288956881E+00  0.304780245E+00
   H -0.313407274E+02 -0.422282033E+01 -0.144694899E+01
   H  0.308507580E+02  0.416620247E+01 -0.235424181E+01
     4
 # iter = 59500  time[fs]=59.50000
   C -0.632935471E+01  0.271493862E+00 -0.116052993E+00
   C  0.608597099E+01 -0.293472054E+00  0.309269908E+00
   H -0.317404127E+02 -0.427661886E+01 -0.146483555E+01
   H  0.312456942E+02  0.422052446E+01 -0.238493972E+01
     4
 # iter = 60000  time[fs]=60.00000
   C -0.641596691E+01  0.275870994E+00 -0.117306457E+00
   C  0.616876115E+01 -0.297992555E+00  0.313763915E+00
   H -0.321402586E+02 -0.433044125E+01 -0.148272968E+01
   H  0.316408139E+02  0.427487577E+01 -0.241565448E+01
     4
 # iter = 60500  time[fs]=60.50000
   C -0.650265839E+01  0.280252879E+00 -0.118562168E+00
   C  0.625162874E+01 -0.302518255E+00  0.318262153E+00
   H -0.325402611E+02 -0.438428695E+01 -0.150063120E+01
   H  0.320361124E+02  0.432925571E+01 -0.244638568E+01
     4
 # iter = 61000  time[fs]=61.00000
   C -0.658942704E+01  0.284639404E+00 -0.119820063E+00
   C  0.633457170E+01 -0.307049027E+00  0.322764514E+00
   H -0.329404165E+02 -0.443815538E+01 -0.151853993E+01
   H  0.324315855E+02  0.438366360E+01 -0.247713293E+01
     4
 # iter = 61500  time[fs]=61.50000
   C -0.667627084E+01  0.289030456E+00 -0.121080085E+00
   C  0.641758804E+01 -0.311584751E+00  0.327270894E+00
   H -0.333407210E+02 -0.449204601E+01 -0.153645568E+01
   H  0.328272288E+02  0.443809877E+01 -0.250789585E+01
     4
 # iter = 62000  time[fs]=62.00000
   C -0.676318784E+01  0.293425930E+00 -0.122342177E+00
   C  0.650067586E+01 -0.316125311E+00  0.331781192E+00
   H -0.337411712E+02 -0.454595832E+01 -0.155437830E+01
   H  0.332230385E+02  0.449256058E+01 -0.253867409E+01
     4
 # iter = 62500  time[fs]=62.50000
   C -0.685017616E+01  0.297825723E+00 -0.123606284E+00
   C  0.658383333E+01 -0.320670594E+00  0.336295311E+00
   H -0.341417636E+02 -0.459989180E+01 -0.157230763E+01
   H  0.336190105E+02  0.454704844E+01 -0.256946728E+01
     4
 # iter = 63000  time[fs]=63.00000
   C -0.693723400E+01  0.302229733E+00 -0.124872356E+00
   C  0.666705867E+01 -0.325220491E+00  0.340813158E+00
   H -0.345424949E+02 -0.465384597E+01 -0.159024350E+01
   H  0.340151411E+02  0.460156173E+01 -0.260027510E+01
     4
 # iter = 63500  time[fs]=63.50000
   C -0.702435961E+01  0.306637865E+00 -0.126140340E+00
   C  0.675035018E+01 -0.329774898E+00  0.345334643E+00
   H -0.349433619E+02 -0.470782037E+01 -0.160818577E+01
   H  0.344114266E+02  0.465609990E+01 -0.263109721E+01
     4
 # iter = 64000  time[fs]=64.00000
   C -0.711155132E+01  0.311050026E+00 -0.127410190E+00
   C  0.683370623E+01 -0.334333712E+00  0.349859678E+00
   H -0.353443616E+02 -0.476181453E+01 -0.162613430E+01
   H  0.348078635E+02  0.471066238E+01 -0.266193329E+01
     4
 # iter = 64500  time[fs]=64.50000
   C -0.719880750E+01  0.315466125E+00 -0.128681858E+00
   C  0.691712522E+01 -0.338896835E+00  0.354388180E+00
   H -0.357454909E+02 -0.481582803E+01 -0.164408894E+01
   H  0.352044485E+02  0.476524865E+01 -0.269278305E+01
     4
 # iter = 65000  time[fs]=65.00000
   C -0.728612661E+01  0.319886076E+00 -0.129955300E+00
   C  0.700060565E+01 -0.343464173E+00  0.358920069E+00
   H -0.361467471E+02 -0.486986043E+01 -0.166204955E+01
   H  0.356011782E+02  0.481985818E+01 -0.272364617E+01
     4
 # iter = 65500  time[fs]=65.50000
   C -0.737350713E+01  0.324309793E+00 -0.131230473E+00
   C  0.708414603E+01 -0.348035632E+00  0.363455266E+00
   H -0.365481273E+02 -0.492391133E+01 -0.168001601E+01
   H  0.359980494E+02  0.487449047E+01 -0.275452239E+01
     4
 # iter = 66000  time[fs]=66.00000
   C -0.746094761E+01  0.328737195E+00 -0.132507334E+00
   C  0.716774494E+01 -0.352611125E+00  0.367993695E+00
   H -0.369496288E+02 -0.497798033E+01 -0.169798819E+01
   H  0.363950591E+02  0.492914503E+01 -0.278541141E+01
     4
 # iter = 66500  time[fs]=66.50000
   C -0.754844665E+01  0.333168203E+00 -0.133785843E+00
   C  0.725140101E+01 -0.357190565E+00  0.372535283E+00
   H -0.373512491E+02 -0.503206705E+01 -0.171596597E+01
   H  0.367922042E+02  0.498382140E+01 -0.281631297E+01
     4
 # iter = 67000  time[fs]=67.00000
   C -0.763600289E+01  0.337602741E+00 -0.135065962E+00
   C  0.733511292E+01 -0.361773867E+00  0.377079960E+00
   H -0.377529855E+02 -0.508617111E+01 -0.173394922E+01
   H  0.371894820E+02  0.503851912E+01 -0.284722680E+01
     4
 # iter = 67500  time[fs]=67.50000
   C -0.772361503E+01  0.342040733E+00 -0.136347652E+00
   C  0.741887939E+01 -0.366360952E+00  0.381627658E+00
   H -0.381548357E+02 -0.514029215E+01 -0.175193783E+01
   H  0.375868895E+02  0.509323775E+01 -0.287815266E+01
     4
 # iter = 68000  time[fs]=68.00000
   C -0.781128180E+01  0.346482109E+00 -0.137630878E+00
   C  0.750269918E+01 -0.370951740E+00  0.386178311E+00
   H -0.385567972E+02 -0.519442983E+01 -0.176993170E+01
   H  0.379844241E+02  0.514797686E+01 -0.290909030E+01
     4
 # iter = 68500  time[fs]=68.50000
   C -0.789900197E+01  0.350926798E+00 -0.138915605E+00
   C  0.758657110E+01 -0.375546156E+00  0.390731854E+00
   H -0.389588679E+02 -0.524858380E+01 -0.178793070E+01
   H  0.383820832E+02  0.520273603E+01 -0.294003948E+01
     4
 # iter = 69000  time[fs]=69.00000
   C -0.798677436E+01  0.355374732E+00 -0.140201798E+00
   C  0.767049397E+01 -0.380144125E+00  0.395288227E+00
   H -0.393610454E+02 -0.530275373E+01 -0.180593474E+01
   H  0.387798642E+02  0.525751486E+01 -0.297099997E+01
     4
 # iter = 69500  time[fs]=69.50000
   C -0.807459782E+01  0.359825846E+00 -0.141489425E+00
   C  0.775446670E+01 -0.384745576E+00  0.399847368E+00
   H -0.397633276E+02 -0.535693931E+01 -0.182394372E+01
   H  0.391777646E+02  0.531231297E+01 -0.300197154E+01
     4
 # iter = 70000  time[fs]=70.00000
   C -0.816247124E+01  0.364280076E+00 -0.142778455E+00
   C  0.783848818E+01 -0.389350439E+00  0.404409220E+00
   H -0.401657124E+02 -0.541114023E+01 -0.184195753E+01
   H  0.395757820E+02  0.536712997E+01 -0.303295398E+01
     4
 # iter = 70500  time[fs]=70.50000
   C -0.825039356E+01  0.368737361E+00 -0.144068855E+00
   C  0.792255737E+01 -0.393958648E+00  0.408973726E+00
   H -0.405681977E+02 -0.546535619E+01 -0.185997608E+01
   H  0.399739142E+02  0.542196548E+01 -0.306394708E+01
     4
 # iter = 71000  time[fs]=71.00000
   C -0.833836372E+01  0.373197640E+00 -0.145360598E+00
   C  0.800667326E+01 -0.398570135E+00  0.413540832E+00
   H -0.409707817E+02 -0.551958689E+01 -0.187799927E+01
   H  0.403721588E+02  0.547681917E+01 -0.309495064E+01
     4
 # iter = 71500  time[fs]=71.50000
   C -0.842638073E+01  0.377660854E+00 -0.146653653E+00
   C  0.809083486E+01 -0.403184838E+00  0.418110485E+00
   H -0.413734623E+02 -0.557383205E+01 -0.189602703E+01
   H  0.407705137E+02  0.553169067E+01 -0.312596444E+01
     4
 # iter = 72000  time[fs]=72.00000
   C -0.851444359E+01  0.382126947E+00 -0.147947993E+00
   C  0.817504121E+01 -0.407802694E+00  0.422682634E+00
   H -0.417762378E+02 -0.562809139E+01 -0.191405925E+01
   H  0.411689767E+02  0.558657965E+01 -0.315698831E+01
     4
 # iter = 72500  time[fs]=72.50000
   C -0.860255138E+01  0.386595865E+00 -0.149243592E+00
   C  0.825929138E+01 -0.412423644E+00  0.427257229E+00
   H -0.421791062E+02 -0.568236466E+01 -0.193209586E+01
   H  0.415675457E+02  0.564148579E+01 -0.318802204E+01
     4
 # iter = 73000  time[fs]=73.00000
   C -0.869070315E+01  0.391067553E+00 -0.150540422E+00
   C  0.834358448E+01 -0.417047630E+00  0.431834221E+00
   H -0.425820659E+02 -0.573665158E+01 -0.195013676E+01
   H  0.419662188E+02  0.569640875E+01 -0.321906546E+01
     4
 # iter = 73500  time[fs]=73.50000
   C -0.877889803E+01  0.395541960E+00 -0.151838458E+00
   C  0.842791965E+01 -0.421674593E+00  0.436413564E+00
   H -0.429851151E+02 -0.579095191E+01 -0.196818189E+01
   H  0.423649940E+02  0.575134824E+01 -0.325011840E+01
     4
 # iter = 74000  time[fs]=74.00000
   C -0.886713516E+01  0.400019034E+00 -0.153137677E+00
   C  0.851229602E+01 -0.426304479E+00  0.440995212E+00
   H -0.433882523E+02 -0.584526539E+01 -0.198623115E+01
   H  0.427638695E+02  0.580630395E+01 -0.328118067E+01
     4
 # iter = 74500  time[fs]=74.50000
   C -0.895541368E+01  0.404498727E+00 -0.154438053E+00
   C  0.859671278E+01 -0.430937235E+00  0.445579120E+00
   H -0.437914756E+02 -0.589959179E+01 -0.200428448E+01
   H  0.431628432E+02  0.586127558E+01 -0.331225210E+01
     4
 # iter = 75000  time[fs]=75.00000
   C -0.904373278E+01  0.408980991E+00 -0.155739564E+00
   C  0.868116914E+01 -0.435572808E+00  0.450165246E+00
   H -0.441947837E+02 -0.595393088E+01 -0.202234181E+01
   H  0.435619135E+02  0.591626286E+01 -0.334333254E+01
     4
 # iter = 75500  time[fs]=75.50000
   C -0.913209167E+01  0.413465779E+00 -0.157042187E+00
   C  0.876566432E+01 -0.440211146E+00  0.454753548E+00
   H -0.445981748E+02 -0.600828243E+01 -0.204040305E+01
   H  0.439610786E+02  0.597126549E+01 -0.337442183E+01
     4
 # iter = 76000  time[fs]=76.00000
   C -0.922048959E+01  0.417953045E+00 -0.158345900E+00
   C  0.885019757E+01 -0.444852201E+00  0.459343985E+00
   H -0.450016477E+02 -0.606264622E+01 -0.205846814E+01
   H  0.443603369E+02  0.602628322E+01 -0.340551980E+01
     4
 # iter = 76500  time[fs]=76.50000
   C -0.930892578E+01  0.422442746E+00 -0.159650682E+00
   C  0.893476815E+01 -0.449495924E+00  0.463936517E+00
   H -0.454052008E+02 -0.611702203E+01 -0.207653701E+01
   H  0.447596865E+02  0.608131578E+01 -0.343662632E+01
     4
 # iter = 77000  time[fs]=77.00000
   C -0.939739952E+01  0.426934839E+00 -0.160956513E+00
   C  0.901937537E+01 -0.454142268E+00  0.468531106E+00
   H -0.458088327E+02 -0.617140966E+01 -0.209460960E+01
   H  0.451591260E+02  0.613636290E+01 -0.346774122E+01
     4
 # iter = 77500  time[fs]=77.50000
   C -0.948591010E+01  0.431429281E+00 -0.162263373E+00
   C  0.910401852E+01 -0.458791187E+00  0.473127715E+00
   H -0.462125420E+02 -0.622580890E+01 -0.211268583E+01
   H  0.455586538E+02  0.619142435E+01 -0.349886436E+01
     4
 # iter = 78000  time[fs]=78.00000
   C -0.957445683E+01  0.435926031E+00 -0.163571241E+00
   C  0.918869694E+01 -0.463442638E+00  0.477726308E+00
   H -0.466163274E+02 -0.628021954E+01 -0.213076565E+01
   H  0.459582682E+02  0.624649987E+01 -0.352999562E+01
     4
 # iter = 78500  time[fs]=78.50000
   C -0.966303905E+01  0.440425051E+00 -0.164880099E+00
   C  0.927340998E+01 -0.468096575E+00  0.482326848E+00
   H -0.470201875E+02 -0.633464141E+01 -0.214884899E+01
   H  0.463579679E+02  0.630158922E+01 -0.356113484E+01
     4
 # iter = 79000  time[fs]=79.00000
   C -0.975165610E+01  0.444926301E+00 -0.166189928E+00
   C  0.935815699E+01 -0.472752957E+00  0.486929301E+00
   H -0.474241212E+02 -0.638907431E+01 -0.216693580E+01
   H  0.467577514E+02  0.635669219E+01 -0.359228190E+01
     4
 # iter = 79500  time[fs]=79.50000
   C -0.984030736E+01  0.449429744E+00 -0.167500711E+00
   C  0.944293737E+01 -0.477411743E+00  0.491533634E+00
   H -0.478281272E+02 -0.644351805E+01 -0.218502602E+01
   H  0.471576173E+02  0.641180853E+01 -0.362343666E+01
     4
 # iter = 80000  time[fs]=80.00000
   C -0.992899220E+01  0.453935342E+00 -0.168812431E+00
   C  0.952775050E+01 -0.482072893E+00  0.496139813E+00
   H -0.482322042E+02 -0.649797245E+01 -0.220311958E+01
   H  0.475575641E+02  0.646693803E+01 -0.365459900E+01
