     4
 # iter = 25000  time[fs]=25.00000
   C -0.102336562E+01  0.556597591E-01 -0.514617489E-01
   C  0.103567141E+01 -0.297976389E-02  0.241814108E-01
   H -0.521260399E+01 -0.607145426E+00  0.625657588E+00
   H  0.537518782E+01  0.468039387E+00 -0.586681949E+00
     4
 # iter = 25500  time[fs]=25.50000
   C -0.107473124E+01  0.578274604E-01 -0.557241917E-01
   C  0.108117807E+01 -0.615793712E-02  0.251796229E-01
   H -0.555392374E+01 -0.656796604E+00  0.659939467E+00
   H  0.568882176E+01  0.490855199E+00 -0.634004955E+00
     4
 # iter = 26000  time[fs]=26.00000
   C -0.112971150E+01  0.592854581E-01 -0.609539305E-01
   C  0.112828209E+01 -0.105941252E-01  0.251676838E-01
   H -0.590583178E+01 -0.712541690E+00  0.689509710E+00
   H  0.600268440E+01  0.508810653E+00 -0.687453843E+00
     4
 # iter = 26500  time[fs]=26.50000
   C -0.118559941E+01  0.624923944E-01 -0.646720121E-01
   C  0.118017220E+01 -0.128519595E-01  0.275645490E-01
   H -0.625163975E+01 -0.758219576E+00  0.730367692E+00
   H  0.633227626E+01  0.537941889E+00 -0.730865521E+00
     4
 # iter = 27000  time[fs]=27.00000
   C -0.124204974E+01  0.675619711E-01 -0.667463845E-01
   C  0.123679702E+01 -0.127548658E-01  0.325299849E-01
   H -0.659005430E+01 -0.792968877E+00  0.783242989E+00
   H  0.667786954E+01  0.578996052E+00 -0.763379539E+00
     4
 # iter = 27500  time[fs]=27.50000
   C -0.130069218E+01  0.726505968E-01 -0.690040202E-01
   C  0.129540350E+01 -0.128474967E-01  0.375032839E-01
   H -0.693262969E+01 -0.828700207E+00  0.836116746E+00
   H  0.702702537E+01  0.619956808E+00 -0.796910758E+00
     4
 # iter = 28000  time[fs]=28.00000
   C -0.136263918E+01  0.764521897E-01 -0.727357596E-01
   C  0.135400370E+01 -0.149288387E-01  0.406706966E-01
   H -0.728747696E+01 -0.873832279E+00  0.880476856E+00
   H  0.737087150E+01  0.652315408E+00 -0.839880274E+00
     4
 # iter = 28500  time[fs]=28.50000
   C -0.142719937E+01  0.794849743E-01 -0.774093280E-01
   C  0.141316224E+01 -0.182638248E-01  0.427540073E-01
   H -0.765085837E+01 -0.924901368E+00  0.919703716E+00
   H  0.771249373E+01  0.679464352E+00 -0.888821470E+00
     4
 # iter = 29000  time[fs]=29.00000
   C -0.149293600E+01  0.830304726E-01 -0.817303231E-01
   C  0.147452029E+01 -0.210578299E-01  0.455357906E-01
   H -0.801410114E+01 -0.973476891E+00  0.962154150E+00
   H  0.806000072E+01  0.709775517E+00 -0.935298668E+00
     4
 # iter = 29500  time[fs]=29.50000
   C -0.155926959E+01  0.875279310E-01 -0.852477797E-01
   C  0.153856229E+01 -0.226881082E-01  0.496276617E-01
   H -0.837406493E+01 -0.101662826E+01  0.101069489E+01
   H  0.841603548E+01  0.746125003E+00 -0.976378970E+00
     4
 # iter = 30000  time[fs]=30.00000
   C -0.162670153E+01  0.923490505E-01 -0.885793547E-01
   C  0.160430155E+01 -0.240167908E-01  0.541571680E-01
   H -0.873460575E+01 -0.105839257E+01  0.106123377E+01
   H  0.877629947E+01  0.784423295E+00 -0.101610066E+01
     4
 # iter = 30500  time[fs]=30.50000
   C -0.169581729E+01  0.967939641E-01 -0.924152186E-01
   C  0.167066335E+01 -0.260064002E-01  0.581523114E-01
   H -0.910007411E+01 -0.110327940E+01  0.110921279E+01
   H  0.913605027E+01  0.820113789E+00 -0.105897459E+01
     4
 # iter = 31000  time[fs]=31.00000
   C -0.176652796E+01  0.100848865E+00 -0.967603149E-01
   C  0.173753705E+01 -0.286666647E-01  0.615947440E-01
   H -0.947036889E+01 -0.115132986E+01  0.115454749E+01
   H  0.949504402E+01  0.853116221E+00 -0.110504058E+01
     4
 # iter = 31500  time[fs]=31.50000
   C -0.183829139E+01  0.104963583E+00 -0.101156708E+00
   C  0.180546566E+01 -0.313636445E-01  0.651105611E-01
   H -0.984238494E+01 -0.119956648E+01  0.120017631E+01
   H  0.985608062E+01  0.886375108E+00 -0.115131823E+01
     4
 # iter = 32000  time[fs]=32.00000
   C -0.191074643E+01  0.109415916E+00 -0.105319197E+00
   C  0.187476117E+01 -0.337033025E-01  0.690866158E-01
   H -0.102141569E+02 -0.124613801E+01  0.124791564E+01
   H  0.102208517E+02  0.921711600E+00 -0.119595414E+01
     4
 # iter = 32500  time[fs]=32.50000
   C -0.198393991E+01  0.114083635E+00 -0.109363252E+00
   C  0.194518672E+01 -0.358483601E-01  0.733535803E-01
   H -0.105863444E+02 -0.129180564E+01  0.129697316E+01
   H  0.105884505E+02  0.958335766E+00 -0.123970898E+01
     4
 # iter = 33000  time[fs]=33.00000
   C -0.205805198E+01  0.118718220E+00 -0.113531207E+00
   C  0.201633630E+01 -0.381376921E-01  0.775665094E-01
   H -0.109604443E+02 -0.133815736E+01  0.134573294E+01
   H  0.109571565E+02  0.994633048E+00 -0.128417073E+01
     4
 # iter = 33500  time[fs]=33.50000
   C -0.213309525E+01  0.123245152E+00 -0.117891912E+00
   C  0.208805155E+01 -0.406688132E-01  0.816223213E-01
   H -0.113368301E+02 -0.138564928E+01  0.139371359E+01
   H  0.113263950E+02  0.103012399E+01 -0.132979476E+01
     4
 # iter = 34000  time[fs]=34.00000
   C -0.220891107E+01  0.127766892E+00 -0.122337703E+00
   C  0.216042527E+01 -0.432937005E-01  0.856639320E-01
   H -0.117147316E+02 -0.143358587E+01  0.144158761E+01
   H  0.116967546E+02  0.106548365E+01 -0.137588419E+01
     4
 # iter = 34500  time[fs]=34.50000
   C -0.228534800E+01  0.132383763E+00 -0.126763476E+00
   C  0.223355181E+01 -0.458677561E-01  0.898312427E-01
   H -0.120934017E+02 -0.148128796E+01  0.149001327E+01
   H  0.120688177E+02  0.110137260E+01 -0.142175852E+01
     4
 # iter = 35000  time[fs]=35.00000
   C -0.236236313E+01  0.137092091E+00 -0.131168506E+00
   C  0.230738501E+01 -0.483913658E-01  0.941195386E-01
   H -0.124727797E+02 -0.152875667E+01  0.153897038E+01
   H  0.124424942E+02  0.113777230E+01 -0.146741806E+01
     4
 # iter = 35500  time[fs]=35.50000
   C -0.243997435E+01  0.141831440E+00 -0.135609178E+00
   C  0.238180340E+01 -0.509442001E-01  0.984451535E-01
   H -0.128531824E+02 -0.157636521E+01  0.158806830E+01
   H  0.128173292E+02  0.117429333E+01 -0.151323550E+01
     4
 # iter = 36000  time[fs]=36.00000
   C -0.251817633E+01  0.146568223E+00 -0.140115343E+00
   C  0.245672609E+01 -0.535689314E-01  0.102761725E+00
   H -0.132347581E+02 -0.162431337E+01  0.163709133E+01
   H  0.131930483E+02  0.121072115E+01 -0.155940999E+01
     4
 # iter = 36500  time[fs]=36.50000
   C -0.259692103E+01  0.151314812E+00 -0.144671175E+00
   C  0.253213898E+01 -0.562446371E-01  0.107086763E+00
   H -0.136173610E+02 -0.167250264E+01  0.168612330E+01
   H  0.135696817E+02  0.124714087E+01 -0.160584226E+01
     4
 # iter = 37000  time[fs]=37.00000
   C -0.267615270E+01  0.156094244E+00 -0.149250443E+00
   C  0.260804540E+01 -0.589358503E-01  0.111452576E+00
   H -0.140007809E+02 -0.172076639E+01  0.173531737E+01
   H  0.139473330E+02  0.128370685E+01 -0.165236488E+01
     4
 # iter = 37500  time[fs]=37.50000
   C -0.275583657E+01  0.160911207E+00 -0.153845498E+00
   C  0.268442553E+01 -0.616328584E-01  0.115865948E+00
   H -0.143849319E+02 -0.176905883E+01  0.178470686E+01
   H  0.143259902E+02  0.132045343E+01 -0.169893142E+01
     4
 # iter = 38000  time[fs]=38.00000
   C -0.283595538E+01  0.165755235E+00 -0.158464064E+00
   C  0.276124058E+01 -0.643472538E-01  0.120312565E+00
   H -0.147698315E+02 -0.181743421E+01  0.183422604E+01
   H  0.147055452E+02  0.135731577E+01 -0.174559554E+01
     4
 # iter = 38500  time[fs]=38.50000
   C -0.291649267E+01  0.170617234E+00 -0.163112681E+00
   C  0.283845555E+01 -0.670889239E-01  0.124780013E+00
   H -0.151554915E+02 -0.186593877E+01  0.188381799E+01
   H  0.150859020E+02  0.139423774E+01 -0.179240297E+01
     4
 # iter = 39000  time[fs]=39.00000
   C -0.299742560E+01  0.175496424E+00 -0.167789758E+00
   C  0.291604876E+01 -0.698563880E-01  0.129267416E+00
   H -0.155418734E+02 -0.191456548E+01  0.193347989E+01
   H  0.154670217E+02  0.143121726E+01 -0.183934612E+01
     4
 # iter = 39500  time[fs]=39.50000
   C -0.307872937E+01  0.180395732E+00 -0.172490159E+00
   C  0.299400520E+01 -0.726431900E-01  0.133779037E+00
   H -0.159289174E+02 -0.196328399E+01  0.198323289E+01
   H  0.158488918E+02  0.146827623E+01 -0.188639410E+01
     4
 # iter = 40000  time[fs]=40.00000
   C -0.316038280E+01  0.185316091E+00 -0.177210889E+00
   C  0.307230853E+01 -0.754458033E-01  0.138316354E+00
   H -0.163165795E+02 -0.201207768E+01  0.203308506E+01
   H  0.162314891E+02  0.150542334E+01 -0.193352982E+01
     4
 # iter = 40500  time[fs]=40.50000
   C -0.324236881E+01  0.190255760E+00 -0.181951765E+00
   C  0.315093996E+01 -0.782645647E-01  0.142877118E+00
   H -0.167048358E+02 -0.206094811E+01  0.208302687E+01
   H  0.166147749E+02  0.154264968E+01 -0.198075435E+01
     4
 # iter = 41000  time[fs]=41.00000
   C -0.332467204E+01  0.195212626E+00 -0.186713100E+00
   C  0.322988136E+01 -0.811004645E-01  0.147458547E+00
   H -0.170936673E+02 -0.210989989E+01  0.213304626E+01
   H  0.169987099E+02  0.157994372E+01 -0.202807188E+01
     4
 # iter = 41500  time[fs]=41.50000
   C -0.340727726E+01  0.200185641E+00 -0.191494259E+00
   C  0.330911712E+01 -0.839531350E-01  0.152059333E+00
   H -0.174830500E+02 -0.215893128E+01  0.218313802E+01
   H  0.173832635E+02  0.161730074E+01 -0.207548026E+01
     4
 # iter = 42000  time[fs]=42.00000
   C -0.349016960E+01  0.205174493E+00 -0.196293975E+00
   C  0.338863365E+01 -0.868212990E-01  0.156679180E+00
   H -0.178729571E+02 -0.220803628E+01  0.223330163E+01
   H  0.177684114E+02  0.165472072E+01 -0.212297307E+01
     4
 # iter = 42500  time[fs]=42.50000
   C -0.357333529E+01  0.210178815E+00 -0.201111135E+00
   C  0.346841816E+01 -0.897038622E-01  0.161317708E+00
   H -0.182633642E+02 -0.225720974E+01  0.228353612E+01
   H  0.181541303E+02  0.169220311E+01 -0.217054480E+01
     4
 # iter = 43000  time[fs]=43.00000
   C -0.365676174E+01  0.215197943E+00 -0.205945011E+00
   C  0.354845826E+01 -0.926002400E-01  0.165974113E+00
   H -0.186542503E+02 -0.230644891E+01  0.233383849E+01
   H  0.185403962E+02  0.172974532E+01 -0.221819234E+01
     4
 # iter = 43500  time[fs]=43.50000
   C -0.374043732E+01  0.220231130E+00 -0.210795043E+00
   C  0.362874220E+01 -0.955100504E-01  0.170647473E+00
   H -0.190455964E+02 -0.235575202E+01  0.238420513E+01
   H  0.189271858E+02  0.176734413E+01 -0.226591357E+01
     4
 # iter = 44000  time[fs]=44.00000
   C -0.382435105E+01  0.225277746E+00 -0.215660629E+00
   C  0.370925907E+01 -0.984328330E-01  0.175337020E+00
   H -0.194373844E+02 -0.240511690E+01  0.243463312E+01
   H  0.193144778E+02  0.180499697E+01 -0.231370599E+01
     4
 # iter = 44500  time[fs]=44.50000
   C -0.390849256E+01  0.230337280E+00 -0.220541122E+00
   C  0.378999875E+01 -0.101368040E+00  0.180042143E+00
   H -0.198295965E+02 -0.245454098E+01  0.248512024E+01
   H  0.197022525E+02  0.184270194E+01 -0.236156673E+01
     4
 # iter = 45000  time[fs]=45.00000
   C -0.399285212E+01  0.235409258E+00 -0.225435899E+00
   C  0.387095175E+01 -0.104315140E+00  0.184762280E+00
   H -0.202222160E+02 -0.250402178E+01  0.253566447E+01
   H  0.200904914E+02  0.188045733E+01 -0.240949301E+01
     4
 # iter = 45500  time[fs]=45.50000
   C -0.407742057E+01  0.240493208E+00 -0.230344402E+00
   C  0.395210913E+01 -0.107273670E+00  0.189496863E+00
   H -0.206152273E+02 -0.255355712E+01  0.258626369E+01
   H  0.204791769E+02  0.191826133E+01 -0.245748238E+01
     4
 # iter = 46000  time[fs]=46.00000
   C -0.416218935E+01  0.245588666E+00 -0.235266117E+00
   C  0.403346245E+01 -0.110243212E+00  0.194245333E+00
   H -0.210086157E+02 -0.260314506E+01  0.263691585E+01
   H  0.208682923E+02  0.195611212E+01 -0.250553261E+01
     4
 # iter = 46500  time[fs]=46.50000
   C -0.424715036E+01  0.250695197E+00 -0.240200558E+00
   C  0.411500377E+01 -0.113223369E+00  0.199007165E+00
   H -0.214023673E+02 -0.265278373E+01  0.268761897E+01
   H  0.212578217E+02  0.199400801E+01 -0.255364158E+01
     4
 # iter = 47000  time[fs]=47.00000
   C -0.433229599E+01  0.255812396E+00 -0.245147255E+00
   C  0.419672560E+01 -0.116213753E+00  0.203781871E+00
   H -0.217964690E+02 -0.270247133E+01  0.273837125E+01
   H  0.216477502E+02  0.203194744E+01 -0.260180723E+01
     4
 # iter = 47500  time[fs]=47.50000
   C -0.441761903E+01  0.260939880E+00 -0.250105762E+00
   C  0.427862089E+01 -0.119213995E+00  0.208568992E+00
   H -0.221909083E+02 -0.275220613E+01  0.278917100E+01
   H  0.220380637E+02  0.206992892E+01 -0.265002761E+01
     4
 # iter = 48000  time[fs]=48.00000
   C -0.450311268E+01  0.266077286E+00 -0.255075658E+00
   C  0.436068297E+01 -0.122223746E+00  0.213368090E+00
   H -0.225856732E+02 -0.280198648E+01  0.284001659E+01
   H  0.224287488E+02  0.210795106E+01 -0.269830086E+01
     4
 # iter = 48500  time[fs]=48.50000
   C -0.458877051E+01  0.271224267E+00 -0.260056545E+00
   C  0.444290553E+01 -0.125242678E+00  0.218178748E+00
   H -0.229807527E+02 -0.285181087E+01  0.289090647E+01
   H  0.228197927E+02  0.214601249E+01 -0.274662522E+01
     4
 # iter = 49000  time[fs]=49.00000
   C -0.467458643E+01  0.276380493E+00 -0.265048044E+00
   C  0.452528262E+01 -0.128270477E+00  0.223000569E+00
   H -0.233761360E+02 -0.290167781E+01  0.294183918E+01
   H  0.232111833E+02  0.218411195E+01 -0.279499902E+01
     4
 # iter = 49500  time[fs]=49.50000
   C -0.476055468E+01  0.281545653E+00 -0.270049794E+00
   C  0.460780859E+01 -0.131306846E+00  0.227833177E+00
   H -0.237718130E+02 -0.295158592E+01  0.299281330E+01
   H  0.236029091E+02  0.222224820E+01 -0.284342066E+01
     4
 # iter = 50000  time[fs]=50.00000
   C -0.484666980E+01  0.286719449E+00 -0.275061453E+00
   C  0.469047807E+01 -0.134351500E+00  0.232676214E+00
   H -0.241677741E+02 -0.300153387E+01  0.304382752E+01
   H  0.239949592E+02  0.226042009E+01 -0.289188863E+01
     4
 # iter = 50500  time[fs]=50.50000
   C -0.493292661E+01  0.291901597E+00 -0.280082695E+00
   C  0.477328598E+01 -0.137404170E+00  0.237529338E+00
   H -0.245640100E+02 -0.305152039E+01  0.309488055E+01
   H  0.243873231E+02  0.229862651E+01 -0.294040149E+01
     4
 # iter = 51000  time[fs]=51.00000
   C -0.501932017E+01  0.297091827E+00 -0.285113209E+00
   C  0.485622751E+01 -0.140464598E+00  0.242392225E+00
   H -0.249605121E+02 -0.310154427E+01  0.314597119E+01
   H  0.247799908E+02  0.233686639E+01 -0.298895784E+01
     4
 # iter = 51500  time[fs]=51.50000
   C -0.510584580E+01  0.302289883E+00 -0.290152699E+00
   C  0.493929807E+01 -0.143532538E+00  0.247264565E+00
   H -0.253572719E+02 -0.315160436E+01  0.319709829E+01
   H  0.251729529E+02  0.237513873E+01 -0.303755637E+01
     4
 # iter = 52000  time[fs]=52.00000
   C -0.519249907E+01  0.307495520E+00 -0.295200881E+00
   C  0.502249330E+01 -0.146607756E+00  0.252146061E+00
   H -0.257542815E+02 -0.320169957E+01  0.324826074E+01
   H  0.255662003E+02  0.241344256E+01 -0.308619581E+01
     4
 # iter = 52500  time[fs]=52.50000
   C -0.527927573E+01  0.312708502E+00 -0.300257487E+00
   C  0.510580904E+01 -0.149690029E+00  0.257036433E+00
   H -0.261515334E+02 -0.325182884E+01  0.329945749E+01
   H  0.259597243E+02  0.245177696E+01 -0.313487497E+01
     4
 # iter = 53000  time[fs]=53.00000
   C -0.536617174E+01  0.317928605E+00 -0.305322259E+00
   C  0.518924136E+01 -0.152779142E+00  0.261935409E+00
   H -0.265490202E+02 -0.330199117E+01  0.335068752E+01
   H  0.263535168E+02  0.249014104E+01 -0.318359269E+01
     4
 # iter = 53500  time[fs]=53.50000
   C -0.545318327E+01  0.323155617E+00 -0.310394950E+00
   C  0.527278649E+01 -0.155874891E+00  0.266842732E+00
   H -0.269467350E+02 -0.335218560E+01  0.340194988E+01
   H  0.267475698E+02  0.252853395E+01 -0.323234786E+01
     4
 # iter = 54000  time[fs]=54.00000
   C -0.554030665E+01  0.328389331E+00 -0.315475325E+00
   C  0.535644082E+01 -0.158977081E+00  0.271758156E+00
   H -0.273446711E+02 -0.340241120E+01  0.345324364E+01
   H  0.271418756E+02  0.256695489E+01 -0.328113943E+01
     4
 # iter = 54500  time[fs]=54.50000
   C -0.562753837E+01  0.333629553E+00 -0.320563159E+00
   C  0.544020095E+01 -0.162085523E+00  0.276681443E+00
   H -0.277428222E+02 -0.345266710E+01  0.350456791E+01
   H  0.275364272E+02  0.260540307E+01 -0.332996638E+01
     4
 # iter = 55000  time[fs]=55.00000
   C -0.571487509E+01  0.338876094E+00 -0.325658235E+00
   C  0.552406359E+01 -0.165200039E+00  0.281612369E+00
   H -0.281411822E+02 -0.350295245E+01  0.355592184E+01
   H  0.279312175E+02  0.264387776E+01 -0.337882773E+01
     4
 # iter = 55500  time[fs]=55.50000
   C -0.580231363E+01  0.344128775E+00 -0.330760347E+00
   C  0.560802562E+01 -0.168320457E+00  0.286550715E+00
   H -0.285397453E+02 -0.355326644E+01  0.360730463E+01
   H  0.283262399E+02  0.268237822E+01 -0.342772256E+01
     4
 # iter = 56000  time[fs]=56.00000
   C -0.588985091E+01  0.349387424E+00 -0.335869297E+00
   C  0.569208405E+01 -0.171446611E+00  0.291496275E+00
   H -0.289385058E+02 -0.360360829E+01  0.365871549E+01
   H  0.287214880E+02  0.272090378E+01 -0.347664997E+01
     4
 # iter = 56500  time[fs]=56.50000
   C -0.597748403E+01  0.354651874E+00 -0.340984895E+00
   C  0.577623602E+01 -0.174578344E+00  0.296448849E+00
   H -0.293374584E+02 -0.365397726E+01  0.371015367E+01
   H  0.291169557E+02  0.275945377E+01 -0.352560910E+01
     4
 # iter = 57000  time[fs]=57.00000
   C -0.606521019E+01  0.359921968E+00 -0.346106957E+00
   C  0.586047879E+01 -0.177715503E+00  0.301408245E+00
   H -0.297365978E+02 -0.370437263E+01  0.376161846E+01
   H  0.295126371E+02  0.279802756E+01 -0.357459911E+01
     4
 # iter = 57500  time[fs]=57.50000
   C -0.615302669E+01  0.365197552E+00 -0.351235310E+00
   C  0.594480974E+01 -0.180857943E+00  0.306374280E+00
   H -0.301359193E+02 -0.375479370E+01  0.381310915E+01
   H  0.299085265E+02  0.283662454E+01 -0.362361922E+01
     4
 # iter = 58000  time[fs]=58.00000
   C -0.624093099E+01  0.370478482E+00 -0.356369784E+00
   C  0.602922636E+01 -0.184005524E+00  0.311346777E+00
   H -0.305354179E+02 -0.380523983E+01  0.386462508E+01
   H  0.303046185E+02  0.287524411E+01 -0.367266866E+01
     4
 # iter = 58500  time[fs]=58.50000
   C -0.632892060E+01  0.375764615E+00 -0.361510218E+00
   C  0.611372623E+01 -0.187158110E+00  0.316325566E+00
   H -0.309350891E+02 -0.385571036E+01  0.391616561E+01
   H  0.307009079E+02  0.291388572E+01 -0.372174668E+01
     4
 # iter = 59000  time[fs]=59.00000
   C -0.641699317E+01  0.381055816E+00 -0.366656456E+00
   C  0.619830704E+01 -0.190315572E+00  0.321310485E+00
   H -0.313349284E+02 -0.390620469E+01  0.396773012E+01
   H  0.310973896E+02  0.295254881E+01 -0.377085259E+01
     4
 # iter = 59500  time[fs]=59.50000
   C -0.650514643E+01  0.386351956E+00 -0.371808350E+00
   C  0.628296658E+01 -0.193477786E+00  0.326301375E+00
   H -0.317349318E+02 -0.395672222E+01  0.401931803E+01
   H  0.314940589E+02  0.299123287E+01 -0.381998569E+01
     4
 # iter = 60000  time[fs]=60.00000
   C -0.659337820E+01  0.391652909E+00 -0.376965754E+00
   C  0.636770272E+01 -0.196644631E+00  0.331298086E+00
   H -0.321350949E+02 -0.400726238E+01  0.407092875E+01
   H  0.318909110E+02  0.302993738E+01 -0.386914532E+01
     4
 # iter = 60500  time[fs]=60.50000
   C -0.668168638E+01  0.396958554E+00 -0.382128530E+00
   C  0.645251340E+01 -0.199815991E+00  0.336300472E+00
   H -0.325354140E+02 -0.405782464E+01  0.412256174E+01
   H  0.322879414E+02  0.306866185E+01 -0.391833086E+01
     4
 # iter = 61000  time[fs]=61.00000
   C -0.677006897E+01  0.402268775E+00 -0.387296545E+00
   C  0.653739666E+01 -0.202991756E+00  0.341308393E+00
   H -0.329358852E+02 -0.410840845E+01  0.417421646E+01
   H  0.326851459E+02  0.310740582E+01 -0.396754168E+01
     4
 # iter = 61500  time[fs]=61.50000
   C -0.685852402E+01  0.407583459E+00 -0.392469669E+00
   C  0.662235060E+01 -0.206171817E+00  0.346321714E+00
   H -0.333365049E+02 -0.415901330E+01  0.422589240E+01
   H  0.330825202E+02  0.314616883E+01 -0.401677720E+01
     4
 # iter = 62000  time[fs]=62.00000
   C -0.694704968E+01  0.412902500E+00 -0.397647779E+00
   C  0.670737340E+01 -0.209356071E+00  0.351340303E+00
   H -0.337372695E+02 -0.420963871E+01  0.427758906E+01
   H  0.334800603E+02  0.318495044E+01 -0.406603684E+01
     4
 # iter = 62500  time[fs]=62.50000
   C -0.703564414E+01  0.418225791E+00 -0.402830756E+00
   C  0.679246331E+01 -0.212544418E+00  0.356364036E+00
   H -0.341381757E+02 -0.426028419E+01  0.432930597E+01
   H  0.338777624E+02  0.322375022E+01 -0.411532005E+01
     4
 # iter = 63000  time[fs]=63.00000
   C -0.712430569E+01  0.423553234E+00 -0.408018482E+00
   C  0.687761864E+01 -0.215736762E+00  0.361392790E+00
   H -0.345392201E+02 -0.431094929E+01  0.438104266E+01
   H  0.342756227E+02  0.326256777E+01 -0.416462630E+01
     4
 # iter = 63500  time[fs]=63.50000
   C -0.721303265E+01  0.428884731E+00 -0.413210848E+00
   C  0.696283776E+01 -0.218933009E+00  0.366426448E+00
   H -0.349403995E+02 -0.436163357E+01  0.443279868E+01
   H  0.346736375E+02  0.330140269E+01 -0.421395507E+01
     4
 # iter = 64000  time[fs]=64.00000
   C -0.730182342E+01  0.434220187E+00 -0.418407745E+00
   C  0.704811911E+01 -0.222133069E+00  0.371464898E+00
   H -0.353417109E+02 -0.441233659E+01  0.448457361E+01
   H  0.350718033E+02  0.334025459E+01 -0.426330586E+01
     4
 # iter = 64500  time[fs]=64.50000
   C -0.739067645E+01  0.439559512E+00 -0.423609069E+00
   C  0.713346116E+01 -0.225336855E+00  0.376508029E+00
   H -0.357431514E+02 -0.446305793E+01  0.453636703E+01
   H  0.354701168E+02  0.337912310E+01 -0.431267820E+01
     4
 # iter = 65000  time[fs]=65.00000
   C -0.747959025E+01  0.444902619E+00 -0.428814719E+00
   C  0.721886247E+01 -0.228544284E+00  0.381555736E+00
   H -0.361447180E+02 -0.451379721E+01  0.458817852E+01
   H  0.358685747E+02  0.341800787E+01 -0.436207160E+01
     4
 # iter = 65500  time[fs]=65.50000
   C -0.756856338E+01  0.450249424E+00 -0.434024600E+00
   C  0.730432161E+01 -0.231755274E+00  0.386607917E+00
   H -0.365464080E+02 -0.456455402E+01  0.464000771E+01
   H  0.362671738E+02  0.345690855E+01 -0.441148563E+01
     4
 # iter = 66000  time[fs]=66.00000
   C -0.765759445E+01  0.455599843E+00 -0.439238615E+00
   C  0.738983725E+01 -0.234969746E+00  0.391664473E+00
   H -0.369482186E+02 -0.461532800E+01  0.469185421E+01
   H  0.366659110E+02  0.349582480E+01 -0.446091983E+01
     4
 # iter = 66500  time[fs]=66.50000
   C -0.774668211E+01  0.460953797E+00 -0.444456675E+00
   C  0.747540805E+01 -0.238187624E+00  0.396725307E+00
   H -0.373501474E+02 -0.466611877E+01  0.474371766E+01
   H  0.370647834E+02  0.353475629E+01 -0.451037380E+01
     4
 # iter = 67000  time[fs]=67.00000
   C -0.783582507E+01  0.466311211E+00 -0.449678691E+00
   C  0.756103275E+01 -0.241408834E+00  0.401790327E+00
   H -0.377521918E+02 -0.471692599E+01  0.479559769E+01
   H  0.374637881E+02  0.357370270E+01 -0.455984712E+01
     4
 # iter = 67500  time[fs]=67.50000
   C -0.792502206E+01  0.471672009E+00 -0.454904579E+00
   C  0.764671012E+01 -0.244633306E+00  0.406859444E+00
   H -0.381543493E+02 -0.476774931E+01  0.484749398E+01
   H  0.378629224E+02  0.361266374E+01 -0.460933938E+01
     4
 # iter = 68000  time[fs]=68.00000
   C -0.801427188E+01  0.477036120E+00 -0.460134255E+00
   C  0.773243899E+01 -0.247860970E+00  0.411932571E+00
   H -0.385566176E+02 -0.481858841E+01  0.489940617E+01
   H  0.382621834E+02  0.365163911E+01 -0.465885021E+01
     4
 # iter = 68500  time[fs]=68.50000
   C -0.810357335E+01  0.482403474E+00 -0.465367640E+00
   C  0.781821819E+01 -0.251091758E+00  0.417009623E+00
   H -0.389589944E+02 -0.486944295E+01  0.495133396E+01
   H  0.386615686E+02  0.369062850E+01 -0.470837923E+01
     4
 # iter = 69000  time[fs]=69.00000
   C -0.819292533E+01  0.487774004E+00 -0.470604656E+00
   C  0.790404663E+01 -0.254325607E+00  0.422090518E+00
   H -0.393614774E+02 -0.492031264E+01  0.500327702E+01
   H  0.390610755E+02  0.372963166E+01 -0.475792608E+01
     4
 # iter = 69500  time[fs]=69.50000
   C -0.828232673E+01  0.493147643E+00 -0.475845228E+00
   C  0.798992323E+01 -0.257562454E+00  0.427175178E+00
   H -0.397640646E+02 -0.497119716E+01  0.505523505E+01
   H  0.394607016E+02  0.376864830E+01 -0.480749039E+01
     4
 # iter = 70000  time[fs]=70.00000
   C -0.837177648E+01  0.498524329E+00 -0.481089283E+00
   C  0.807584694E+01 -0.260802236E+00  0.432263526E+00
   H -0.401667538E+02 -0.502209622E+01  0.510720776E+01
   H  0.398604445E+02  0.380767816E+01 -0.485707184E+01
     4
 # iter = 70500  time[fs]=70.50000
   C -0.846127354E+01  0.503904000E+00 -0.486336751E+00
   C  0.816181676E+01 -0.264044895E+00  0.437355488E+00
   H -0.405695430E+02 -0.507300955E+01  0.515919486E+01
   H  0.402603020E+02  0.384672098E+01 -0.490667009E+01
     4
 # iter = 71000  time[fs]=71.00000
   C -0.855081693E+01  0.509286596E+00 -0.491587563E+00
   C  0.824783172E+01 -0.267290374E+00  0.442450990E+00
   H -0.409724302E+02 -0.512393685E+01  0.521119606E+01
   H  0.406602716E+02  0.388577652E+01 -0.495628481E+01
     4
 # iter = 71500  time[fs]=71.50000
   C -0.864040567E+01  0.514672058E+00 -0.496841653E+00
   C  0.833389087E+01 -0.270538617E+00  0.447549964E+00
   H -0.413754136E+02 -0.517487787E+01  0.526321111E+01
   H  0.410603513E+02  0.392484454E+01 -0.500591569E+01
     4
 # iter = 72000  time[fs]=72.00000
   C -0.873003881E+01  0.520060332E+00 -0.502098956E+00
   C  0.841999329E+01 -0.273789570E+00  0.452652340E+00
   H -0.417784912E+02 -0.522583233E+01  0.531523973E+01
   H  0.414605390E+02  0.396392479E+01 -0.505556242E+01
     4
 # iter = 72500  time[fs]=72.50000
   C -0.881971546E+01  0.525451361E+00 -0.507359408E+00
   C  0.850613810E+01 -0.277043179E+00  0.457758053E+00
   H -0.421816613E+02 -0.527680000E+01  0.536728167E+01
   H  0.418608325E+02  0.400301706E+01 -0.510522472E+01
     4
 # iter = 73000  time[fs]=73.00000
   C -0.890943473E+01  0.530845093E+00 -0.512622950E+00
   C  0.859232442E+01 -0.280299395E+00  0.462867039E+00
   H -0.425849222E+02 -0.532778062E+01  0.541933668E+01
   H  0.422612300E+02  0.404212111E+01 -0.515490229E+01
     4
 # iter = 73500  time[fs]=73.50000
   C -0.899919576E+01  0.536241476E+00 -0.517889523E+00
   C  0.867855143E+01 -0.283558167E+00  0.467979235E+00
   H -0.429882720E+02 -0.537877395E+01  0.547140453E+01
   H  0.426617293E+02  0.408123674E+01 -0.520459485E+01
     4
 # iter = 74000  time[fs]=74.00000
   C -0.908899772E+01  0.541640460E+00 -0.523159067E+00
   C  0.876481832E+01 -0.286819446E+00  0.473094581E+00
   H -0.433917092E+02 -0.542977975E+01  0.552348497E+01
   H  0.430623287E+02  0.412036373E+01 -0.525430213E+01
     4
 # iter = 74500  time[fs]=74.50000
   C -0.917883979E+01  0.547041997E+00 -0.528431529E+00
   C  0.885112428E+01 -0.290083187E+00  0.478213017E+00
   H -0.437952322E+02 -0.548079781E+01  0.557557777E+01
   H  0.434630263E+02  0.415950188E+01 -0.530402386E+01
     4
 # iter = 75000  time[fs]=75.00000
   C -0.926872121E+01  0.552446038E+00 -0.533706853E+00
   C  0.893746857E+01 -0.293349344E+00  0.483334486E+00
   H -0.441988393E+02 -0.553182790E+01  0.562768273E+01
   H  0.438638203E+02  0.419865099E+01 -0.535375978E+01
     4
 # iter = 75500  time[fs]=75.50000
   C -0.935864120E+01  0.557852537E+00 -0.538984986E+00
   C  0.902385043E+01 -0.296617871E+00  0.488458932E+00
   H -0.446025291E+02 -0.558286980E+01  0.567979961E+01
   H  0.442647089E+02  0.423781087E+01 -0.540350965E+01
     4
 # iter = 76000  time[fs]=76.00000
   C -0.944859902E+01  0.563261450E+00 -0.544265877E+00
   C  0.911026914E+01 -0.299888727E+00  0.493586302E+00
   H -0.450063000E+02 -0.563392331E+01  0.573192820E+01
   H  0.446656905E+02  0.427698132E+01 -0.545327322E+01
     4
 # iter = 76500  time[fs]=76.50000
   C -0.953859396E+01  0.568672734E+00 -0.549549476E+00
   C  0.919672400E+01 -0.303161868E+00  0.498716541E+00
   H -0.454101507E+02 -0.568498823E+01  0.578406831E+01
   H  0.450667635E+02  0.431616217E+01 -0.550305024E+01
     4
 # iter = 77000  time[fs]=77.00000
   C -0.962862532E+01  0.574086344E+00 -0.554835734E+00
   C  0.928321433E+01 -0.306437255E+00  0.503849600E+00
   H -0.458140798E+02 -0.573606434E+01  0.583621973E+01
   H  0.454679261E+02  0.435535323E+01 -0.555284049E+01
     4
 # iter = 77500  time[fs]=77.50000
   C -0.971869241E+01  0.579502241E+00 -0.560124605E+00
   C  0.936973947E+01 -0.309714846E+00  0.508985427E+00
   H -0.462180857E+02 -0.578715147E+01  0.588838227E+01
   H  0.458691769E+02  0.439455433E+01 -0.560264374E+01
     4
 # iter = 78000  time[fs]=78.00000
   C -0.980879457E+01  0.584920383E+00 -0.565416040E+00
   C  0.945629876E+01 -0.312994604E+00  0.514123975E+00
   H -0.466221673E+02 -0.583824942E+01  0.594055573E+01
   H  0.462705142E+02  0.443376530E+01 -0.565245977E+01
     4
 # iter = 78500  time[fs]=78.50000
   C -0.989893117E+01  0.590340732E+00 -0.570709997E+00
   C  0.954289158E+01 -0.316276490E+00  0.519265194E+00
   H -0.470263233E+02 -0.588935800E+01  0.599273993E+01
   H  0.466719367E+02  0.447298597E+01 -0.570228837E+01
     4
 # iter = 79000  time[fs]=79.00000
   C -0.998910156E+01  0.595763249E+00 -0.576006430E+00
   C  0.962951732E+01 -0.319560468E+00  0.524409040E+00
   H -0.474305522E+02 -0.594047705E+01  0.604493470E+01
   H  0.470734429E+02  0.451221618E+01 -0.575212932E+01
     4
 # iter = 79500  time[fs]=79.50000
   C -0.100793052E+02  0.601187897E+00 -0.581305297E+00
   C  0.971617538E+01 -0.322846502E+00  0.529555467E+00
   H -0.478348530E+02 -0.599160638E+01  0.609713985E+01
   H  0.474750313E+02  0.455145578E+01 -0.580198242E+01
     4
 # iter = 80000  time[fs]=80.00000
   C -0.101695413E+02  0.606614639E+00 -0.586606556E+00
   C  0.980286519E+01 -0.326134557E+00  0.534704432E+00
   H -0.482392244E+02 -0.604274582E+01  0.614935521E+01
   H  0.478767006E+02  0.459070461E+01 -0.585184747E+01
