     4
 # iter = 25000  time[fs]=25.00000
   C -0.957926041E+00 -0.226749295E-01  0.299547364E-01
   C  0.106889320E+01  0.280105130E-01 -0.357468778E-02
   H -0.530821245E+01 -0.134668808E+00  0.352222938E+00
   H  0.545934692E+01 -0.820914525E-01 -0.373651456E+00
     4
 # iter = 25500  time[fs]=25.50000
   C -0.100372988E+01 -0.241226375E-01  0.283236121E-01
   C  0.111505440E+01  0.274486488E-01 -0.425956935E-02
   H -0.565081222E+01 -0.151066285E+00  0.365464979E+00
   H  0.577649453E+01 -0.965582799E-01 -0.406658193E+00
     4
 # iter = 26000  time[fs]=26.00000
   C -0.105332673E+01 -0.265281990E-01  0.258358360E-01
   C  0.116301821E+01  0.258999410E-01 -0.604555325E-02
   H -0.600403631E+01 -0.173000163E+00  0.373651059E+00
   H  0.609375737E+01 -0.116546357E+00 -0.445509934E+00
     4
 # iter = 26500  time[fs]=26.50000
   C -0.110381659E+01 -0.272263553E-01  0.251440346E-01
   C  0.121573661E+01  0.265514336E-01 -0.573104851E-02
   H -0.635120203E+01 -0.184377911E+00  0.392817991E+00
   H  0.642665131E+01 -0.125953266E+00 -0.474071522E+00
     4
 # iter = 27000  time[fs]=27.00000
   C -0.115484109E+01 -0.260794787E-01  0.263746287E-01
   C  0.127314192E+01  0.295531914E-01 -0.315341451E-02
   H -0.669101730E+01 -0.184391475E+00  0.423728239E+00
   H  0.677546254E+01 -0.123972988E+00 -0.491507775E+00
     4
 # iter = 27500  time[fs]=27.50000
   C -0.120816736E+01 -0.250598804E-01  0.275454382E-01
   C  0.133264922E+01  0.325202531E-01 -0.686785280E-03
   H -0.703503417E+01 -0.184992623E+00  0.454392465E+00
   H  0.712776493E+01 -0.122569355E+00 -0.509756458E+00
     4
 # iter = 28000  time[fs]=28.00000
   C -0.126500290E+01 -0.255621443E-01  0.272533613E-01
   C  0.139238711E+01  0.337639211E-01 -0.105140646E-04
   H -0.739136174E+01 -0.194635928E+00  0.476323645E+00
   H  0.747469680E+01 -0.130205701E+00 -0.537258368E+00
     4
 # iter = 28500  time[fs]=28.50000
   C -0.132460959E+01 -0.270167758E-01  0.260606293E-01
   C  0.145286372E+01  0.339585065E-01 -0.442207631E-03
   H -0.775626257E+01 -0.209891920E+00  0.492922305E+00
   H  0.781935223E+01 -0.143450945E+00 -0.570563305E+00
     4
 # iter = 29000  time[fs]=29.00000
   C -0.138544472E+01 -0.280330995E-01  0.253516985E-01
   C  0.151559137E+01  0.347669382E-01 -0.311956357E-03
   H -0.812106501E+01 -0.222361449E+00  0.512561971E+00
   H  0.816984656E+01 -0.153899897E+00 -0.601249595E+00
     4
 # iter = 29500  time[fs]=29.50000
   C -0.144688825E+01 -0.281288302E-01  0.256034702E-01
   C  0.158100574E+01  0.367609155E-01  0.957952272E-03
   H -0.848262846E+01 -0.229140218E+00  0.538124732E+00
   H  0.852882860E+01 -0.158646844E+00 -0.626396871E+00
     4
 # iter = 30000  time[fs]=30.00000
   C -0.150948395E+01 -0.279726529E-01  0.261425788E-01
   C  0.164817274E+01  0.391290881E-01  0.256134847E-02
   H -0.884480709E+01 -0.234286620E+00  0.565533009E+00
   H  0.889200497E+01 -0.161754656E+00 -0.650054817E+00
     4
 # iter = 30500  time[fs]=30.50000
   C -0.157386559E+01 -0.283111467E-01  0.262183913E-01
   C  0.171607754E+01  0.409672965E-01  0.359855247E-02
   H -0.921194935E+01 -0.242328745E+00  0.590241843E+00
   H  0.925463773E+01 -0.167756136E+00 -0.676744474E+00
     4
 # iter = 31000  time[fs]=31.00000
   C -0.163993980E+01 -0.291524936E-01  0.258192282E-01
   C  0.178460476E+01  0.422600503E-01  0.405796407E-02
   H -0.958395296E+01 -0.253325121E+00  0.612177594E+00
   H  0.961648678E+01 -0.176710456E+00 -0.706514616E+00
     4
 # iter = 31500  time[fs]=31.50000
   C -0.170712446E+01 -0.300060283E-01  0.254327312E-01
   C  0.185424927E+01  0.435923612E-01  0.452798310E-02
   H -0.995771223E+01 -0.264314586E+00  0.634287831E+00
   H  0.998035517E+01 -0.185654348E+00 -0.736392755E+00
     4
 # iter = 32000  time[fs]=32.00000
   C -0.177503218E+01 -0.305669976E-01  0.253610225E-01
   C  0.192529162E+01  0.453262154E-01  0.537354938E-02
   H -0.103312611E+02 -0.273460279E+00  0.658397257E+00
   H  0.103479373E+02 -0.192749797E+00 -0.764532591E+00
     4
 # iter = 32500  time[fs]=32.50000
   C -0.184371485E+01 -0.309621226E-01  0.254750799E-01
   C  0.199750179E+01  0.473052101E-01  0.644084044E-02
   H -0.107052577E+02 -0.281535733E+00  0.683721485E+00
   H  0.107183287E+02 -0.198771448E+00 -0.791701263E+00
     4
 # iter = 33000  time[fs]=33.00000
   C -0.191336787E+01 -0.314546371E-01  0.255096538E-01
   C  0.207049296E+01  0.492092068E-01  0.741197857E-02
   H -0.110811975E+02 -0.290139846E+00  0.708651871E+00
   H  0.110898111E+02 -0.205319984E+00 -0.819492651E+00
     4
 # iter = 33500  time[fs]=33.50000
   C -0.198400594E+01 -0.321207178E-01  0.253868005E-01
   C  0.214410990E+01  0.509433901E-01  0.819413728E-02
   H -0.114594529E+02 -0.299738768E+00  0.732713443E+00
   H  0.114618116E+02 -0.212862266E+00 -0.848367457E+00
     4
 # iter = 34000  time[fs]=34.00000
   C -0.205545912E+01 -0.328462389E-01  0.252190943E-01
   C  0.221843206E+01  0.526421221E-01  0.892343399E-02
   H -0.118392527E+02 -0.309646384E+00  0.756584290E+00
   H  0.118349204E+02 -0.220711818E+00 -0.877633619E+00
     4
 # iter = 34500  time[fs]=34.50000
   C -0.212756516E+01 -0.335197033E-01  0.251166641E-01
   C  0.229354099E+01  0.544368865E-01  0.973290499E-02
   H -0.122198488E+02 -0.319192045E+00  0.780927759E+00
   H  0.122097212E+02 -0.228197613E+00 -0.906615030E+00
     4
 # iter = 35000  time[fs]=35.00000
   C -0.220027860E+01 -0.341419445E-01  0.250774660E-01
   C  0.236938786E+01  0.563243298E-01  0.106205739E-01
   H -0.126011795E+02 -0.328384543E+00  0.805728406E+00
   H  0.125861252E+02 -0.235328657E+00 -0.935316040E+00
     4
 # iter = 35500  time[fs]=35.50000
   C -0.227361946E+01 -0.347752150E-01  0.250381736E-01
   C  0.244585414E+01  0.582274597E-01  0.115106731E-01
   H -0.129835607E+02 -0.337604010E+00  0.830600028E+00
   H  0.129636786E+02 -0.242485601E+00 -0.964113036E+00
     4
 # iter = 36000  time[fs]=36.00000
   C -0.234758266E+01 -0.354530741E-01  0.249642726E-01
   C  0.252285959E+01  0.601039881E-01  0.123620067E-01
   H -0.133671396E+02 -0.347056575E+00  0.855330930E+00
   H  0.133421080E+02 -0.249874911E+00 -0.993208567E+00
     4
 # iter = 36500  time[fs]=36.50000
   C -0.242211707E+01 -0.361597761E-01  0.248706576E-01
   C  0.260038662E+01  0.619710961E-01  0.131927329E-01
   H -0.137517694E+02 -0.356649655E+00  0.880008581E+00
   H  0.137214444E+02 -0.257404056E+00 -0.102250650E+01
     4
 # iter = 37000  time[fs]=37.00000
   C -0.249716318E+01 -0.368682812E-01  0.247836083E-01
   C  0.267843427E+01  0.638597024E-01  0.140346463E-01
   H -0.141372394E+02 -0.366222062E+00  0.904789460E+00
   H  0.141017922E+02 -0.264911817E+00 -0.105184230E+01
     4
 # iter = 37500  time[fs]=37.50000
   C -0.257268406E+01 -0.375714848E-01  0.247095481E-01
   C  0.275698032E+01  0.657768895E-01  0.148956170E-01
   H -0.145234627E+02 -0.375733034E+00  0.929709983E+00
   H  0.144831400E+02 -0.272357502E+00 -0.108117220E+01
     4
 # iter = 38000  time[fs]=38.00000
   C -0.264866161E+01 -0.382787712E-01  0.246384811E-01
   C  0.283598517E+01  0.677100340E-01  0.157637314E-01
   H -0.149104559E+02 -0.385241408E+00  0.954707301E+00
   H  0.148653805E+02 -0.279800091E+00 -0.111055234E+01
     4
 # iter = 38500  time[fs]=38.50000
   C -0.272507857E+01 -0.389981830E-01  0.245618139E-01
   C  0.291541307E+01  0.696482372E-01  0.166287312E-01
   H -0.152982304E+02 -0.394797713E+00  0.979727166E+00
   H  0.152484181E+02 -0.287290243E+00 -0.114003076E+01
     4
 # iter = 39000  time[fs]=39.00000
   C -0.280191075E+01 -0.397289344E-01  0.244798357E-01
   C  0.299524086E+01  0.715913170E-01  0.174910150E-01
   H -0.156867465E+02 -0.404398881E+00  0.100476920E+01
   H  0.156322143E+02 -0.294824957E+00 -0.116960199E+01
     4
 # iter = 39500  time[fs]=39.50000
   C -0.287913185E+01 -0.404663654E-01  0.243967574E-01
   C  0.307545189E+01  0.735438402E-01  0.183556756E-01
   H -0.160759440E+02 -0.414018250E+00  0.102985685E+01
   H  0.160167572E+02 -0.302377611E+00 -0.119923714E+01
     4
 # iter = 40000  time[fs]=40.00000
   C -0.295671944E+01 -0.412080685E-01  0.243145798E-01
   C  0.315602843E+01  0.755077450E-01  0.192251301E-01
   H -0.164657783E+02 -0.423642660E+00  0.105500030E+01
   H  0.164020239E+02 -0.309935089E+00 -0.122892098E+01
     4
 # iter = 40500  time[fs]=40.50000
   C -0.303465548E+01 -0.419546137E-01  0.242323637E-01
   C  0.323695067E+01  0.774814620E-01  0.200982452E-01
   H -0.168562248E+02 -0.433276857E+00  0.108019203E+01
   H  0.167879761E+02 -0.317502192E+00 -0.125865633E+01
     4
 # iter = 41000  time[fs]=41.00000
   C -0.311292376E+01 -0.427070614E-01  0.241487128E-01
   C  0.331819958E+01  0.794628979E-01  0.209733255E-01
   H -0.172472638E+02 -0.442928448E+00  0.110542181E+01
   H  0.171745748E+02 -0.325086579E+00 -0.128844898E+01
     4
 # iter = 41500  time[fs]=41.50000
   C -0.319150821E+01 -0.434654048E-01  0.240633276E-01
   C  0.339975865E+01  0.814513024E-01  0.218499851E-01
   H -0.176388708E+02 -0.452598488E+00  0.113068618E+01
   H  0.175617897E+02 -0.332689345E+00 -0.131829831E+01
     4
 # iter = 42000  time[fs]=42.00000
   C -0.327039312E+01 -0.442289187E-01  0.239766541E-01
   C  0.348161336E+01  0.834468437E-01  0.227287258E-01
   H -0.180310186E+02 -0.462283596E+00  0.115598623E+01
   H  0.179495967E+02 -0.340307139E+00 -0.134819933E+01
     4
 # iter = 42500  time[fs]=42.50000
   C -0.334956393E+01 -0.449970062E-01  0.238890335E-01
   C  0.356375009E+01  0.854495852E-01  0.236099174E-01
   H -0.184236821E+02 -0.471981088E+00  0.118132252E+01
   H  0.183379728E+02 -0.347937309E+00 -0.137814788E+01
     4
 # iter = 43000  time[fs]=43.00000
   C -0.342900739E+01 -0.457694526E-01  0.238004463E-01
   C  0.364615570E+01  0.874591754E-01  0.244934901E-01
   H -0.188168397E+02 -0.481690528E+00  0.120669347E+01
   H  0.187268942E+02 -0.355579443E+00 -0.140814210E+01
     4
 # iter = 43500  time[fs]=43.50000
   C -0.350871122E+01 -0.465461891E-01  0.237107464E-01
   C  0.372881774E+01  0.894751289E-01  0.253792181E-01
   H -0.192104723E+02 -0.491412292E+00  0.123209683E+01
   H  0.191163378E+02 -0.363233945E+00 -0.143818106E+01
     4
 # iter = 44000  time[fs]=44.00000
   C -0.358866385E+01 -0.473270745E-01  0.236198774E-01
   C  0.381172467E+01  0.914970847E-01  0.262669799E-01
   H -0.196045610E+02 -0.501146267E+00  0.125753093E+01
   H  0.195062824E+02 -0.370900722E+00 -0.146826338E+01
     4
 # iter = 44500  time[fs]=44.50000
   C -0.366885436E+01 -0.481118896E-01  0.235278766E-01
   C  0.389486575E+01  0.935248102E-01  0.271567641E-01
   H -0.199990876E+02 -0.510891810E+00  0.128299476E+01
   H  0.198967086E+02 -0.378579150E+00 -0.149838724E+01
     4
 # iter = 45000  time[fs]=45.00000
   C -0.374927247E+01 -0.489004188E-01  0.234347921E-01
   C  0.397823094E+01  0.955581004E-01  0.280485706E-01
   H -0.203940352E+02 -0.520648252E+00  0.130848739E+01
   H  0.202875979E+02 -0.386268578E+00 -0.152855088E+01
     4
 # iter = 45500  time[fs]=45.50000
   C -0.382990858E+01 -0.496924887E-01  0.233406424E-01
   C  0.406181076E+01  0.975967282E-01  0.289423623E-01
   H -0.207893876E+02 -0.530415137E+00  0.133400781E+01
   H  0.206789329E+02 -0.393968562E+00 -0.155875276E+01
     4
 # iter = 46000  time[fs]=46.00000
   C -0.391075365E+01 -0.504879537E-01  0.232454297E-01
   C  0.414559628E+01  0.996404600E-01  0.298380816E-01
   H -0.211851297E+02 -0.540192136E+00  0.135955492E+01
   H  0.210706970E+02 -0.401678790E+00 -0.158899157E+01
     4
 # iter = 46500  time[fs]=46.50000
   C -0.399179917E+01 -0.512866747E-01  0.231491608E-01
   C  0.422957909E+01  0.101689079E+00  0.307356761E-01
   H -0.215812474E+02 -0.549978922E+00  0.138512772E+01
   H  0.214628744E+02 -0.409398943E+00 -0.161926604E+01
     4
 # iter = 47000  time[fs]=47.00000
   C -0.407303713E+01 -0.520885134E-01  0.230518509E-01
   C  0.431375129E+01  0.103742392E+00  0.316351033E-01
   H -0.219777271E+02 -0.559775138E+00  0.141072532E+01
   H  0.218554505E+02 -0.417128677E+00 -0.164957491E+01
     4
 # iter = 47500  time[fs]=47.50000
   C -0.415445996E+01 -0.528933375E-01  0.229535183E-01
   C  0.439810540E+01  0.105800215E+00  0.325363242E-01
   H -0.223745560E+02 -0.569580435E+00  0.143634686E+01
   H  0.222484110E+02 -0.424867650E+00 -0.167991697E+01
     4
 # iter = 48000  time[fs]=48.00000
   C -0.423606050E+01 -0.537010241E-01  0.228541797E-01
   C  0.448263439E+01  0.107862378E+00  0.334392988E-01
   H -0.227717219E+02 -0.579394490E+00  0.146199153E+01
   H  0.226417427E+02 -0.432615548E+00 -0.171029111E+01
     4
 # iter = 48500  time[fs]=48.50000
   C -0.431783201E+01 -0.545114590E-01  0.227538508E-01
   C  0.456733159E+01  0.109928715E+00  0.343439859E-01
   H -0.231692133E+02 -0.589217005E+00  0.148765854E+01
   H  0.230354328E+02 -0.440372080E+00 -0.174069624E+01
     4
 # iter = 49000  time[fs]=49.00000
   C -0.439976808E+01 -0.553245342E-01  0.226525475E-01
   C  0.465219070E+01  0.111999070E+00  0.352503454E-01
   H -0.235670191E+02 -0.599047698E+00  0.151334717E+01
   H  0.234294695E+02 -0.448136970E+00 -0.177113136E+01
     4
 # iter = 49500  time[fs]=49.50000
   C -0.448186269E+01 -0.561401476E-01  0.225502861E-01
   C  0.473720576E+01  0.114073296E+00  0.361583386E-01
   H -0.239651291E+02 -0.608886298E+00  0.153905670E+01
   H  0.238238411E+02 -0.455909951E+00 -0.180159550E+01
     4
 # iter = 50000  time[fs]=50.00000
   C -0.456411007E+01 -0.569582023E-01  0.224470833E-01
   C  0.482237110E+01  0.116151254E+00  0.370679281E-01
   H -0.243635332E+02 -0.618732547E+00  0.156478646E+01
   H  0.242185369E+02 -0.463690771E+00 -0.183208772E+01
     4
 # iter = 50500  time[fs]=50.50000
   C -0.464650481E+01 -0.577786070E-01  0.223429557E-01
   C  0.490768138E+01  0.118232811E+00  0.379790771E-01
   H -0.247622220E+02 -0.628586197E+00  0.159053581E+01
   H  0.246135464E+02 -0.471479185E+00 -0.186260716E+01
     4
 # iter = 51000  time[fs]=51.00000
   C -0.472904174E+01 -0.586012750E-01  0.222379199E-01
   C  0.499313150E+01  0.120317843E+00  0.388917501E-01
   H -0.251611865E+02 -0.638447015E+00  0.161630415E+01
   H  0.250088597E+02 -0.479274962E+00 -0.189315297E+01
     4
 # iter = 51500  time[fs]=51.50000
   C -0.481171594E+01 -0.594261242E-01  0.221319922E-01
   C  0.507871663E+01  0.122406229E+00  0.398059122E-01
   H -0.255604181E+02 -0.648314777E+00  0.164209089E+01
   H  0.254044674E+02 -0.487077883E+00 -0.192372436E+01
     4
 # iter = 52000  time[fs]=52.00000
   C -0.489452276E+01 -0.602530770E-01  0.220251888E-01
   C  0.516443217E+01  0.124497858E+00  0.407215296E-01
   H -0.259599087E+02 -0.658189271E+00  0.166789548E+01
   H  0.258003605E+02 -0.494887736E+00 -0.195432054E+01
     4
 # iter = 52500  time[fs]=52.50000
   C -0.497745776E+01 -0.610820594E-01  0.219175258E-01
   C  0.525027374E+01  0.126592622E+00  0.416385693E-01
   H -0.263596503E+02 -0.668070291E+00  0.169371739E+01
   H  0.261965303E+02 -0.502704319E+00 -0.198494079E+01
     4
 # iter = 53000  time[fs]=53.00000
   C -0.506051672E+01 -0.619130013E-01  0.218090192E-01
   C  0.533623720E+01  0.128690417E+00  0.425569994E-01
   H -0.267596354E+02 -0.677957644E+00  0.171955610E+01
   H  0.265929686E+02 -0.510527439E+00 -0.201558442E+01
     4
 # iter = 53500  time[fs]=53.50000
   C -0.514369560E+01 -0.627458360E-01  0.216996846E-01
   C  0.542231856E+01  0.130791147E+00  0.434767888E-01
   H -0.271598570E+02 -0.687851144E+00  0.174541114E+01
   H  0.269896676E+02 -0.518356910E+00 -0.204625074E+01
     4
 # iter = 54000  time[fs]=54.00000
   C -0.522699058E+01 -0.635805000E-01  0.215895374E-01
   C  0.550851406E+01  0.132894718E+00  0.443979073E-01
   H -0.275603082E+02 -0.697750612E+00  0.177128204E+01
   H  0.273866198E+02 -0.526192556E+00 -0.207693912E+01
     4
 # iter = 54500  time[fs]=54.50000
   C -0.531039799E+01 -0.644169330E-01  0.214785928E-01
   C  0.559482007E+01  0.135001041E+00  0.453203254E-01
   H -0.279609824E+02 -0.707655877E+00  0.179716834E+01
   H  0.277838178E+02 -0.534034205E+00 -0.210764894E+01
     4
 # iter = 55000  time[fs]=55.00000
   C -0.539391433E+01 -0.652550774E-01  0.213668657E-01
   C  0.568123317E+01  0.137110032E+00  0.462440146E-01
   H -0.283618733E+02 -0.717566777E+00  0.182306963E+01
   H  0.281812548E+02 -0.541881695E+00 -0.213837960E+01
     4
 # iter = 55500  time[fs]=55.50000
   C -0.547753626E+01 -0.660948783E-01  0.212543708E-01
   C  0.576775005E+01  0.139221609E+00  0.471689472E-01
   H -0.287629749E+02 -0.727483154E+00  0.184898550E+01
   H  0.285789241E+02 -0.549734869E+00 -0.216913055E+01
     4
 # iter = 56000  time[fs]=56.00000
   C -0.556126060E+01 -0.669362834E-01  0.211411225E-01
   C  0.585436758E+01  0.141335696E+00  0.480950962E-01
   H -0.291642814E+02 -0.737404858E+00  0.187491555E+01
   H  0.289768194E+02 -0.557593576E+00 -0.219990123E+01
     4
 # iter = 56500  time[fs]=56.50000
   C -0.564508428E+01 -0.677792426E-01  0.210271348E-01
   C  0.594108275E+01  0.143452218E+00  0.490224354E-01
   H -0.295657872E+02 -0.747331745E+00  0.190085940E+01
   H  0.293749346E+02 -0.565457671E+00 -0.223069112E+01
     4
 # iter = 57000  time[fs]=57.00000
   C -0.572900438E+01 -0.686237083E-01  0.209124217E-01
   C  0.602789267E+01  0.145571104E+00  0.499509394E-01
   H -0.299674871E+02 -0.757263677E+00  0.192681669E+01
   H  0.297732638E+02 -0.573327016E+00 -0.226149973E+01
     4
 # iter = 57500  time[fs]=57.50000
   C -0.581301811E+01 -0.694696348E-01  0.207969965E-01
   C  0.611479460E+01  0.147692286E+00  0.508805835E-01
   H -0.303693759E+02 -0.767200520E+00  0.195278707E+01
   H  0.301718013E+02 -0.581201476E+00 -0.229232656E+01
     4
 # iter = 58000  time[fs]=58.00000
   C -0.589712277E+01 -0.703169784E-01  0.206808727E-01
   C  0.620178589E+01  0.149815700E+00  0.518113436E-01
   H -0.307714487E+02 -0.777142146E+00  0.197877020E+01
   H  0.305705418E+02 -0.589080923E+00 -0.232317116E+01
     4
 # iter = 58500  time[fs]=58.50000
   C -0.598131581E+01 -0.711656974E-01  0.205640631E-01
   C  0.628886401E+01  0.151941282E+00  0.527431965E-01
   H -0.311737008E+02 -0.787088433E+00  0.200476576E+01
   H  0.309694801E+02 -0.596965232E+00 -0.235403307E+01
     4
 # iter = 59000  time[fs]=59.00000
   C -0.606559475E+01 -0.720157517E-01  0.204465804E-01
   C  0.637602653E+01  0.154068974E+00  0.536761193E-01
   H -0.315761275E+02 -0.797039261E+00  0.203077345E+01
   H  0.313686110E+02 -0.604854284E+00 -0.238491187E+01
     4
 # iter = 59500  time[fs]=59.50000
   C -0.614995723E+01 -0.728671030E-01  0.203284371E-01
   C  0.646327112E+01  0.156198717E+00  0.546100901E-01
   H -0.319787246E+02 -0.806994517E+00  0.205679296E+01
   H  0.317679298E+02 -0.612747964E+00 -0.241580713E+01
     4
 # iter = 60000  time[fs]=60.00000
   C -0.623440097E+01 -0.737197146E-01  0.202096453E-01
   C  0.655059555E+01  0.158330457E+00  0.555450874E-01
   H -0.323814877E+02 -0.816954092E+00  0.208282400E+01
   H  0.321674319E+02 -0.620646161E+00 -0.244671846E+01
     4
 # iter = 60500  time[fs]=60.50000
   C -0.631892380E+01 -0.745735512E-01  0.200902169E-01
   C  0.663799767E+01  0.160464141E+00  0.564810904E-01
   H -0.327844129E+02 -0.826917879E+00  0.210886629E+01
   H  0.325671127E+02 -0.628548768E+00 -0.247764548E+01
     4
 # iter = 61000  time[fs]=61.00000
   C -0.640352360E+01 -0.754285791E-01  0.199701634E-01
   C  0.672547540E+01  0.162599717E+00  0.574180789E-01
   H -0.331874961E+02 -0.836885776E+00  0.213491957E+01
   H  0.329669679E+02 -0.636455680E+00 -0.250858780E+01
     4
 # iter = 61500  time[fs]=61.50000
   C -0.648819836E+01 -0.762847656E-01  0.198494963E-01
   C  0.681302677E+01  0.164737136E+00  0.583560331E-01
   H -0.335907337E+02 -0.846857686E+00  0.216098357E+01
   H  0.333669934E+02 -0.644366799E+00 -0.253954508E+01
     4
 # iter = 62000  time[fs]=62.00000
   C -0.657294615E+01 -0.771420797E-01  0.197282266E-01
   C  0.690064986E+01  0.166876352E+00  0.592949339E-01
   H -0.339941219E+02 -0.856833512E+00  0.218705805E+01
   H  0.337671851E+02 -0.652282027E+00 -0.257051695E+01
     4
 # iter = 62500  time[fs]=62.50000
   C -0.665776509E+01 -0.780004912E-01  0.196063650E-01
   C  0.698834284E+01  0.169017319E+00  0.602347627E-01
   H -0.343976572E+02 -0.866813165E+00  0.221314276E+01
   H  0.341675391E+02 -0.660201273E+00 -0.260150310E+01
     4
 # iter = 63000  time[fs]=63.00000
   C -0.674265338E+01 -0.788599715E-01  0.194839223E-01
   C  0.707610393E+01  0.171159994E+00  0.611755013E-01
   H -0.348013363E+02 -0.876796554E+00  0.223923748E+01
   H  0.345680517E+02 -0.668124444E+00 -0.263250320E+01
     4
 # iter = 63500  time[fs]=63.50000
   C -0.682760929E+01 -0.797204927E-01  0.193609087E-01
   C  0.716393143E+01  0.173304333E+00  0.621171322E-01
   H -0.352051559E+02 -0.886783596E+00  0.226534197E+01
   H  0.349687194E+02 -0.676051456E+00 -0.266351692E+01
     4
 # iter = 64000  time[fs]=64.00000
   C -0.691263115E+01 -0.805820282E-01  0.192373343E-01
   C  0.725182369E+01  0.175450297E+00  0.630596382E-01
   H -0.356091126E+02 -0.896774206E+00  0.229145602E+01
   H  0.353695384E+02 -0.683982223E+00 -0.269454398E+01
     4
 # iter = 64500  time[fs]=64.50000
   C -0.699771734E+01 -0.814445522E-01  0.191132090E-01
   C  0.733977913E+01  0.177597847E+00  0.640030026E-01
   H -0.360132036E+02 -0.906768306E+00  0.231757942E+01
   H  0.357705056E+02 -0.691916663E+00 -0.272558407E+01
     4
 # iter = 65000  time[fs]=65.00000
   C -0.708286632E+01 -0.823080399E-01  0.189885424E-01
   C  0.742779623E+01  0.179746945E+00  0.649472091E-01
   H -0.364174258E+02 -0.916765819E+00  0.234371196E+01
   H  0.361716176E+02 -0.699854698E+00 -0.275663692E+01
     4
 # iter = 65500  time[fs]=65.50000
   C -0.716807658E+01 -0.831724676E-01  0.188633440E-01
   C  0.751587350E+01  0.181897553E+00  0.658922419E-01
   H -0.368217764E+02 -0.926766669E+00  0.236985344E+01
   H  0.365728712E+02 -0.707796252E+00 -0.278770225E+01
     4
 # iter = 66000  time[fs]=66.00000
   C -0.725334668E+01 -0.840378122E-01  0.187376228E-01
   C  0.760400952E+01  0.184049638E+00  0.668380857E-01
   H -0.372262525E+02 -0.936770785E+00  0.239600369E+01
   H  0.369742634E+02 -0.715741251E+00 -0.281877979E+01
     4
 # iter = 66500  time[fs]=66.50000
   C -0.733867522E+01 -0.849040514E-01  0.186113880E-01
   C  0.769220292E+01  0.186203165E+00  0.677847255E-01
   H -0.376308516E+02 -0.946778096E+00  0.242216250E+01
   H  0.373757912E+02 -0.723689622E+00 -0.284986928E+01
     4
 # iter = 67000  time[fs]=67.00000
   C -0.742406084E+01 -0.857711640E-01  0.184846483E-01
   C  0.778045237E+01  0.188358101E+00  0.687321466E-01
   H -0.380355709E+02 -0.956788534E+00  0.244832970E+01
   H  0.377774517E+02 -0.731641296E+00 -0.288097049E+01
     4
 # iter = 67500  time[fs]=67.50000
   C -0.750950225E+01 -0.866391291E-01  0.183574123E-01
   C  0.786875659E+01  0.190514414E+00  0.696803349E-01
   H -0.384404079E+02 -0.966802035E+00  0.247450512E+01
   H  0.381792422E+02 -0.739596207E+00 -0.291208316E+01
     4
 # iter = 68000  time[fs]=68.00000
   C -0.759499818E+01 -0.875079269E-01  0.182296883E-01
   C  0.795711433E+01  0.192672074E+00  0.706292764E-01
   H -0.388453602E+02 -0.976818535E+00  0.250068859E+01
   H  0.385811600E+02 -0.747554287E+00 -0.294320707E+01
     4
 # iter = 68500  time[fs]=68.50000
   C -0.768054742E+01 -0.883775381E-01  0.181014845E-01
   C  0.804552440E+01  0.194831052E+00  0.715789577E-01
   H -0.392504255E+02 -0.986837971E+00  0.252687994E+01
   H  0.389832023E+02 -0.755515475E+00 -0.297434198E+01
     4
 # iter = 69000  time[fs]=69.00000
   C -0.776614877E+01 -0.892479439E-01  0.179728090E-01
   C  0.813398564E+01  0.196991317E+00  0.725293657E-01
   H -0.396556014E+02 -0.996860284E+00  0.255307902E+01
   H  0.393853668E+02 -0.763479709E+00 -0.300548768E+01
     4
 # iter = 69500  time[fs]=69.50000
   C -0.785180110E+01 -0.901191265E-01  0.178436695E-01
   C  0.822249692E+01  0.199152843E+00  0.734804874E-01
   H -0.400608857E+02 -0.100688542E+01  0.257928567E+01
   H  0.397876509E+02 -0.771446928E+00 -0.303664394E+01
     4
 # iter = 70000  time[fs]=70.00000
   C -0.793750331E+01 -0.909910684E-01  0.177140737E-01
   C  0.831105715E+01  0.201315602E+00  0.744323105E-01
   H -0.404662762E+02 -0.101691331E+01  0.260549975E+01
   H  0.401900523E+02 -0.779417076E+00 -0.306781057E+01
     4
 # iter = 70500  time[fs]=70.50000
   C -0.802325432E+01 -0.918637527E-01  0.175840290E-01
   C  0.839966529E+01  0.203479569E+00  0.753848227E-01
   H -0.408717709E+02 -0.102694392E+01  0.263172110E+01
   H  0.405925685E+02 -0.787390095E+00 -0.309898737E+01
     4
 # iter = 71000  time[fs]=71.00000
   C -0.810905309E+01 -0.927371632E-01  0.174535428E-01
   C  0.848832031E+01  0.205644718E+00  0.763380121E-01
   H -0.412773677E+02 -0.103697718E+01  0.265794960E+01
   H  0.409951975E+02 -0.795365930E+00 -0.313017412E+01
     4
 # iter = 71500  time[fs]=71.50000
   C -0.819489863E+01 -0.936112839E-01  0.173226222E-01
   C  0.857702122E+01  0.207811025E+00  0.772918671E-01
   H -0.416830645E+02 -0.104701304E+01  0.268418509E+01
   H  0.413979370E+02 -0.803344529E+00 -0.316137066E+01
     4
 # iter = 72000  time[fs]=72.00000
   C -0.828078995E+01 -0.944860997E-01  0.171912741E-01
   C  0.866576707E+01  0.209978465E+00  0.782463765E-01
   H -0.420888596E+02 -0.105705146E+01  0.271042746E+01
   H  0.418007848E+02 -0.811325840E+00 -0.319257679E+01
     4
 # iter = 72500  time[fs]=72.50000
   C -0.836672611E+01 -0.953615958E-01  0.170595055E-01
   C  0.875455693E+01  0.212147017E+00  0.792015292E-01
   H -0.424947509E+02 -0.106709238E+01  0.273667656E+01
   H  0.422037389E+02 -0.819309813E+00 -0.322379232E+01
     4
 # iter = 73000  time[fs]=73.00000
   C -0.845270620E+01 -0.962377577E-01  0.169273228E-01
   C  0.884338990E+01  0.214316656E+00  0.801573144E-01
   H -0.429007368E+02 -0.107713576E+01  0.276293228E+01
   H  0.426067974E+02 -0.827296398E+00 -0.325501710E+01
     4
 # iter = 73500  time[fs]=73.50000
   C -0.853872932E+01 -0.971145716E-01  0.167947327E-01
   C  0.893226510E+01  0.216487363E+00  0.811137216E-01
   H -0.433068154E+02 -0.108718155E+01  0.278919449E+01
   H  0.430099581E+02 -0.835285549E+00 -0.328625094E+01
     4
 # iter = 74000  time[fs]=74.00000
   C -0.862479461E+01 -0.979920240E-01  0.166617416E-01
   C  0.902118169E+01  0.218659115E+00  0.820707406E-01
   H -0.437129850E+02 -0.109722971E+01  0.281546307E+01
   H  0.434132194E+02 -0.843277218E+00 -0.331749368E+01
     4
 # iter = 74500  time[fs]=74.50000
   C -0.871090124E+01 -0.988701018E-01  0.165283556E-01
   C  0.911013884E+01  0.220831892E+00  0.830283613E-01
   H -0.441192440E+02 -0.110728019E+01  0.284173791E+01
   H  0.438165793E+02 -0.851271361E+00 -0.334874517E+01
     4
 # iter = 75000  time[fs]=75.00000
   C -0.879704840E+01 -0.997487922E-01  0.163945810E-01
   C  0.919913575E+01  0.223005675E+00  0.839865740E-01
   H -0.445255906E+02 -0.111733296E+01  0.286801890E+01
   H  0.442200360E+02 -0.859267934E+00 -0.338000524E+01
     4
 # iter = 75500  time[fs]=75.50000
   C -0.888323528E+01 -0.100628083E+00  0.162604235E-01
   C  0.928817165E+01  0.225180444E+00  0.849453691E-01
   H -0.449320234E+02 -0.112738797E+01  0.289430592E+01
   H  0.446235877E+02 -0.867266894E+00 -0.341127374E+01
     4
 # iter = 76000  time[fs]=76.00000
   C -0.896946113E+01 -0.101507962E+00  0.161258892E-01
   C  0.937724579E+01  0.227356180E+00  0.859047373E-01
   H -0.453385408E+02 -0.113744517E+01  0.292059887E+01
   H  0.450272329E+02 -0.875268200E+00 -0.344255053E+01
     4
 # iter = 76500  time[fs]=76.50000
   C -0.905572520E+01 -0.102388419E+00  0.159909837E-01
   C  0.946635743E+01  0.229532865E+00  0.868646695E-01
   H -0.457451413E+02 -0.114750454E+01  0.294689765E+01
   H  0.454309697E+02 -0.883271810E+00 -0.347383545E+01
     4
 # iter = 77000  time[fs]=77.00000
   C -0.914202677E+01 -0.103269440E+00  0.158557125E-01
   C  0.955550585E+01  0.231710482E+00  0.878251568E-01
   H -0.461518235E+02 -0.115756603E+01  0.297320215E+01
   H  0.458347967E+02 -0.891277687E+00 -0.350512837E+01
     4
 # iter = 77500  time[fs]=77.50000
   C -0.922836512E+01 -0.104151017E+00  0.157200812E-01
   C  0.964469037E+01  0.233889012E+00  0.887861905E-01
   H -0.465585858E+02 -0.116762961E+01  0.299951228E+01
   H  0.462387122E+02 -0.899285790E+00 -0.353642916E+01
     4
 # iter = 78000  time[fs]=78.00000
   C -0.931473958E+01 -0.105033137E+00  0.155840952E-01
   C  0.973391032E+01  0.236068440E+00  0.897477620E-01
   H -0.469654270E+02 -0.117769524E+01  0.302582793E+01
   H  0.466427147E+02 -0.907296083E+00 -0.356773767E+01
     4
 # iter = 78500  time[fs]=78.50000
   C -0.940114948E+01 -0.105915791E+00  0.154477595E-01
   C  0.982316503E+01  0.238248749E+00  0.907098631E-01
   H -0.473723457E+02 -0.118776289E+01  0.305214903E+01
   H  0.470468028E+02 -0.915308529E+00 -0.359905377E+01
     4
 # iter = 79000  time[fs]=79.00000
   C -0.948759417E+01 -0.106798969E+00  0.153110795E-01
   C  0.991245387E+01  0.240429923E+00  0.916724857E-01
   H -0.477793405E+02 -0.119783252E+01  0.307847547E+01
   H  0.474509749E+02 -0.923323093E+00 -0.363037735E+01
     4
 # iter = 79500  time[fs]=79.50000
   C -0.957407302E+01 -0.107682660E+00  0.151740602E-01
   C  0.100017762E+02  0.242611947E+00  0.926356217E-01
   H -0.481864102E+02 -0.120790410E+01  0.310480717E+01
   H  0.478552297E+02 -0.931339738E+00 -0.366170828E+01
     4
 # iter = 80000  time[fs]=80.00000
   C -0.966058541E+01 -0.108566856E+00  0.150367063E-01
   C  0.100911315E+02  0.244794806E+00  0.935992635E-01
   H -0.485935536E+02 -0.121797759E+01  0.313114403E+01
   H  0.482595658E+02 -0.939358433E+00 -0.369304642E+01
