     4
 # iter = 25000  time[fs]=25.00000
   C -0.967557401E+00  0.109583980E-01  0.161611591E-01
   C  0.101046748E+01  0.407070052E-01 -0.130488099E-01
   H -0.526746033E+01 -0.517468468E+00 -0.298199656E+00
   H  0.531474676E+01  0.484818604E+00 -0.282328326E+00
     4
 # iter = 25500  time[fs]=25.50000
   C -0.101239812E+01  0.115557772E-01  0.179480907E-01
   C  0.105109721E+01  0.386730291E-01 -0.128745461E-01
   H -0.560789559E+01 -0.558938052E+00 -0.322192396E+00
   H  0.562824633E+01  0.506741881E+00 -0.304907511E+00
     4
 # iter = 26000  time[fs]=26.00000
   C -0.106092016E+01  0.113573360E-01  0.190264767E-01
   C  0.109340289E+01  0.354950624E-01 -0.138783737E-01
   H -0.595874746E+01 -0.606355921E+00 -0.351883983E+00
   H  0.594214966E+01  0.523813678E+00 -0.333225701E+00
     4
 # iter = 26500  time[fs]=26.50000
   C -0.111057919E+01  0.126807684E-01  0.217025134E-01
   C  0.114061853E+01  0.346306174E-01 -0.125967166E-01
   H -0.630335171E+01 -0.643577721E+00 -0.371158436E+00
   H  0.627193215E+01  0.552067175E+00 -0.351156137E+00
     4
 # iter = 27000  time[fs]=27.00000
   C -0.116103995E+01  0.156447495E-01  0.260847314E-01
   C  0.119270042E+01  0.362466327E-01 -0.885747307E-02
   H -0.664043688E+01 -0.669755870E+00 -0.379191403E+00
   H  0.661784351E+01  0.592247185E+00 -0.357871001E+00
     4
 # iter = 27500  time[fs]=27.50000
   C -0.121381517E+01  0.185323251E-01  0.304472890E-01
   C  0.124687226E+01  0.377632800E-01 -0.523614937E-02
   H -0.698157705E+01 -0.696812334E+00 -0.387923978E+00
   H  0.696742470E+01  0.632335471E+00 -0.365314615E+00
     4
 # iter = 28000  time[fs]=28.00000
   C -0.126993198E+01  0.201289868E-01  0.335680601E-01
   C  0.130112741E+01  0.373548704E-01 -0.355471351E-02
   H -0.733489950E+01 -0.733175632E+00 -0.405801292E+00
   H  0.731178715E+01  0.663821825E+00 -0.381933814E+00
     4
 # iter = 28500  time[fs]=28.50000
   C -0.132872729E+01  0.209286936E-01  0.359345613E-01
   C  0.135603502E+01  0.357557257E-01 -0.307558365E-02
   H -0.769667901E+01 -0.775390896E+00 -0.429383420E+00
   H  0.765400449E+01  0.690097734E+00 -0.404283978E+00
     4
 # iter = 29000  time[fs]=29.00000
   C -0.138883988E+01  0.221397230E-01  0.387495962E-01
   C  0.141325000E+01  0.347710583E-01 -0.199074861E-02
   H -0.805825270E+01 -0.815035455E+00 -0.450260999E+00
   H  0.800217595E+01  0.719534375E+00 -0.423948523E+00
     4
 # iter = 29500  time[fs]=29.50000
   C -0.144971215E+01  0.241801970E-01  0.424265778E-01
   C  0.147325819E+01  0.350234625E-01  0.324705201E-03
   H -0.841648871E+01 -0.849185472E+00 -0.465521740E+00
   H  0.835893634E+01  0.755007274E+00 -0.438011697E+00
     4
 # iter = 30000  time[fs]=30.00000
   C -0.151179979E+01  0.264670836E-01  0.463784054E-01
   C  0.153505910E+01  0.356367446E-01  0.299647292E-02
   H -0.877525056E+01 -0.881883723E+00 -0.479218393E+00
   H  0.871997974E+01  0.792426412E+00 -0.450527387E+00
     4
 # iter = 30500  time[fs]=30.50000
   C -0.157563803E+01  0.283496167E-01  0.499508135E-01
   C  0.159756313E+01  0.356339613E-01  0.504916550E-02
   H -0.913889525E+01 -0.917644773E+00 -0.495874304E+00
   H  0.908055736E+01  0.827234792E+00 -0.466020464E+00
     4
 # iter = 31000  time[fs]=31.00000
   C -0.164113111E+01  0.298193498E-01  0.531323597E-01
   C  0.166065411E+01  0.350009027E-01  0.646987253E-02
   H -0.950732711E+01 -0.956514309E+00 -0.515543057E+00
   H  0.944042012E+01  0.859351911E+00 -0.484543184E+00
     4
 # iter = 31500  time[fs]=31.50000
   C -0.170775949E+01  0.313018034E-01  0.563459948E-01
   C  0.172487609E+01  0.343738484E-01  0.789595911E-02
   H -0.987744554E+01 -0.995519075E+00 -0.535258514E+00
   H  0.980236368E+01  0.891722151E+00 -0.503126231E+00
     4
 # iter = 32000  time[fs]=32.00000
   C -0.177517412E+01  0.330608541E-01  0.598533762E-01
   C  0.179053991E+01  0.341472300E-01  0.972274657E-02
   H -0.102472892E+02 -0.103281154E+01 -0.553179520E+00
   H  0.101680760E+02  0.926166578E+00 -0.519926210E+00
     4
 # iter = 32500  time[fs]=32.50000
   C -0.184340896E+01  0.349851407E-01  0.635412155E-01
   C  0.185740231E+01  0.341536004E-01  0.117835066E-01
   H -0.106175209E+02 -0.106915613E+01 -0.570076210E+00
   H  0.105366469E+02  0.961895181E+00 -0.535712932E+00
     4
 # iter = 33000  time[fs]=33.00000
   C -0.191262376E+01  0.368446203E-01  0.671777940E-01
   C  0.192504942E+01  0.340479469E-01  0.137338056E-01
   H -0.109896405E+02 -0.110614377E+01 -0.587544605E+00
   H  0.109063533E+02  0.997293350E+00 -0.552082731E+00
     4
 # iter = 33500  time[fs]=33.50000
   C -0.198282196E+01  0.385720101E-01  0.706943714E-01
   C  0.199331771E+01  0.337292822E-01  0.154731250E-01
   H -0.113640243E+02 -0.114423319E+01 -0.606048086E+00
   H  0.112766176E+02  0.103188162E+01 -0.569498563E+00
     4
 # iter = 34000  time[fs]=34.00000
   C -0.205384722E+01  0.402656103E-01  0.741879779E-01
   C  0.206229748E+01  0.333448279E-01  0.171490648E-01
   H -0.117399043E+02 -0.118273134E+01 -0.624897833E+00
   H  0.116480265E+02  0.106633507E+01 -0.587270438E+00
     4
 # iter = 34500  time[fs]=34.50000
   C -0.212555064E+01  0.420214937E-01  0.777535750E-01
   C  0.213208089E+01  0.330385661E-01  0.189059089E-01
   H -0.121165352E+02 -0.122096126E+01 -0.643420731E+00
   H  0.120211603E+02  0.110131432E+01 -0.604724155E+00
     4
 # iter = 35000  time[fs]=35.00000
   C -0.219788554E+01  0.438380845E-01  0.813886112E-01
   C  0.220261838E+01  0.328082598E-01  0.207416557E-01
   H -0.124938582E+02 -0.125892610E+01 -0.661623436E+00
   H  0.123959273E+02  0.113680087E+01 -0.621865834E+00
     4
 # iter = 35500  time[fs]=35.50000
   C -0.227086274E+01  0.456604371E-01  0.850372817E-01
   C  0.227378457E+01  0.325717777E-01  0.225743544E-01
   H -0.128721917E+02 -0.129700092E+01 -0.679884198E+00
   H  0.127718711E+02  0.117240535E+01 -0.639073500E+00
     4
 # iter = 36000  time[fs]=36.00000
   C -0.234447182E+01  0.474586109E-01  0.886688875E-01
   C  0.234549525E+01  0.322845040E-01  0.243595256E-01
   H -0.132516852E+02 -0.133538714E+01 -0.698407398E+00
   H  0.131487159E+02  0.120791329E+01 -0.656551219E+00
     4
 # iter = 36500  time[fs]=36.50000
   C -0.241866276E+01  0.492455957E-01  0.922957480E-01
   C  0.241773386E+01  0.319661814E-01  0.261170113E-01
   H -0.136321941E+02 -0.137398785E+01 -0.717098806E+00
   H  0.135264907E+02  0.124340986E+01 -0.674204267E+00
     4
 # iter = 37000  time[fs]=37.00000
   C -0.249337874E+01  0.510442483E-01  0.959401254E-01
   C  0.249050163E+01  0.316513612E-01  0.278814319E-01
   H -0.140135095E+02 -0.141263782E+01 -0.735795699E+00
   H  0.139052981E+02  0.127904949E+01 -0.691869413E+00
     4
 # iter = 37500  time[fs]=37.50000
   C -0.256858293E+01  0.528601269E-01  0.996070493E-01
   C  0.256377655E+01  0.313486942E-01  0.296614819E-01
   H -0.143955463E+02 -0.145129262E+01 -0.754455925E+00
   H  0.142851249E+02  0.131486661E+01 -0.709504118E+00
     4
 # iter = 38000  time[fs]=38.00000
   C -0.264425527E+01  0.546844861E-01  0.103287303E+00
   C  0.263751762E+01  0.310454124E-01  0.314444157E-01
   H -0.147783228E+02 -0.149000767E+01 -0.773137050E+00
   H  0.146658624E+02  0.135079643E+01 -0.727165659E+00
     4
 # iter = 38500  time[fs]=38.50000
   C -0.272037674E+01  0.565097825E-01  0.106972922E+00
   C  0.271168782E+01  0.307305564E-01  0.332192793E-01
   H -0.151618518E+02 -0.152883038E+01 -0.791888429E+00
   H  0.150474136E+02  0.138678292E+01 -0.744903124E+00
     4
 # iter = 39000  time[fs]=39.00000
   C -0.279692261E+01  0.583361844E-01  0.110663697E+00
   C  0.278626367E+01  0.304047250E-01  0.349866624E-01
   H -0.155460952E+02 -0.156775476E+01 -0.810705895E+00
   H  0.154297390E+02  0.142282406E+01 -0.762712058E+00
     4
 # iter = 39500  time[fs]=39.50000
   C -0.287386660E+01  0.601672606E-01  0.114362860E+00
   C  0.286122859E+01  0.300736114E-01  0.367522379E-01
   H -0.159309940E+02 -0.160675141E+01 -0.829561765E+00
   H  0.158128253E+02  0.145894182E+01 -0.780564492E+00
     4
 # iter = 40000  time[fs]=40.00000
   C -0.295118601E+01  0.620046493E-01  0.118071744E+00
   C  0.293656473E+01  0.297400139E-01  0.385187744E-01
   H -0.163165048E+02 -0.164580465E+01 -0.848441926E+00
   H  0.161966488E+02  0.149514498E+01 -0.798446063E+00
     4
 # iter = 40500  time[fs]=40.50000
   C -0.302886222E+01  0.638474257E-01  0.121789150E+00
   C  0.301225187E+01  0.294028862E-01  0.402851879E-01
   H -0.167026041E+02 -0.168491686E+01 -0.867350244E+00
   H  0.165811702E+02  0.153142469E+01 -0.816360409E+00
     4
 # iter = 41000  time[fs]=41.00000
   C -0.310687839E+01  0.656942633E-01  0.125513503E+00
   C  0.308827057E+01  0.290605742E-01  0.420497810E-01
   H -0.170892734E+02 -0.172409347E+01 -0.886293503E+00
   H  0.169663497E+02  0.156776951E+01 -0.834314106E+00
     4
 # iter = 41500  time[fs]=41.50000
   C -0.318521799E+01  0.675447868E-01  0.129244206E+00
   C  0.316460400E+01  0.287128421E-01  0.438122695E-01
   H -0.174764892E+02 -0.176333345E+01 -0.905271986E+00
   H  0.173521562E+02  0.160417478E+01 -0.852307240E+00
     4
 # iter = 42000  time[fs]=42.00000
   C -0.326386499E+01  0.693992676E-01  0.132981325E+00
   C  0.324123745E+01  0.283604152E-01  0.455733266E-01
   H -0.178642250E+02 -0.180263151E+01 -0.924281591E+00
   H  0.177385650E+02  0.164064053E+01 -0.870335520E+00
     4
 # iter = 42500  time[fs]=42.50000
   C -0.334280452E+01  0.712578855E-01  0.136724857E+00
   C  0.331815710E+01  0.280038734E-01  0.473334772E-01
   H -0.182524567E+02 -0.184198315E+01 -0.943318957E+00
   H  0.181255523E+02  0.167716630E+01 -0.888395409E+00
     4
 # iter = 43000  time[fs]=43.00000
   C -0.342202296E+01  0.731205064E-01  0.140474499E+00
   C  0.339534956E+01  0.276433175E-01  0.490927651E-01
   H -0.186411637E+02 -0.188138624E+01 -0.962383014E+00
   H  0.185130939E+02  0.171374956E+01 -0.906485672E+00
     4
 # iter = 43500  time[fs]=43.50000
   C -0.350150772E+01  0.749868872E-01  0.144229855E+00
   C  0.347280220E+01  0.272786759E-01  0.508510600E-01
   H -0.190303273E+02 -0.192083957E+01 -0.981473542E+00
   H  0.189011661E+02  0.175038715E+01 -0.924605937E+00
     4
 # iter = 44000  time[fs]=44.00000
   C -0.358124692E+01  0.768568637E-01  0.147990623E+00
   C  0.355050324E+01  0.269099862E-01  0.526083401E-01
   H -0.194199296E+02 -0.196034150E+01 -0.100058987E+01
   H  0.192897472E+02  0.178707655E+01 -0.942755383E+00
     4
 # iter = 44500  time[fs]=44.50000
   C -0.366122936E+01  0.787303552E-01  0.151756592E+00
   C  0.362844178E+01  0.265374017E-01  0.543646987E-01
   H -0.198099531E+02 -0.199988999E+01 -0.101973081E+01
   H  0.196788173E+02  0.182381594E+01 -0.960932704E+00
     4
 # iter = 45000  time[fs]=45.00000
   C -0.374144451E+01  0.806072918E-01  0.155527578E+00
   C  0.370660761E+01  0.261610836E-01  0.561202364E-01
   H -0.202003813E+02 -0.203948304E+01 -0.103889522E+01
   H  0.200683575E+02  0.186060365E+01 -0.979136602E+00
     4
 # iter = 45500  time[fs]=45.50000
   C -0.382188253E+01  0.824875806E-01  0.159303379E+00
   C  0.378499108E+01  0.257811486E-01  0.578750099E-01
   H -0.205911988E+02 -0.207911892E+01 -0.105808215E+01
   H  0.204583501E+02  0.189743794E+01 -0.997366029E+00
     4
 # iter = 46000  time[fs]=46.00000
   C -0.390253415E+01  0.843711164E-01  0.163083793E+00
   C  0.386358313E+01  0.253976873E-01  0.596290498E-01
   H -0.209823910E+02 -0.211879612E+01 -0.107729084E+01
   H  0.208487780E+02  0.193431703E+01 -0.101562010E+01
     4
 # iter = 46500  time[fs]=46.50000
   C -0.398339064E+01  0.862578008E-01  0.166868630E+00
   C  0.394237519E+01  0.250107908E-01  0.613823881E-01
   H -0.213739444E+02 -0.215851318E+01 -0.109652054E+01
   H  0.212396252E+02  0.197123930E+01 -0.103389795E+01
     4
 # iter = 47000  time[fs]=47.00000
   C -0.406444380E+01  0.881475452E-01  0.170657719E+00
   C  0.402135923E+01  0.246205573E-01  0.631350641E-01
   H -0.217658458E+02 -0.219826867E+01 -0.111577049E+01
   H  0.216308766E+02  0.200820321E+01 -0.105219873E+01
     4
 # iter = 47500  time[fs]=47.50000
   C -0.414568585E+01  0.900402660E-01  0.174450898E+00
   C  0.410052766E+01  0.242270841E-01  0.648871175E-01
   H -0.221580830E+02 -0.223806124E+01 -0.113503997E+01
   H  0.220225178E+02  0.204520736E+01 -0.107052162E+01
     4
 # iter = 48000  time[fs]=48.00000
   C -0.422710947E+01  0.919358812E-01  0.178248016E+00
   C  0.417987331E+01  0.238304630E-01  0.666385831E-01
   H -0.225506442E+02 -0.227788959E+01 -0.115432829E+01
   H  0.224145352E+02  0.208225036E+01 -0.108886583E+01
     4
 # iter = 48500  time[fs]=48.50000
   C -0.430870774E+01  0.938343106E-01  0.182048927E+00
   C  0.425938942E+01  0.234307805E-01  0.683894917E-01
   H -0.229435183E+02 -0.231775252E+01 -0.117363481E+01
   H  0.228069158E+02  0.211933093E+01 -0.110723065E+01
     4
 # iter = 49000  time[fs]=49.00000
   C -0.439047411E+01  0.957354765E-01  0.185853492E+00
   C  0.433906957E+01  0.230281200E-01  0.701398719E-01
   H -0.233366948E+02 -0.235764888E+01 -0.119295893E+01
   H  0.231996475E+02  0.215644782E+01 -0.112561538E+01
     4
 # iter = 49500  time[fs]=49.50000
   C -0.447240238E+01  0.976393045E-01  0.189661580E+00
   C  0.441890771E+01  0.226225625E-01  0.718897511E-01
   H -0.237301637E+02 -0.239757757E+01 -0.121230008E+01
   H  0.235927186E+02  0.219359985E+01 -0.114401937E+01
     4
 # iter = 50000  time[fs]=50.00000
   C -0.455448668E+01  0.995457231E-01  0.193473068E+00
   C  0.449889809E+01  0.222141862E-01  0.736391550E-01
   H -0.241239153E+02 -0.243753755E+01 -0.123165769E+01
   H  0.239861178E+02  0.223078591E+01 -0.116244199E+01
     4
 # iter = 50500  time[fs]=50.50000
   C -0.463672143E+01  0.101454663E+00  0.197287839E+00
   C  0.457903526E+01  0.218030666E-01  0.753881078E-01
   H -0.245179407E+02 -0.247752781E+01 -0.125103124E+01
   H  0.243798347E+02  0.226800491E+01 -0.118088264E+01
     4
 # iter = 51000  time[fs]=51.00000
   C -0.471910134E+01  0.103366058E+00  0.201105781E+00
   C  0.465931405E+01  0.213892764E-01  0.771366321E-01
   H -0.249122311E+02 -0.251754742E+01 -0.127042023E+01
   H  0.247738592E+02  0.230525586E+01 -0.119934076E+01
     4
 # iter = 51500  time[fs]=51.50000
   C -0.480162139E+01  0.105279843E+00  0.204926787E+00
   C  0.473972955E+01  0.209728856E-01  0.788847490E-01
   H -0.253067783E+02 -0.255759546E+01 -0.128982419E+01
   H  0.251681817E+02  0.234253776E+01 -0.121781580E+01
     4
 # iter = 52000  time[fs]=52.00000
   C -0.488427681E+01  0.107195957E+00  0.208750757E+00
   C  0.482027708E+01  0.205539617E-01  0.806324784E-01
   H -0.257015744E+02 -0.259767108E+01 -0.130924265E+01
   H  0.255627930E+02  0.237984969E+01 -0.123630725E+01
     4
 # iter = 52500  time[fs]=52.50000
   C -0.496706304E+01  0.109114339E+00  0.212577594E+00
   C  0.490095222E+01  0.201325700E-01  0.823798390E-01
   H -0.260966119E+02 -0.263777344E+01 -0.132867519E+01
   H  0.259576842E+02  0.241719075E+01 -0.125481460E+01
     4
 # iter = 53000  time[fs]=53.00000
   C -0.504997577E+01  0.111034931E+00  0.216407207E+00
   C  0.498175072E+01  0.197087734E-01  0.841268484E-01
   H -0.264918835E+02 -0.267790176E+01 -0.134812139E+01
   H  0.263528472E+02  0.245456011E+01 -0.127333740E+01
     4
 # iter = 53500  time[fs]=53.50000
   C -0.513301087E+01  0.112957679E+00  0.220239508E+00
   C  0.506266856E+01  0.192826326E-01  0.858735232E-01
   H -0.268873824E+02 -0.271805528E+01 -0.136758084E+01
   H  0.267482737E+02  0.249195694E+01 -0.129187518E+01
     4
 # iter = 54000  time[fs]=54.00000
   C -0.521616442E+01  0.114882527E+00  0.224074414E+00
   C  0.514370191E+01  0.188542061E-01  0.876198790E-01
   H -0.272831020E+02 -0.275823328E+01 -0.138705316E+01
   H  0.271439563E+02  0.252938046E+01 -0.131042752E+01
     4
 # iter = 54500  time[fs]=54.50000
   C -0.529943265E+01  0.116809424E+00  0.227911845E+00
   C  0.522484709E+01  0.184235507E-01  0.893659305E-01
   H -0.276790360E+02 -0.279843507E+01 -0.140653800E+01
   H  0.275398874E+02  0.256682993E+01 -0.132899399E+01
     4
 # iter = 55000  time[fs]=55.00000
   C -0.538281200E+01  0.118738321E+00  0.231751725E+00
   C  0.530610061E+01  0.179907209E-01  0.911116916E-01
   H -0.280751782E+02 -0.283865997E+01 -0.142603500E+01
   H  0.279360602E+02  0.260430463E+01 -0.134757421E+01
     4
 # iter = 55500  time[fs]=55.50000
   C -0.546629905E+01  0.120669167E+00  0.235593981E+00
   C  0.538745914E+01  0.175557695E-01  0.928571755E-01
   H -0.284715230E+02 -0.287890736E+01 -0.144554382E+01
   H  0.283324679E+02  0.264180387E+01 -0.136616778E+01
     4
 # iter = 56000  time[fs]=56.00000
   C -0.554989053E+01  0.122601916E+00  0.239438543E+00
   C  0.546891947E+01  0.171187476E-01  0.946023945E-01
   H -0.288680648E+02 -0.291917662E+01 -0.146506415E+01
   H  0.287291039E+02  0.267932699E+01 -0.138477435E+01
     4
 # iter = 56500  time[fs]=56.50000
   C -0.563358331E+01  0.124536524E+00  0.243285345E+00
   C  0.555047856E+01  0.166797045E-01  0.963473604E-01
   H -0.292647982E+02 -0.295946717E+01 -0.148459567E+01
   H  0.291259622E+02  0.271687336E+01 -0.140339357E+01
     4
 # iter = 57000  time[fs]=57.00000
   C -0.571737441E+01  0.126472946E+00  0.247134323E+00
   C  0.563213349E+01  0.162386878E-01  0.980920843E-01
   H -0.296617181E+02 -0.299977845E+01 -0.150413808E+01
   H  0.295230367E+02  0.275444236E+01 -0.142202510E+01
     4
 # iter = 57500  time[fs]=57.50000
   C -0.580126095E+01  0.128411139E+00  0.250985415E+00
   C  0.571388146E+01  0.157957435E-01  0.998365766E-01
   H -0.300588195E+02 -0.304010991E+01 -0.152369111E+01
   H  0.299203217E+02  0.279203342E+01 -0.144066861E+01
     4
 # iter = 58000  time[fs]=58.00000
   C -0.588524020E+01  0.130351063E+00  0.254838564E+00
   C  0.579571978E+01  0.153509163E-01  0.101580847E+00
   H -0.304560978E+02 -0.308046102E+01 -0.154325448E+01
   H  0.303178117E+02  0.282964596E+01 -0.145932379E+01
     4
 # iter = 58500  time[fs]=58.50000
   C -0.596930953E+01  0.132292679E+00  0.258693712E+00
   C  0.587764589E+01  0.149042493E-01  0.103324906E+00
   H -0.308535484E+02 -0.312083130E+01 -0.156282792E+01
   H  0.307155015E+02  0.286727944E+01 -0.147799035E+01
     4
 # iter = 59000  time[fs]=59.00000
   C -0.605346641E+01  0.134235947E+00  0.262550805E+00
   C  0.595965733E+01  0.144557843E-01  0.105068761E+00
   H -0.312511669E+02 -0.316122026E+01 -0.158241118E+01
   H  0.311133858E+02  0.290493335E+01 -0.149666800E+01
     4
 # iter = 59500  time[fs]=59.50000
   C -0.613770843E+01  0.136180831E+00  0.266409791E+00
   C  0.604175174E+01  0.140055615E-01  0.106812422E+00
   H -0.316489491E+02 -0.320162743E+01 -0.160200401E+01
   H  0.315114599E+02  0.294260718E+01 -0.151535645E+01
     4
 # iter = 60000  time[fs]=60.00000
   C -0.622203325E+01  0.138127294E+00  0.270270621E+00
   C  0.612392683E+01  0.135536201E-01  0.108555896E+00
   H -0.320468909E+02 -0.324205236E+01 -0.162160618E+01
   H  0.319097190E+02  0.298030044E+01 -0.153405545E+01
     4
 # iter = 60500  time[fs]=60.50000
   C -0.630643865E+01  0.140075302E+00  0.274133247E+00
   C  0.620618045E+01  0.130999980E-01  0.110299191E+00
   H -0.324449885E+02 -0.328249464E+01 -0.164121747E+01
   H  0.323081586E+02  0.301801266E+01 -0.155276473E+01
     4
 # iter = 61000  time[fs]=61.00000
   C -0.639092248E+01  0.142024822E+00  0.277997622E+00
   C  0.628851048E+01  0.126447318E-01  0.112042314E+00
   H -0.328432380E+02 -0.332295383E+01 -0.166083765E+01
   H  0.327067743E+02  0.305574341E+01 -0.157148405E+01
     4
 # iter = 61500  time[fs]=61.50000
   C -0.647548267E+01  0.143975819E+00  0.281863701E+00
   C  0.637091491E+01  0.121878572E-01  0.113785273E+00
   H -0.332416357E+02 -0.336342954E+01 -0.168046651E+01
   H  0.331055618E+02  0.309349223E+01 -0.159021317E+01
     4
 # iter = 62000  time[fs]=62.00000
   C -0.656011725E+01  0.145928264E+00  0.285731443E+00
   C  0.645339181E+01  0.117294085E-01  0.115528073E+00
   H -0.336401783E+02 -0.340392138E+01 -0.170010385E+01
   H  0.335045170E+02  0.313125871E+01 -0.160895185E+01
     4
 # iter = 62500  time[fs]=62.50000
   C -0.664482430E+01  0.147882124E+00  0.289600805E+00
   C  0.653593932E+01  0.112694191E-01  0.117270722E+00
   H -0.340388623E+02 -0.344442897E+01 -0.171974947E+01
   H  0.339036362E+02  0.316904244E+01 -0.162769988E+01
     4
 # iter = 63000  time[fs]=63.00000
   C -0.672960199E+01  0.149837371E+00  0.293471748E+00
   C  0.661855563E+01  0.108079215E-01  0.119013224E+00
   H -0.344376844E+02 -0.348495197E+01 -0.173940318E+01
   H  0.343029153E+02  0.320684303E+01 -0.164645704E+01
     4
 # iter = 63500  time[fs]=63.50000
   C -0.681444853E+01  0.151793975E+00  0.297344233E+00
   C  0.670123903E+01  0.103449471E-01  0.120755586E+00
   H -0.348366415E+02 -0.352549001E+01 -0.175906480E+01
   H  0.347023508E+02  0.324466011E+01 -0.166522311E+01
     4
 # iter = 64000  time[fs]=64.00000
   C -0.689936224E+01  0.153751908E+00  0.301218225E+00
   C  0.678398783E+01  0.988052625E-02  0.122497814E+00
   H -0.352357305E+02 -0.356604276E+01 -0.177873415E+01
   H  0.351019391E+02  0.328249330E+01 -0.168399791E+01
     4
 # iter = 64500  time[fs]=64.50000
   C -0.698434145E+01  0.155711143E+00  0.305093686E+00
   C  0.686680045E+01  0.941468862E-02  0.124239912E+00
   H -0.356349484E+02 -0.360660990E+01 -0.179841106E+01
   H  0.355016769E+02  0.332034226E+01 -0.170278123E+01
     4
 # iter = 65000  time[fs]=65.00000
   C -0.706938458E+01  0.157671654E+00  0.308970583E+00
   C  0.694967532E+01  0.894746290E-02  0.125981884E+00
   H -0.360342925E+02 -0.364719111E+01 -0.181809536E+01
   H  0.359015606E+02  0.335820663E+01 -0.172157289E+01
     4
 # iter = 65500  time[fs]=65.50000
   C -0.715449010E+01  0.159633415E+00  0.312848883E+00
   C  0.703261096E+01  0.847887696E-02  0.127723737E+00
   H -0.364337599E+02 -0.368778608E+01 -0.183778690E+01
   H  0.363015873E+02  0.339608609E+01 -0.174037270E+01
     4
 # iter = 66000  time[fs]=66.00000
   C -0.723965654E+01  0.161596401E+00  0.316728552E+00
   C  0.711560591E+01  0.800895786E-02  0.129465475E+00
   H -0.368333480E+02 -0.372839451E+01 -0.185748551E+01
   H  0.367017537E+02  0.343398031E+01 -0.175918050E+01
     4
 # iter = 66500  time[fs]=66.50000
   C -0.732488246E+01  0.163560588E+00  0.320609561E+00
   C  0.719865880E+01  0.753773190E-02  0.131207101E+00
   H -0.372330542E+02 -0.376901614E+01 -0.187719105E+01
   H  0.371020569E+02  0.347188899E+01 -0.177799610E+01
     4
 # iter = 67000  time[fs]=67.00000
   C -0.741016649E+01  0.165525953E+00  0.324491879E+00
   C  0.728176827E+01  0.706522462E-02  0.132948620E+00
   H -0.376328760E+02 -0.380965066E+01 -0.189690337E+01
   H  0.375024939E+02  0.350981182E+01 -0.179681935E+01
     4
 # iter = 67500  time[fs]=67.50000
   C -0.749550729E+01  0.167492472E+00  0.328375477E+00
   C  0.736493302E+01  0.659146084E-02  0.134690036E+00
   H -0.380328109E+02 -0.385029783E+01 -0.191662232E+01
   H  0.379030619E+02  0.354774851E+01 -0.181565008E+01
     4
 # iter = 68000  time[fs]=68.00000
   C -0.758090357E+01  0.169460123E+00  0.332260327E+00
   C  0.744815180E+01  0.611646469E-02  0.136431353E+00
   H -0.384328566E+02 -0.389095737E+01 -0.193634779E+01
   H  0.383037583E+02  0.358569877E+01 -0.183448814E+01
     4
 # iter = 68500  time[fs]=68.50000
   C -0.766635409E+01  0.171428886E+00  0.336146402E+00
   C  0.753142340E+01  0.564025964E-02  0.138172574E+00
   H -0.388330108E+02 -0.393162903E+01 -0.195607962E+01
   H  0.387045803E+02  0.362366234E+01 -0.185333338E+01
     4
 # iter = 69000  time[fs]=69.00000
   C -0.775185765E+01  0.173398738E+00  0.340033676E+00
   C  0.761474663E+01  0.516286850E-02  0.139913702E+00
   H -0.392332713E+02 -0.397231258E+01 -0.197581769E+01
   H  0.391055253E+02  0.366163894E+01 -0.187218565E+01
     4
 # iter = 69500  time[fs]=69.50000
   C -0.783741308E+01  0.175369659E+00  0.343922122E+00
   C  0.769812036E+01  0.468431346E-02  0.141654741E+00
   H -0.396336360E+02 -0.401300776E+01 -0.199556188E+01
   H  0.395065910E+02  0.369962832E+01 -0.189104482E+01
     4
 # iter = 70000  time[fs]=70.00000
   C -0.792301925E+01  0.177341631E+00  0.347811717E+00
   C  0.778154348E+01  0.420461612E-02  0.143395695E+00
   H -0.400341028E+02 -0.405371436E+01 -0.201531206E+01
   H  0.399077748E+02  0.373763022E+01 -0.190991074E+01
     4
 # iter = 70500  time[fs]=70.50000
   C -0.800867507E+01  0.179314632E+00  0.351702437E+00
   C  0.786501495E+01  0.372379748E-02  0.145136565E+00
   H -0.404346697E+02 -0.409443215E+01 -0.203506812E+01
   H  0.403090745E+02  0.377564440E+01 -0.192878328E+01
     4
 # iter = 71000  time[fs]=71.00000
   C -0.809437947E+01  0.181288645E+00  0.355594258E+00
   C  0.794853371E+01  0.324187799E-02  0.146877356E+00
   H -0.408353346E+02 -0.413516091E+01 -0.205482994E+01
   H  0.407104877E+02  0.381367062E+01 -0.194766232E+01
     4
 # iter = 71500  time[fs]=71.50000
   C -0.818013144E+01  0.183263651E+00  0.359487157E+00
   C  0.803209877E+01  0.275887758E-02  0.148618070E+00
   H -0.412360957E+02 -0.417590042E+01 -0.207459742E+01
   H  0.411120123E+02  0.385170866E+01 -0.196654772E+01
     4
 # iter = 72000  time[fs]=72.00000
   C -0.826592997E+01  0.185239633E+00  0.363381114E+00
   C  0.811570916E+01  0.227481562E-02  0.150358708E+00
   H -0.416369512E+02 -0.421665050E+01 -0.209437044E+01
   H  0.415136461E+02  0.388975829E+01 -0.198543937E+01
     4
 # iter = 72500  time[fs]=72.50000
   C -0.835177412E+01  0.187216572E+00  0.367276106E+00
   C  0.819936395E+01  0.178971100E-02  0.152099275E+00
   H -0.420378992E+02 -0.425741093E+01 -0.211414890E+01
   H  0.419153870E+02  0.392781929E+01 -0.200433714E+01
     4
 # iter = 73000  time[fs]=73.00000
   C -0.843766293E+01  0.189194452E+00  0.371172114E+00
   C  0.828306221E+01  0.130358211E-02  0.153839773E+00
   H -0.424389380E+02 -0.429818152E+01 -0.213393269E+01
   H  0.423172329E+02  0.396589145E+01 -0.202324093E+01
     4
 # iter = 73500  time[fs]=73.50000
   C -0.852359550E+01  0.191173257E+00  0.375069117E+00
   C  0.836680307E+01  0.816446873E-03  0.155580203E+00
   H -0.428400660E+02 -0.433896208E+01 -0.215372173E+01
   H  0.427191820E+02  0.400397457E+01 -0.204215062E+01
     4
 # iter = 74000  time[fs]=74.00000
   C -0.860957096E+01  0.193152971E+00  0.378967096E+00
   C  0.845058567E+01  0.328322761E-03  0.157320569E+00
   H -0.432412814E+02 -0.437975244E+01 -0.217351591E+01
   H  0.431212323E+02  0.404206844E+01 -0.206106609E+01
     4
 # iter = 74500  time[fs]=74.50000
   C -0.869558845E+01  0.195133577E+00  0.382866032E+00
   C  0.853440917E+01 -0.160773202E-03  0.159060872E+00
   H -0.436425826E+02 -0.442055240E+01 -0.219331514E+01
   H  0.435233820E+02  0.408017287E+01 -0.207998725E+01
     4
 # iter = 75000  time[fs]=75.00000
   C -0.878164713E+01  0.197115061E+00  0.386765907E+00
   C  0.861827277E+01 -0.650824419E-03  0.160801114E+00
   H -0.440439681E+02 -0.446136181E+01 -0.221311932E+01
   H  0.439256291E+02  0.411828768E+01 -0.209891400E+01
     4
 # iter = 75500  time[fs]=75.50000
   C -0.886774622E+01  0.199097407E+00  0.390666703E+00
   C  0.870217568E+01 -0.114181470E-02  0.162541298E+00
   H -0.444454364E+02 -0.450218049E+01 -0.223292837E+01
   H  0.443279720E+02  0.415641267E+01 -0.211784622E+01
     4
 # iter = 76000  time[fs]=76.00000
   C -0.895388491E+01  0.201080602E+00  0.394568403E+00
   C  0.878611714E+01 -0.163372827E-02  0.164281425E+00
   H -0.448469859E+02 -0.454300827E+01 -0.225274221E+01
   H  0.447304090E+02  0.419454767E+01 -0.213678383E+01
     4
 # iter = 76500  time[fs]=76.50000
   C -0.904006246E+01  0.203064630E+00  0.398470990E+00
   C  0.887009640E+01 -0.212654971E-02  0.166021498E+00
   H -0.452486153E+02 -0.458384500E+01 -0.227256075E+01
   H  0.451329383E+02  0.423269250E+01 -0.215572673E+01
     4
 # iter = 77000  time[fs]=77.00000
   C -0.912627811E+01  0.205049479E+00  0.402374447E+00
   C  0.895411276E+01 -0.262026402E-02  0.167761517E+00
   H -0.456503232E+02 -0.462469052E+01 -0.229238390E+01
   H  0.455355584E+02  0.427084700E+01 -0.217467483E+01
     4
 # iter = 77500  time[fs]=77.50000
   C -0.921253117E+01  0.207035134E+00  0.406278759E+00
   C  0.903816550E+01 -0.311485652E-02  0.169501486E+00
   H -0.460521081E+02 -0.466554468E+01 -0.231221158E+01
   H  0.459382677E+02  0.430901099E+01 -0.219362803E+01
     4
 # iter = 78000  time[fs]=78.00000
   C -0.929882092E+01  0.209021583E+00  0.410183911E+00
   C  0.912225394E+01 -0.361031290E-02  0.171241404E+00
   H -0.464539687E+02 -0.470640733E+01 -0.233204373E+01
   H  0.463410645E+02  0.434718432E+01 -0.221258625E+01
     4
 # iter = 78500  time[fs]=78.50000
   C -0.938514668E+01  0.211008813E+00  0.414089887E+00
   C  0.920637743E+01 -0.410661920E-02  0.172981275E+00
   H -0.468559038E+02 -0.474727832E+01 -0.235188026E+01
   H  0.467439475E+02  0.438536682E+01 -0.223154940E+01
     4
 # iter = 79000  time[fs]=79.00000
   C -0.947150780E+01  0.212996811E+00  0.417996672E+00
   C  0.929053532E+01 -0.460376178E-02  0.174721100E+00
   H -0.472579121E+02 -0.478815752E+01 -0.237172110E+01
   H  0.471469151E+02  0.442355835E+01 -0.225051740E+01
     4
 # iter = 79500  time[fs]=79.50000
   C -0.955790363E+01  0.214985565E+00  0.421904253E+00
   C  0.937472698E+01 -0.510172731E-02  0.176460879E+00
   H -0.476599923E+02 -0.482904479E+01 -0.239156618E+01
   H  0.475499660E+02  0.446175875E+01 -0.226949017E+01
     4
 # iter = 80000  time[fs]=80.00000
   C -0.964433355E+01  0.216975062E+00  0.425812616E+00
   C  0.945895181E+01 -0.560050280E-02  0.178200615E+00
   H -0.480621432E+02 -0.486994000E+01 -0.241141542E+01
   H  0.479530986E+02  0.449996787E+01 -0.228846763E+01
