     4
 # iter = 25000  time[fs]=25.00000
   C -0.977461413E+00 -0.927537069E-02  0.289400508E-01
   C  0.993484362E+00  0.136019420E-01  0.162059267E-01
   H -0.533968625E+01  0.757711678E-01 -0.477612881E+00
   H  0.533095921E+01  0.468921096E+00  0.329398972E+00
     4
 # iter = 25500  time[fs]=25.50000
   C -0.102268471E+01 -0.114332176E-01  0.298786496E-01
   C  0.103302523E+01  0.921070336E-02  0.144429789E-01
   H -0.567947682E+01  0.707586032E-01 -0.517166792E+00
   H  0.564176812E+01  0.485359703E+00  0.342665655E+00
     4
 # iter = 26000  time[fs]=26.00000
   C -0.107164713E+01 -0.144477756E-01  0.300491703E-01
   C  0.107433057E+01  0.370508051E-02  0.115365645E-01
   H -0.602965729E+01  0.603994809E-01 -0.562627227E+00
   H  0.595277782E+01  0.496913092E+00  0.350892477E+00
     4
 # iter = 26500  time[fs]=26.50000
   C -0.112169257E+01 -0.158885136E-01  0.318721978E-01
   C  0.112047255E+01  0.387257646E-03  0.107918545E-01
   H -0.637356949E+01  0.607721956E-01 -0.597851307E+00
   H  0.627949733E+01  0.519616819E+00  0.370134026E+00
     4
 # iter = 27000  time[fs]=27.00000
   C -0.117247915E+01 -0.156292938E-01  0.354653555E-01
   C  0.117139697E+01 -0.581013305E-03  0.123733730E-01
   H -0.670994895E+01  0.726669370E-01 -0.621996413E+00
   H  0.662220164E+01  0.554217407E+00  0.401153302E+00
     4
 # iter = 27500  time[fs]=27.50000
   C -0.122560086E+01 -0.154675154E-01  0.390239360E-01
   C  0.122444343E+01 -0.165941923E-02  0.138239678E-01
   H -0.705037796E+01  0.841108461E-01 -0.646992473E+00
   H  0.696845054E+01  0.588697823E+00  0.431947622E+00
     4
 # iter = 28000  time[fs]=28.00000
   C -0.128214189E+01 -0.166743533E-01  0.412703969E-01
   C  0.127768673E+01 -0.458832634E-02  0.134055412E-01
   H -0.740298990E+01  0.866320870E-01 -0.681274160E+00
   H  0.730937118E+01  0.614549193E+00  0.454020133E+00
     4
 # iter = 28500  time[fs]=28.50000
   C -0.134141436E+01 -0.187311175E-01  0.427178238E-01
   C  0.133166002E+01 -0.866551047E-02  0.118223181E-01
   H -0.776406165E+01  0.836502444E-01 -0.721388490E+00
   H  0.764805147E+01  0.635164702E+00  0.470773873E+00
     4
 # iter = 29000  time[fs]=29.00000
   C -0.140199802E+01 -0.203708318E-01  0.446282669E-01
   C  0.138793322E+01 -0.121670787E-01  0.107999537E-01
   H -0.812493039E+01  0.835583994E-01 -0.758912669E+00
   H  0.799260326E+01  0.658917308E+00  0.490590046E+00
     4
 # iter = 29500  time[fs]=29.50000
   C -0.146331413E+01 -0.211545142E-01  0.474364052E-01
   C  0.144696163E+01 -0.144977891E-01  0.109352490E-01
   H -0.848246532E+01  0.892534077E-01 -0.790924092E+00
   H  0.834567171E+01  0.688684078E+00  0.516352899E+00
     4
 # iter = 30000  time[fs]=30.00000
   C -0.152584518E+01 -0.216922275E-01  0.505284153E-01
   C  0.150778320E+01 -0.164927229E-01  0.113945033E-01
   H -0.884053250E+01  0.966671783E-01 -0.821468648E+00
   H  0.870295908E+01  0.720376244E+00  0.543980020E+00
     4
 # iter = 30500  time[fs]=30.50000
   C -0.159015656E+01 -0.226650749E-01  0.532198848E-01
   C  0.156935153E+01 -0.190832333E-01  0.112475808E-01
   H -0.920349125E+01  0.101262613E+00 -0.855063895E+00
   H  0.905972343E+01  0.749437953E+00  0.568921121E+00
     4
 # iter = 31000  time[fs]=31.00000
   C -0.165615201E+01 -0.240812303E-01  0.554997052E-01
   C  0.163154970E+01 -0.222821349E-01  0.104827360E-01
   H -0.957124659E+01  0.102975097E+00 -0.891756881E+00
   H  0.941572183E+01  0.775789858E+00  0.591101673E+00
     4
 # iter = 31500  time[fs]=31.50000
   C -0.172329077E+01 -0.254942336E-01  0.578117266E-01
   C  0.169489130E+01 -0.254816303E-01  0.970870584E-02
   H -0.994069757E+01  0.104761809E+00 -0.928574570E+00
   H  0.977375540E+01  0.802377489E+00  0.613471395E+00
     4
 # iter = 32000  time[fs]=32.00000
   C -0.179121041E+01 -0.266270387E-01  0.604306734E-01
   C  0.175966791E+01 -0.283047723E-01  0.930326667E-02
   H -0.103098826E+02  0.108455645E+00 -0.963669865E+00
   H  0.101355169E+02  0.831022954E+00  0.637856101E+00
     4
 # iter = 32500  time[fs]=32.50000
   C -0.185994953E+01 -0.275958027E-01  0.632383214E-01
   C  0.182564289E+01 -0.309108288E-01  0.910788471E-02
   H -0.106794650E+02  0.113278338E+00 -0.997808344E+00
   H  0.105001001E+02  0.860937162E+00  0.663470010E+00
     4
 # iter = 33000  time[fs]=33.00000
   C -0.192967821E+01 -0.286410707E-01  0.659922780E-01
   C  0.189241727E+01 -0.336285614E-01  0.879444838E-02
   H -0.110509453E+02  0.117626289E+00 -0.103258221E+01
   H  0.108657852E+02  0.890506325E+00  0.688702302E+00
     4
 # iter = 33500  time[fs]=33.50000
   C -0.200040255E+01 -0.298328898E-01  0.686208371E-01
   C  0.195983131E+01 -0.365539350E-01  0.826756952E-02
   H -0.114246998E+02  0.121029577E+00 -0.106845103E+01
   H  0.112319980E+02  0.919251770E+00  0.713076953E+00
     4
 # iter = 34000  time[fs]=34.00000
   C -0.207196100E+01 -0.310678469E-01  0.712259172E-01
   C  0.202796783E+01 -0.395461172E-01  0.766859240E-02
   H -0.117999604E+02  0.124171433E+00 -0.110472216E+01
   H  0.115993276E+02  0.947849316E+00  0.737272149E+00
     4
 # iter = 34500  time[fs]=34.50000
   C -0.214419958E+01 -0.322448929E-01  0.739072180E-01
   C  0.209691168E+01 -0.424674040E-01  0.713567684E-02
   H -0.121759814E+02  0.127719907E+00 -0.114071897E+01
   H  0.119683570E+02  0.976960300E+00  0.761951361E+00
     4
 # iter = 35000  time[fs]=35.00000
   C -0.221707127E+01 -0.333653178E-01  0.766622291E-01
   C  0.216661282E+01 -0.453196462E-01  0.666737891E-02
   H -0.125527040E+02  0.131663529E+00 -0.117644508E+01
   H  0.123389964E+02  0.100656685E+01  0.787098646E+00
     4
 # iter = 35500  time[fs]=35.50000
   C -0.229058913E+01 -0.344863551E-01  0.794326104E-01
   C  0.223694908E+01 -0.481809591E-01  0.618594773E-02
   H -0.129304465E+02  0.135619542E+00 -0.121227610E+01
   H  0.127107915E+02  0.103628018E+01  0.812326973E+00
     4
 # iter = 36000  time[fs]=36.00000
   C -0.236474383E+01 -0.356390611E-01  0.821862988E-01
   C  0.230783781E+01 -0.510936859E-01  0.564936644E-02
   H -0.133093583E+02  0.139379480E+00 -0.124841393E+01
   H  0.130834680E+02  0.106588636E+01  0.837424013E+00
     4
 # iter = 36500  time[fs]=36.50000
   C -0.243948441E+01 -0.368095313E-01  0.849362809E-01
   C  0.237926111E+01 -0.540387821E-01  0.507697291E-02
   H -0.136892947E+02  0.143033913E+00 -0.128476195E+01
   H  0.134570564E+02  0.109547109E+01  0.862476904E+00
     4
 # iter = 37000  time[fs]=37.00000
   C -0.251475267E+01 -0.379735420E-01  0.877059414E-01
   C  0.245121820E+01 -0.569830923E-01  0.450218665E-02
   H -0.140700464E+02  0.146742220E+00 -0.132115522E+01
   H  0.138316608E+02  0.112518928E+01  0.887641894E+00
     4
 # iter = 37500  time[fs]=37.50000
   C -0.259051127E+01 -0.391250118E-01  0.905005935E-01
   C  0.252368633E+01 -0.599181925E-01  0.393366994E-02
   H -0.144515282E+02  0.150543433E+00 -0.135754956E+01
   H  0.142072692E+02  0.115507580E+01  0.912955070E+00
     4
 # iter = 38000  time[fs]=38.00000
   C -0.266674033E+01 -0.402728621E-01  0.933106104E-01
   C  0.259662475E+01 -0.628561117E-01  0.335960927E-02
   H -0.148337581E+02  0.154377075E+00 -0.139400068E+01
   H  0.145837739E+02  0.118506628E+01  0.938353180E+00
     4
 # iter = 38500  time[fs]=38.50000
   C -0.274342097E+01 -0.414247696E-01  0.961276671E-01
   C  0.266999664E+01 -0.658071669E-01  0.276988295E-02
   H -0.152167488E+02  0.158191095E+00 -0.143055623E+01
   H  0.149610791E+02  0.121510508E+01  0.963781601E+00
     4
 # iter = 39000  time[fs]=39.00000
   C -0.282052828E+01 -0.425803444E-01  0.989515555E-01
   C  0.274377822E+01 -0.687706585E-01  0.216536776E-02
   H -0.156004620E+02  0.161987177E+00 -0.146721043E+01
   H  0.153391460E+02  0.124519055E+01  0.989239647E+00
     4
 # iter = 39500  time[fs]=39.50000
   C -0.289803562E+01 -0.437356466E-01  0.101785664E+00
   C  0.281795241E+01 -0.717410368E-01  0.155177486E-02
   H -0.159848385E+02  0.165790706E+00 -0.150393409E+01
   H  0.157179622E+02  0.127534501E+01  0.101475051E+01
     4
 # iter = 40000  time[fs]=40.00000
   C -0.297592006E+01 -0.448887707E-01  0.104631387E+00
   C  0.289250099E+01 -0.747155238E-01  0.932029073E-03
   H -0.163698345E+02  0.169613648E+00 -0.154071167E+01
   H  0.160975048E+02  0.130557756E+01  0.104032409E+01
     4
 # iter = 40500  time[fs]=40.50000
   C -0.305416287E+01 -0.460405075E-01  0.107487461E+00
   C  0.296740361E+01 -0.776950191E-01  0.305365060E-03
   H -0.167554266E+02  0.173450136E+00 -0.157754575E+01
   H  0.164777351E+02  0.133587965E+01  0.106595261E+01
     4
 # iter = 41000  time[fs]=41.00000
   C -0.313274714E+01 -0.471920785E-01  0.110352225E+00
   C  0.304264068E+01 -0.806810098E-01 -0.329581498E-03
   H -0.171415959E+02  0.177291512E+00 -0.161444188E+01
   H  0.168586141E+02  0.136624011E+01  0.109162560E+01
     4
 # iter = 41500  time[fs]=41.50000
   C -0.321165625E+01 -0.483437185E-01  0.113225036E+00
   C  0.311819524E+01 -0.836736368E-01 -0.972839071E-03
   H -0.175283187E+02  0.181135745E+00 -0.165139919E+01
   H  0.172401111E+02  0.139665459E+01  0.111733933E+01
     4
 # iter = 42000  time[fs]=42.00000
   C -0.329087404E+01 -0.494949928E-01  0.116105948E+00
   C  0.319405237E+01 -0.866721304E-01 -0.162353454E-02
   H -0.179155684E+02  0.184985303E+00 -0.168841250E+01
   H  0.176222020E+02  0.142712334E+01  0.114309470E+01
     4
 # iter = 42500  time[fs]=42.50000
   C -0.337038551E+01 -0.506455712E-01  0.118994938E+00
   C  0.327019808E+01 -0.896758653E-01 -0.228094774E-02
   H -0.183033207E+02  0.188842009E+00 -0.172547744E+01
   H  0.180048635E+02  0.145764615E+01  0.116889205E+01
     4
 # iter = 43000  time[fs]=43.00000
   C -0.345017699E+01 -0.517954597E-01  0.121891667E+00
   C  0.334661885E+01 -0.926846786E-01 -0.294482842E-02
   H -0.186915548E+02  0.192705497E+00 -0.176259197E+01
   H  0.183880718E+02  0.148822072E+01  0.119472961E+01
     4
 # iter = 43500  time[fs]=43.50000
   C -0.353023579E+01 -0.529447857E-01  0.124795699E+00
   C  0.342330190E+01 -0.956985767E-01 -0.361510220E-02
   H -0.190802518E+02  0.196574629E+00 -0.179975499E+01
   H  0.187718037E+02  0.151884410E+01  0.122060491E+01
     4
 # iter = 44000  time[fs]=44.00000
   C -0.361054997E+01 -0.540936005E-01  0.127706692E+00
   C  0.350023537E+01 -0.987174661E-01 -0.429160112E-02
   H -0.194693936E+02  0.200448807E+00 -0.183696497E+01
   H  0.191560378E+02  0.154951397E+01  0.124651614E+01
     4
 # iter = 44500  time[fs]=44.50000
   C -0.369110826E+01 -0.552418741E-01  0.130624403E+00
   C  0.357740824E+01 -0.101741147E+00 -0.497405622E-02
   H -0.198589627E+02  0.204328001E+00 -0.187421994E+01
   H  0.195407545E+02  0.158022871E+01  0.127246207E+01
     4
 # iter = 45000  time[fs]=45.00000
   C -0.377190007E+01 -0.563895706E-01  0.133548615E+00
   C  0.365481018E+01 -0.104769415E+00 -0.566219992E-02
   H -0.202489422E+02  0.208212246E+00 -0.191151797E+01
   H  0.199259355E+02  0.161098683E+01  0.129844165E+01
     4
 # iter = 45500  time[fs]=45.50000
   C -0.385291548E+01 -0.575366843E-01  0.136479090E+00
   C  0.373243146E+01 -0.107802112E+00 -0.635581471E-02
   H -0.206393167E+02  0.212101399E+00 -0.194885742E+01
   H  0.203115631E+02  0.164178675E+01  0.132445368E+01
     4
 # iter = 46000  time[fs]=46.00000
   C -0.393414519E+01 -0.586832265E-01  0.139415593E+00
   C  0.381026291E+01 -0.110839109E+00 -0.705471554E-02
   H -0.210300716E+02  0.215995223E+00 -0.198623684E+01
   H  0.206976206E+02  0.167262688E+01  0.135049693E+01
     4
 # iter = 46500  time[fs]=46.50000
   C -0.401558042E+01 -0.598292070E-01  0.142357901E+00
   C  0.388829590E+01 -0.113880276E+00 -0.775872309E-02
   H -0.214211929E+02  0.219893509E+00 -0.202365484E+01
   H  0.210840924E+02  0.170350573E+01  0.137657026E+01
     4
 # iter = 47000  time[fs]=47.00000
   C -0.409721291E+01 -0.609746293E-01  0.145305808E+00
   C  0.396652230E+01 -0.116925482E+00 -0.846765780E-02
   H -0.218126675E+02  0.223796106E+00 -0.206111006E+01
   H  0.214709634E+02  0.173442193E+01  0.140267262E+01
     4
 # iter = 47500  time[fs]=47.50000
   C -0.417903486E+01 -0.621194959E-01  0.148259124E+00
   C  0.404493447E+01 -0.119974599E+00 -0.918134623E-02
   H -0.222044830E+02  0.227702883E+00 -0.209860119E+01
   H  0.218582196E+02  0.176537419E+01  0.142880304E+01
     4
 # iter = 48000  time[fs]=48.00000
   C -0.426103890E+01 -0.632638115E-01  0.151217662E+00
   C  0.412352517E+01 -0.123027504E+00 -0.989962541E-02
   H -0.225966274E+02  0.231613705E+00 -0.213612699E+01
   H  0.222458476E+02  0.179636130E+01  0.145496058E+01
     4
 # iter = 48500  time[fs]=48.50000
   C -0.434321807E+01 -0.644075829E-01  0.154181248E+00
   C  0.420228756E+01 -0.126084083E+00 -0.106223421E-01
   H -0.229890897E+02  0.235528437E+00 -0.217368632E+01
   H  0.226338347E+02  0.182738207E+01  0.148114434E+01
     4
 # iter = 49000  time[fs]=49.00000
   C -0.442556581E+01 -0.655508174E-01  0.157149712E+00
   C  0.428121519E+01 -0.129144227E+00 -0.113493503E-01
   H -0.233818590E+02  0.239446948E+00 -0.221127806E+01
   H  0.230221688E+02  0.185843538E+01  0.150735347E+01
     4
 # iter = 49500  time[fs]=49.50000
   C -0.450807586E+01 -0.666935222E-01  0.160122896E+00
   C  0.436030192E+01 -0.132207829E+00 -0.120805106E-01
   H -0.237749253E+02  0.243369118E+00 -0.224890116E+01
   H  0.234108383E+02  0.188952019E+01  0.153358714E+01
     4
 # iter = 50000  time[fs]=50.00000
   C -0.459074234E+01 -0.678357049E-01  0.163100647E+00
   C  0.443954197E+01 -0.135274789E+00 -0.128156895E-01
   H -0.241682789E+02  0.247294831E+00 -0.228655462E+01
   H  0.237998324E+02  0.192063546E+01  0.155984459E+01
     4
 # iter = 50500  time[fs]=50.50000
   C -0.467355963E+01 -0.689773731E-01  0.166082819E+00
   C  0.451892984E+01 -0.138345008E+00 -0.135547600E-01
   H -0.245619106E+02  0.251223978E+00 -0.232423748E+01
   H  0.241891407E+02  0.195178025E+01  0.158612508E+01
     4
 # iter = 51000  time[fs]=51.00000
   C -0.475652244E+01 -0.701185348E-01  0.169069275E+00
   C  0.459846031E+01 -0.141418394E+00 -0.142976007E-01
   H -0.249558115E+02  0.255156454E+00 -0.236194883E+01
   H  0.245787532E+02  0.198295364E+01  0.161242790E+01
     4
 # iter = 51500  time[fs]=51.50000
   C -0.483962571E+01 -0.712591981E-01  0.172059883E+00
   C  0.467812843E+01 -0.144494858E+00 -0.150440957E-01
   H -0.253499735E+02  0.259092158E+00 -0.239968780E+01
   H  0.249686603E+02  0.201415474E+01  0.163875238E+01
     4
 # iter = 52000  time[fs]=52.00000
   C -0.492286464E+01 -0.723993714E-01  0.175054515E+00
   C  0.475792949E+01 -0.147574313E+00 -0.157941343E-01
   H -0.257443884E+02  0.263030995E+00 -0.243745356E+01
   H  0.253588532E+02  0.204538273E+01  0.166509787E+01
     4
 # iter = 52500  time[fs]=52.50000
   C -0.500623467E+01 -0.735390628E-01  0.178053050E+00
   C  0.483785900E+01 -0.150656677E+00 -0.165476104E-01
   H -0.261390486E+02  0.266972873E+00 -0.247524532E+01
   H  0.257493232E+02  0.207663680E+01  0.169146376E+01
     4
 # iter = 53000  time[fs]=53.00000
   C -0.508973147E+01 -0.746782805E-01  0.181055374E+00
   C  0.491791270E+01 -0.153741870E+00 -0.173044226E-01
   H -0.265339469E+02  0.270917705E+00 -0.251306230E+01
   H  0.261400619E+02  0.210791618E+01  0.171784946E+01
     4
 # iter = 53500  time[fs]=53.50000
   C -0.517335087E+01 -0.758170330E-01  0.184061376E+00
   C  0.499808654E+01 -0.156829816E+00 -0.180644739E-01
   H -0.269290762E+02  0.274865405E+00 -0.255090379E+01
   H  0.265310615E+02  0.213922015E+01  0.174425440E+01
     4
 # iter = 54000  time[fs]=54.00000
   C -0.525708896E+01 -0.769553283E-01  0.187070949E+00
   C  0.507837664E+01 -0.159920442E+00 -0.188276710E-01
   H -0.273244299E+02  0.278815894E+00 -0.258876909E+01
   H  0.269223145E+02  0.217054801E+01  0.177067804E+01
     4
 # iter = 54500  time[fs]=54.50000
   C -0.534094195E+01 -0.780931747E-01  0.190083992E+00
   C  0.515877930E+01 -0.163013677E+00 -0.195939249E-01
   H -0.277200016E+02  0.282769094E+00 -0.262665753E+01
   H  0.273138136E+02  0.220189907E+01  0.179711987E+01
     4
 # iter = 55000  time[fs]=55.00000
   C -0.542490626E+01 -0.792305802E-01  0.193100407E+00
   C  0.523929100E+01 -0.166109453E+00 -0.203631500E-01
   H -0.281157852E+02  0.286724930E+00 -0.266456847E+01
   H  0.277055518E+02  0.223327270E+01  0.182357938E+01
     4
 # iter = 55500  time[fs]=55.50000
   C -0.550897845E+01 -0.803675530E-01  0.196120101E+00
   C  0.531990838E+01 -0.169207705E+00 -0.211352641E-01
   H -0.285117747E+02  0.290683333E+00 -0.270250130E+01
   H  0.280975225E+02  0.226466828E+01  0.185005611E+01
     4
 # iter = 56000  time[fs]=56.00000
   C -0.559315525E+01 -0.815041008E-01  0.199142984E+00
   C  0.540062822E+01 -0.172308370E+00 -0.219101884E-01
   H -0.289079645E+02  0.294644234E+00 -0.274045542E+01
   H  0.284897194E+02  0.229608521E+01  0.187654958E+01
     4
 # iter = 56500  time[fs]=56.50000
   C -0.567743352E+01 -0.826402315E-01  0.202168970E+00
   C  0.548144743E+01 -0.175411387E+00 -0.226878473E-01
   H -0.293043493E+02  0.298607566E+00 -0.277843027E+01
   H  0.288821363E+02  0.232752294E+01  0.190305936E+01
     4
 # iter = 57000  time[fs]=57.00000
   C -0.576181026E+01 -0.837759529E-01  0.205197976E+00
   C  0.556236308E+01 -0.178516697E+00 -0.234681679E-01
   H -0.297009237E+02  0.302573266E+00 -0.281642531E+01
   H  0.292747673E+02  0.235898090E+01  0.192958502E+01
     4
 # iter = 57500  time[fs]=57.50000
   C -0.584628259E+01 -0.849112724E-01  0.208229923E+00
   C  0.564337234E+01 -0.181624244E+00 -0.242510803E-01
   H -0.300976829E+02  0.306541275E+00 -0.285444001E+01
   H  0.296676067E+02  0.239045857E+01  0.195612616E+01
     4
 # iter = 58000  time[fs]=58.00000
   C -0.593084777E+01 -0.860461975E-01  0.211264733E+00
   C  0.572447252E+01 -0.184733973E+00 -0.250365171E-01
   H -0.304946221E+02  0.310511533E+00 -0.289247387E+01
   H  0.300606493E+02  0.242195546E+01  0.198268239E+01
     4
 # iter = 58500  time[fs]=58.50000
   C -0.601550315E+01 -0.871807356E-01  0.214302334E+00
   C  0.580566103E+01 -0.187845832E+00 -0.258244137E-01
   H -0.308917365E+02  0.314483985E+00 -0.293052641E+01
   H  0.304538896E+02  0.245347106E+01  0.200925333E+01
     4
 # iter = 59000  time[fs]=59.00000
   C -0.610024620E+01 -0.883148938E-01  0.217342655E+00
   C  0.588693538E+01 -0.190959771E+00 -0.266147076E-01
   H -0.312890218E+02  0.318458575E+00 -0.296859715E+01
   H  0.308473228E+02  0.248500492E+01  0.203583861E+01
     4
 # iter = 59500  time[fs]=59.50000
   C -0.618507449E+01 -0.894486791E-01  0.220385626E+00
   C  0.596829319E+01 -0.194075739E+00 -0.274073388E-01
   H -0.316864737E+02  0.322435252E+00 -0.300668566E+01
   H  0.312409438E+02  0.251655657E+01  0.206243788E+01
     4
 # iter = 60000  time[fs]=60.00000
   C -0.626998570E+01 -0.905820985E-01  0.223431183E+00
   C  0.604973218E+01 -0.197193691E+00 -0.282022493E-01
   H -0.320840881E+02  0.326413965E+00 -0.304479149E+01
   H  0.316347482E+02  0.254812559E+01  0.208905081E+01
     4
 # iter = 60500  time[fs]=60.50000
   C -0.635497757E+01 -0.917151587E-01  0.226479262E+00
   C  0.613125015E+01 -0.200313579E+00 -0.289993835E-01
   H -0.324818609E+02  0.330394667E+00 -0.308291423E+01
   H  0.320287314E+02  0.257971156E+01  0.211567707E+01
     4
 # iter = 61000  time[fs]=61.00000
   C -0.644004797E+01 -0.928478663E-01  0.229529801E+00
   C  0.621284499E+01 -0.203435360E+00 -0.297986875E-01
   H -0.328797884E+02  0.334377308E+00 -0.312105348E+01
   H  0.324228890E+02  0.261131407E+01  0.214231635E+01
     4
 # iter = 61500  time[fs]=61.50000
   C -0.652519482E+01 -0.939802279E-01  0.232582743E+00
   C  0.629451467E+01 -0.206558991E+00 -0.306001093E-01
   H -0.332778669E+02  0.338361846E+00 -0.315920884E+01
   H  0.328172170E+02  0.264293273E+01  0.216896833E+01
     4
 # iter = 62000  time[fs]=62.00000
   C -0.661041613E+01 -0.951122498E-01  0.235638029E+00
   C  0.637625724E+01 -0.209684431E+00 -0.314035988E-01
   H -0.336760927E+02  0.342348235E+00 -0.319737996E+01
   H  0.332117111E+02  0.267456716E+01  0.219563274E+01
     4
 # iter = 62500  time[fs]=62.50000
   C -0.669570999E+01 -0.962439382E-01  0.238695605E+00
   C  0.645807082E+01 -0.212811639E+00 -0.322091077E-01
   H -0.340744625E+02  0.346336434E+00 -0.323556645E+01
   H  0.336063677E+02  0.270621701E+01  0.222230928E+01
     4
 # iter = 63000  time[fs]=63.00000
   C -0.678107455E+01 -0.973752991E-01  0.241755417E+00
   C  0.653995361E+01 -0.215940577E+00 -0.330165893E-01
   H -0.344729730E+02  0.350326402E+00 -0.327376797E+01
   H  0.340011829E+02  0.273788191E+01  0.224899769E+01
     4
 # iter = 63500  time[fs]=63.50000
   C -0.686650803E+01 -0.985063386E-01  0.244817416E+00
   C  0.662190386E+01 -0.219071207E+00 -0.338259983E-01
   H -0.348716208E+02  0.354318100E+00 -0.331198419E+01
   H  0.343961530E+02  0.276956154E+01  0.227569769E+01
     4
 # iter = 64000  time[fs]=64.00000
   C -0.695200873E+01 -0.996370624E-01  0.247881550E+00
   C  0.670391989E+01 -0.222203493E+00 -0.346372911E-01
   H -0.352704030E+02  0.358311488E+00 -0.335021478E+01
   H  0.347912746E+02  0.280125555E+01  0.230240903E+01
     4
 # iter = 64500  time[fs]=64.50000
   C -0.703757499E+01 -0.100767476E+00  0.250947772E+00
   C  0.678600009E+01 -0.225337400E+00 -0.354504255E-01
   H -0.356693166E+02  0.362306531E+00 -0.338845942E+01
   H  0.351865443E+02  0.283296364E+01  0.232913147E+01
     4
 # iter = 65000  time[fs]=65.00000
   C -0.712320523E+01 -0.101897586E+00  0.254016036E+00
   C  0.686814289E+01 -0.228472893E+00 -0.362653607E-01
   H -0.360683585E+02  0.366303192E+00 -0.342671780E+01
   H  0.355819588E+02  0.286468550E+01  0.235586476E+01
     4
 # iter = 65500  time[fs]=65.50000
   C -0.720889790E+01 -0.103027396E+00  0.257086296E+00
   C  0.695034680E+01 -0.231609940E+00 -0.370820571E-01
   H -0.364675261E+02  0.370301437E+00 -0.346498963E+01
   H  0.359775150E+02  0.289642082E+01  0.238260868E+01
     4
 # iter = 66000  time[fs]=66.00000
   C -0.729465152E+01 -0.104156913E+00  0.260158510E+00
   C  0.703261036E+01 -0.234748507E+00 -0.379004766E-01
   H -0.368668165E+02  0.374301233E+00 -0.350327462E+01
   H  0.363732097E+02  0.292816933E+01  0.240936299E+01
     4
 # iter = 66500  time[fs]=66.50000
   C -0.738046468E+01 -0.105286141E+00  0.263232635E+00
   C  0.711493217E+01 -0.237888566E+00 -0.387205820E-01
   H -0.372662273E+02  0.378302547E+00 -0.354157250E+01
   H  0.367690400E+02  0.295993074E+01  0.243612748E+01
     4
 # iter = 67000  time[fs]=67.00000
   C -0.746633597E+01 -0.106415086E+00  0.266308631E+00
   C  0.719731087E+01 -0.241030084E+00 -0.395423375E-01
   H -0.376657557E+02  0.382305347E+00 -0.357988299E+01
   H  0.371650030E+02  0.299170478E+01  0.246290195E+01
     4
 # iter = 67500  time[fs]=67.50000
   C -0.755226407E+01 -0.107543753E+00  0.269386458E+00
   C  0.727974515E+01 -0.244173032E+00 -0.403657084E-01
   H -0.380653995E+02  0.386309603E+00 -0.361820584E+01
   H  0.375610960E+02  0.302349119E+01  0.248968617E+01
     4
 # iter = 68000  time[fs]=68.00000
   C -0.763824768E+01 -0.108672146E+00  0.272466078E+00
   C  0.736223375E+01 -0.247317383E+00 -0.411906610E-01
   H -0.384651560E+02  0.390315286E+00 -0.365654079E+01
   H  0.379573162E+02  0.305528972E+01  0.251647997E+01
     4
 # iter = 68500  time[fs]=68.50000
   C -0.772428557E+01 -0.109800270E+00  0.275547454E+00
   C  0.744477545E+01 -0.250463109E+00 -0.420171626E-01
   H -0.388650232E+02  0.394322366E+00 -0.369488760E+01
   H  0.383536609E+02  0.308710012E+01  0.254328314E+01
     4
 # iter = 69000  time[fs]=69.00000
   C -0.781037651E+01 -0.110928130E+00  0.278630550E+00
   C  0.752736907E+01 -0.253610182E+00 -0.428451815E-01
   H -0.392649986E+02  0.398330816E+00 -0.373324603E+01
   H  0.387501278E+02  0.311892216E+01  0.257009550E+01
     4
 # iter = 69500  time[fs]=69.50000
   C -0.789651935E+01 -0.112055730E+00  0.281715331E+00
   C  0.761001345E+01 -0.256758577E+00 -0.436746871E-01
   H -0.396650802E+02  0.402340609E+00 -0.377161584E+01
   H  0.391467142E+02  0.315075559E+01  0.259691686E+01
     4
 # iter = 70000  time[fs]=70.00000
   C -0.798271294E+01 -0.113183075E+00  0.284801763E+00
   C  0.769270749E+01 -0.259908268E+00 -0.445056494E-01
   H -0.400652657E+02  0.406351719E+00 -0.380999682E+01
   H  0.395434179E+02  0.318260020E+01  0.262374705E+01
     4
 # iter = 70500  time[fs]=70.50000
   C -0.806895620E+01 -0.114310169E+00  0.287889814E+00
   C  0.777545012E+01 -0.263059231E+00 -0.453380397E-01
   H -0.404655532E+02  0.410364120E+00 -0.384838875E+01
   H  0.399402364E+02  0.321445577E+01  0.265058591E+01
     4
 # iter = 71000  time[fs]=71.00000
   C -0.815524807E+01 -0.115437016E+00  0.290979451E+00
   C  0.785824030E+01 -0.266211442E+00 -0.461718298E-01
   H -0.408659407E+02  0.414377787E+00 -0.388679141E+01
   H  0.403371676E+02  0.324632208E+01  0.267743326E+01
     4
 # iter = 71500  time[fs]=71.50000
   C -0.824158752E+01 -0.116563621E+00  0.294070644E+00
   C  0.794107701E+01 -0.269364877E+00 -0.470069924E-01
   H -0.412664262E+02  0.418392696E+00 -0.392520461E+01
   H  0.407342093E+02  0.327819894E+01  0.270428894E+01
     4
 # iter = 72000  time[fs]=72.00000
   C -0.832797355E+01 -0.117689987E+00  0.297163363E+00
   C  0.802395930E+01 -0.272519514E+00 -0.478435010E-01
   H -0.416670078E+02  0.422408825E+00 -0.396362813E+01
   H  0.411313592E+02  0.331008613E+01  0.273115279E+01
     4
 # iter = 72500  time[fs]=72.50000
   C -0.841440519E+01 -0.118816118E+00  0.300257578E+00
   C  0.810688621E+01 -0.275675331E+00 -0.486813298E-01
   H -0.420676838E+02  0.426426149E+00 -0.400206179E+01
   H  0.415286155E+02  0.334198347E+01  0.275802468E+01
     4
 # iter = 73000  time[fs]=73.00000
   C -0.850088151E+01 -0.119942019E+00  0.303353261E+00
   C  0.818985681E+01 -0.278832306E+00 -0.495204539E-01
   H -0.424684522E+02  0.430444648E+00 -0.404050540E+01
   H  0.419259759E+02  0.337389077E+01  0.278490443E+01
     4
 # iter = 73500  time[fs]=73.50000
   C -0.858740161E+01 -0.121067693E+00  0.306450385E+00
   C  0.827287024E+01 -0.281990418E+00 -0.503608489E-01
   H -0.428693115E+02  0.434464300E+00 -0.407895878E+01
   H  0.423234387E+02  0.340580783E+01  0.281179192E+01
     4
 # iter = 74000  time[fs]=74.00000
   C -0.867396459E+01 -0.122193143E+00  0.309548922E+00
   C  0.835592561E+01 -0.285149648E+00 -0.512024911E-01
   H -0.432702599E+02  0.438485083E+00 -0.411742175E+01
   H  0.427210019E+02  0.343773450E+01  0.283868700E+01
     4
 # iter = 74500  time[fs]=74.50000
   C -0.876056961E+01 -0.123318374E+00  0.312648847E+00
   C  0.843902209E+01 -0.288309975E+00 -0.520453575E-01
   H -0.436712958E+02  0.442506977E+00 -0.415589413E+01
   H  0.431186637E+02  0.346967058E+01  0.286558953E+01
     4
 # iter = 75000  time[fs]=75.00000
   C -0.884721583E+01 -0.124443388E+00  0.315750133E+00
   C  0.852215887E+01 -0.291471380E+00 -0.528894258E-01
   H -0.440724177E+02  0.446529963E+00 -0.419437575E+01
   H  0.435164223E+02  0.350161591E+01  0.289249939E+01
     4
 # iter = 75500  time[fs]=75.50000
   C -0.893390245E+01 -0.125568190E+00  0.318852758E+00
   C  0.860533516E+01 -0.294633844E+00 -0.537346741E-01
   H -0.444736238E+02  0.450554021E+00 -0.423286646E+01
   H  0.439142758E+02  0.353357033E+01  0.291941644E+01
     4
 # iter = 76000  time[fs]=76.00000
   C -0.902062868E+01 -0.126692782E+00  0.321956695E+00
   C  0.868855019E+01 -0.297797348E+00 -0.545810812E-01
   H -0.448749129E+02  0.454579132E+00 -0.427136608E+01
   H  0.443122227E+02  0.356553367E+01  0.294634055E+01
     4
 # iter = 76500  time[fs]=76.50000
   C -0.910739377E+01 -0.127817169E+00  0.325061923E+00
   C  0.877180322E+01 -0.300961876E+00 -0.554286266E-01
   H -0.452762833E+02  0.458605279E+00 -0.430987447E+01
   H  0.447102613E+02  0.359750578E+01  0.297327161E+01
     4
 # iter = 77000  time[fs]=77.00000
   C -0.919419696E+01 -0.128941352E+00  0.328168417E+00
   C  0.885509351E+01 -0.304127410E+00 -0.562772900E-01
   H -0.456777336E+02  0.462632442E+00 -0.434839148E+01
   H  0.451083899E+02  0.362948651E+01  0.300020949E+01
     4
 # iter = 77500  time[fs]=77.50000
   C -0.928103755E+01 -0.130065336E+00  0.331276157E+00
   C  0.893842038E+01 -0.307293932E+00 -0.571270518E-01
   H -0.460792626E+02  0.466660606E+00 -0.438691695E+01
   H  0.455066070E+02  0.366147570E+01  0.302715409E+01
     4
 # iter = 78000  time[fs]=78.00000
   C -0.936791483E+01 -0.131189123E+00  0.334385120E+00
   C  0.902178312E+01 -0.310461427E+00 -0.579778931E-01
   H -0.464808688E+02  0.470689753E+00 -0.442545074E+01
   H  0.459049110E+02  0.369347322E+01  0.305410527E+01
     4
 # iter = 78500  time[fs]=78.50000
   C -0.945482813E+01 -0.132312717E+00  0.337495285E+00
   C  0.910518108E+01 -0.313629878E+00 -0.588297952E-01
   H -0.468825508E+02  0.474719866E+00 -0.446399271E+01
   H  0.463033006E+02  0.372547892E+01  0.308106294E+01
     4
 # iter = 79000  time[fs]=79.00000
   C -0.954177677E+01 -0.133436120E+00  0.340606632E+00
   C  0.918861360E+01 -0.316799268E+00 -0.596827400E-01
   H -0.472843075E+02  0.478750929E+00 -0.450254273E+01
   H  0.467017741E+02  0.375749267E+01  0.310802698E+01
     4
 # iter = 79500  time[fs]=79.50000
   C -0.962876012E+01 -0.134559335E+00  0.343719140E+00
   C  0.927208006E+01 -0.319969584E+00 -0.605367098E-01
   H -0.476861375E+02  0.482782927E+00 -0.454110065E+01
   H  0.471003302E+02  0.378951433E+01  0.313499730E+01
     4
 # iter = 80000  time[fs]=80.00000
   C -0.971577755E+01 -0.135682365E+00  0.346832791E+00
   C  0.935557985E+01 -0.323140810E+00 -0.613916874E-01
   H -0.480880396E+02  0.486815844E+00 -0.457966636E+01
   H  0.474989676E+02  0.382154377E+01  0.316197378E+01
