     4
 # iter = 25000  time[fs]=25.00000
   C -0.978241315E+00  0.118907270E-02 -0.534072506E-01
   C  0.100374680E+01 -0.237296421E-01  0.322434315E-01
   H -0.518720546E+01  0.597596448E+00  0.704028305E+00
   H  0.528277462E+01 -0.598165695E+00 -0.710861079E+00
     4
 # iter = 25500  time[fs]=25.50000
   C -0.102513289E+01 -0.247520048E-02 -0.584513956E-01
   C  0.104603693E+01 -0.234866504E-01  0.338214595E-01
   H -0.552413524E+01  0.625869339E+00  0.742063113E+00
   H  0.558921849E+01 -0.641947682E+00 -0.765335375E+00
     4
 # iter = 26000  time[fs]=26.00000
   C -0.107577530E+01 -0.693565110E-02 -0.644675321E-01
   C  0.109007889E+01 -0.243948699E-01  0.344279367E-01
   H -0.587157631E+01  0.649364648E+00  0.775452986E+00
   H  0.589590114E+01 -0.691844095E+00 -0.826102900E+00
     4
 # iter = 26500  time[fs]=26.50000
   C -0.112752375E+01 -0.979896790E-02 -0.690442028E-01
   C  0.113904965E+01 -0.230265620E-01  0.374722147E-01
   H -0.621285916E+01  0.684090588E+00  0.820192200E+00
   H  0.621831724E+01 -0.731690253E+00 -0.876982143E+00
     4
 # iter = 27000  time[fs]=27.00000
   C -0.118002855E+01 -0.109518982E-01 -0.720519383E-01
   C  0.119289054E+01 -0.192074255E-01  0.431120929E-01
   H -0.654670157E+01  0.730782166E+00  0.877004168E+00
   H  0.655673907E+01 -0.760625072E+00 -0.917097008E+00
     4
 # iter = 27500  time[fs]=27.50000
   C -0.123485986E+01 -0.121842955E-01 -0.752661519E-01
   C  0.124884565E+01 -0.154789784E-01  0.487913016E-01
   H -0.688466365E+01  0.777423319E+00  0.933863116E+00
   H  0.689873214E+01 -0.790563462E+00 -0.958348956E+00
     4
 # iter = 28000  time[fs]=28.00000
   C -0.129308482E+01 -0.147628508E-01 -0.799407891E-01
   C  0.130492186E+01 -0.136393291E-01  0.526987170E-01
   H -0.723486126E+01  0.815504687E+00  0.982251201E+00
   H  0.723542731E+01 -0.829926718E+00 -0.100914756E+01
     4
 # iter = 28500  time[fs]=28.50000
   C -0.135401691E+01 -0.181797660E-01 -0.855568591E-01
   C  0.136167298E+01 -0.129586966E-01  0.555527233E-01
   H -0.759356214E+01  0.848410608E+00  0.102554515E+01
   H  0.756991004E+01 -0.875248371E+00 -0.106601628E+01
     4
 # iter = 29000  time[fs]=29.00000
   C -0.141624551E+01 -0.211847592E-01 -0.908542303E-01
   C  0.142072722E+01 -0.116503802E-01  0.591300078E-01
   H -0.795209885E+01  0.884502143E+00  0.107209922E+01
   H  0.791028715E+01 -0.918092898E+00 -0.112051085E+01
     4
 # iter = 29500  time[fs]=29.50000
   C -0.147919446E+01 -0.233466204E-01 -0.953929818E-01
   C  0.148255911E+01 -0.909695183E-02  0.640391308E-01
   H -0.830733518E+01  0.926649263E+00  0.112477743E+01
   H  0.825920064E+01 -0.955527669E+00 -0.116969078E+01
     4
 # iter = 30000  time[fs]=30.00000
   C -0.154333958E+01 -0.252723629E-01 -0.997724043E-01
   C  0.154617580E+01 -0.616244928E-02  0.694081752E-01
   H -0.866313016E+01  0.970761895E+00  0.117948450E+01
   H  0.861235223E+01 -0.991591337E+00 -0.121758764E+01
     4
 # iter = 30500  time[fs]=30.50000
   C -0.160923940E+01 -0.276386916E-01 -0.104662361E+00
   C  0.161049722E+01 -0.381102901E-02  0.742659969E-01
   H -0.902383665E+01  0.101228382E+01  0.123165956E+01
   H  0.896499992E+01 -0.103079517E+01 -0.126870631E+01
     4
 # iter = 31000  time[fs]=31.00000
   C -0.167679759E+01 -0.304552552E-01 -0.110066439E+00
   C  0.167540578E+01 -0.205616924E-02  0.785929317E-01
   H -0.938935553E+01  0.105113259E+01  0.128121599E+01
   H  0.931689967E+01 -0.107317942E+01 -0.132308137E+01
     4
 # iter = 31500  time[fs]=31.50000
   C -0.174547796E+01 -0.332809704E-01 -0.115538175E+00
   C  0.174143670E+01 -0.269041455E-03  0.830123193E-01
   H -0.975658345E+01  0.109024884E+01  0.133109064E+01
   H  0.967085073E+01 -0.111576412E+01 -0.137772774E+01
     4
 # iter = 32000  time[fs]=32.00000
   C -0.181492117E+01 -0.358422100E-01 -0.120799149E+00
   C  0.180889529E+01  0.193999355E-02  0.879089067E-01
   H -0.101235567E+02  0.113145088E+01  0.138309839E+01
   H  0.100285442E+02 -0.115669628E+01 -0.143078785E+01
     4
 # iter = 32500  time[fs]=32.50000
   C -0.188516534E+01 -0.382545302E-01 -0.125960633E+00
   C  0.187753979E+01  0.440527609E-02  0.931126562E-01
   H -0.104909362E+02  0.117394785E+01  0.143644533E+01
   H  0.103890728E+02 -0.119673696E+01 -0.148301856E+01
     4
 # iter = 33000  time[fs]=33.00000
   C -0.195637898E+01 -0.407564791E-01 -0.131257338E+00
   C  0.194696022E+01  0.678556879E-02  0.982784065E-01
   H -0.108602199E+02  0.121612507E+01  0.148951398E+01
   H  0.107507160E+02 -0.123747454E+01 -0.153600441E+01
     4
 # iter = 33500  time[fs]=33.50000
   C -0.202856825E+01 -0.434175705E-01 -0.136755335E+00
   C  0.201699412E+01  0.898059888E-02  0.103302363E+00
   H -0.112317825E+02  0.125750239E+01  0.154182166E+01
   H  0.111128987E+02 -0.127936480E+01 -0.159019769E+01
     4
 # iter = 34000  time[fs]=34.00000
   C -0.210157340E+01 -0.461353870E-01 -0.142349112E+00
   C  0.208773002E+01  0.111352253E-01  0.108326218E+00
   H -0.116048544E+02  0.129875357E+01  0.159403980E+01
   H  0.114762094E+02 -0.132171122E+01 -0.164489871E+01
     4
 # iter = 34500  time[fs]=34.50000
   C -0.217524219E+01 -0.488097530E-01 -0.147935702E+00
   C  0.215925842E+01  0.133910536E-01  0.113488720E+00
   H -0.119786893E+02  0.134053803E+01  0.164682570E+01
   H  0.118412298E+02 -0.136383368E+01 -0.169942442E+01
     4
 # iter = 35000  time[fs]=35.00000
   C -0.224952838E+01 -0.514417793E-01 -0.153513695E+00
   C  0.223152994E+01  0.157452016E-01  0.118784404E+00
   H -0.123532270E+02  0.138283657E+01  0.170015823E+01
   H  0.122078696E+02 -0.140573283E+01 -0.175377280E+01
     4
 # iter = 35500  time[fs]=35.50000
   C -0.232444527E+01 -0.540879291E-01 -0.159137267E+00
   C  0.230442042E+01  0.181158366E-01  0.124129093E+00
   H -0.127287851E+02  0.142525947E+01  0.175364586E+01
   H  0.125756738E+02 -0.144778169E+01 -0.180831440E+01
     4
 # iter = 36000  time[fs]=36.00000
   C -0.239998396E+01 -0.567786969E-01 -0.164834838E+00
   C  0.237784643E+01  0.204581782E-01  0.129475879E+00
   H -0.131055122E+02  0.146759184E+01  0.180707207E+01
   H  0.129443676E+02 -0.149017972E+01 -0.186324638E+01
     4
 # iter = 36500  time[fs]=36.50000
   C -0.247609437E+01 -0.595000160E-01 -0.170590452E+00
   C  0.245179144E+01  0.227910257E-01  0.134841623E+00
   H -0.134832630E+02  0.150991832E+01  0.186051997E+01
   H  0.133139810E+02 -0.153282796E+01 -0.191846768E+01
     4
 # iter = 37000  time[fs]=37.00000
   C -0.255271920E+01 -0.622275780E-01 -0.176378077E+00
   C  0.252625656E+01  0.251478146E-01  0.140257992E+00
   H -0.138618277E+02  0.155239281E+01  0.191414207E+01
   H  0.136846174E+02 -0.157555927E+01 -0.197380921E+01
     4
 # iter = 37500  time[fs]=37.50000
   C -0.262982183E+01 -0.649550295E-01 -0.182189787E+00
   C  0.260121996E+01  0.275364043E-01  0.145731229E+00
   H -0.142411207E+02  0.159504933E+01  0.196797106E+01
   H  0.140562644E+02 -0.161832749E+01 -0.202922300E+01
     4
 # iter = 38000  time[fs]=38.00000
   C -0.270738294E+01 -0.676908689E-01 -0.188032637E+00
   C  0.267664110E+01  0.299435096E-01  0.151246566E+00
   H -0.146211596E+02  0.163782276E+01  0.202194064E+01
   H  0.144288138E+02 -0.166118655E+01 -0.208476129E+01
     4
 # iter = 38500  time[fs]=38.50000
   C -0.278538417E+01 -0.704423581E-01 -0.193912566E+00
   C  0.275248339E+01  0.323576492E-01  0.156791163E+00
   H -0.150019569E+02  0.168065680E+01  0.207599337E+01
   H  0.148021696E+02 -0.170418242E+01 -0.214046847E+01
     4
 # iter = 39000  time[fs]=39.00000
   C -0.286380117E+01 -0.732087699E-01 -0.199827630E+00
   C  0.282872365E+01  0.347787798E-01  0.162363724E+00
   H -0.153834739E+02  0.172354914E+01  0.213012589E+01
   H  0.151762923E+02 -0.174730776E+01 -0.219633574E+01
     4
 # iter = 39500  time[fs]=39.50000
   C -0.294260786E+01 -0.759858638E-01 -0.205772468E+00
   C  0.290534551E+01  0.372119115E-01  0.167968107E+00
   H -0.157656511E+02  0.176652149E+01  0.218435894E+01
   H  0.155511695E+02 -0.179053189E+01 -0.225233107E+01
     4
 # iter = 40000  time[fs]=40.00000
   C -0.302178184E+01 -0.787714187E-01 -0.211743825E+00
   C  0.298233137E+01  0.396592158E-01  0.173605417E+00
   H -0.161484448E+02  0.180958237E+01  0.223870013E+01
   H  0.159267778E+02 -0.183383794E+01 -0.230843628E+01
     4
 # iter = 40500  time[fs]=40.50000
   C -0.310130486E+01 -0.815658907E-01 -0.217741201E+00
   C  0.305966132E+01  0.421190876E-01  0.179273065E+00
   H -0.165318313E+02  0.185272273E+01  0.229313954E+01
   H  0.163030783E+02 -0.187722719E+01 -0.236465149E+01
     4
 # iter = 41000  time[fs]=41.00000
   C -0.318116043E+01 -0.843701703E-01 -0.223764600E+00
   C  0.313731618E+01  0.445893432E-01  0.184967955E+00
   H -0.169157916E+02  0.189593092E+01  0.234766474E+01
   H  0.166800315E+02 -0.192070403E+01 -0.242097992E+01
     4
 # iter = 41500  time[fs]=41.50000
   C -0.326133236E+01 -0.871841784E-01 -0.229813123E+00
   C  0.321527940E+01  0.470692215E-01  0.190688479E+00
   H -0.173003019E+02  0.193920214E+01  0.240227016E+01
   H  0.170576067E+02 -0.196426648E+01 -0.247741857E+01
     4
 # iter = 42000  time[fs]=42.00000
   C -0.334180488E+01 -0.900071826E-01 -0.235885275E+00
   C  0.329353649E+01  0.495589317E-01  0.196434060E+00
   H -0.176853356E+02  0.198253623E+01  0.245695496E+01
   H  0.174357795E+02 -0.200790831E+01 -0.253396020E+01
     4
 # iter = 42500  time[fs]=42.50000
   C -0.342256338E+01 -0.928385624E-01 -0.241979725E+00
   C  0.337207387E+01  0.520585601E-01  0.202204053E+00
   H -0.180708682E+02  0.202593258E+01  0.251171784E+01
   H  0.178145263E+02 -0.205162418E+01 -0.259059854E+01
     4
 # iter = 43000  time[fs]=43.00000
   C -0.350359453E+01 -0.956780405E-01 -0.248095536E+00
   C  0.345087840E+01  0.545677393E-01  0.207997406E+00
   H -0.184568789E+02  0.206938854E+01  0.256655554E+01
   H  0.181938232E+02 -0.209541113E+01 -0.264732975E+01
     4
 # iter = 43500  time[fs]=43.50000
   C -0.358488599E+01 -0.985254690E-01 -0.254231943E+00
   C  0.352993763E+01  0.570859515E-01  0.213812966E+00
   H -0.188433489E+02  0.211290079E+01  0.262146415E+01
   H  0.185736468E+02 -0.213926720E+01 -0.270415104E+01
     4
 # iter = 44000  time[fs]=44.00000
   C -0.366642612E+01 -0.101380634E+00 -0.260388155E+00
   C  0.360924001E+01  0.596128049E-01  0.219649746E+00
   H -0.192302600E+02  0.215646674E+01  0.267644052E+01
   H  0.189539755E+02 -0.218319004E+01 -0.276105927E+01
     4
 # iter = 44500  time[fs]=44.50000
   C -0.374820395E+01 -0.104243251E+00 -0.266563350E+00
   C  0.368877485E+01  0.621480403E-01  0.225506928E+00
   H -0.196175946E+02  0.220008442E+01  0.273148217E+01
   H  0.193347895E+02 -0.222717692E+01 -0.281805096E+01
     4
 # iter = 45000  time[fs]=45.00000
   C -0.383020917E+01 -0.107113039E+00 -0.272756740E+00
   C  0.376853210E+01  0.646914230E-01  0.231383757E+00
   H -0.200053360E+02  0.224375208E+01  0.278658683E+01
   H  0.197160703E+02 -0.227122519E+01 -0.287512278E+01
     4
 # iter = 45500  time[fs]=45.50000
   C -0.391243212E+01 -0.109989756E+00 -0.278967611E+00
   C  0.384850232E+01  0.672426914E-01  0.237279481E+00
   H -0.203934686E+02  0.228746789E+01  0.284175221E+01
   H  0.200978002E+02 -0.231533252E+01 -0.293227171E+01
     4
 # iter = 46000  time[fs]=46.00000
   C -0.399486376E+01 -0.112873184E+00 -0.285195302E+00
   C  0.392867659E+01  0.698015734E-01  0.243193367E+00
   H -0.207819779E+02  0.233122998E+01  0.289697601E+01
   H  0.204799624E+02 -0.235949682E+01 -0.298949504E+01
     4
 # iter = 46500  time[fs]=46.50000
   C -0.407749555E+01 -0.115763115E+00 -0.291439184E+00
   C  0.400904654E+01  0.723678128E-01  0.249124728E+00
   H -0.211708500E+02  0.237503664E+01  0.295225609E+01
   H  0.208625409E+02 -0.240371608E+01 -0.304679017E+01
     4
 # iter = 47000  time[fs]=47.00000
   C -0.416031943E+01 -0.118659340E+00 -0.297698657E+00
   C  0.408960427E+01  0.749411746E-01  0.255072920E+00
   H -0.215600718E+02  0.241888629E+01  0.300759045E+01
   H  0.212455208E+02 -0.244798836E+01 -0.310415457E+01
     4
 # iter = 47500  time[fs]=47.50000
   C -0.424332782E+01 -0.121561660E+00 -0.303973149E+00
   C  0.417034236E+01  0.775214366E-01  0.261037337E+00
   H -0.219496308E+02  0.246277741E+01  0.306297722E+01
   H  0.216288878E+02 -0.249231181E+01 -0.316158586E+01
     4
 # iter = 48000  time[fs]=48.00000
   C -0.432651356E+01 -0.124469883E+00 -0.310262122E+00
   C  0.425125377E+01  0.801083845E-01  0.267017404E+00
   H -0.223395152E+02  0.250670860E+01  0.311841461E+01
   H  0.220126284E+02 -0.253668466E+01 -0.321908177E+01
     4
 # iter = 48500  time[fs]=48.50000
   C -0.440986988E+01 -0.127383829E+00 -0.316565065E+00
   C  0.433233188E+01  0.827018111E-01  0.273012570E+00
   H -0.227297139E+02  0.255067848E+01  0.317390091E+01
   H  0.223967298E+02 -0.258110526E+01 -0.327664014E+01
     4
 # iter = 49000  time[fs]=49.00000
   C -0.449339038E+01 -0.130303324E+00 -0.322881491E+00
   C  0.441357042E+01  0.853015181E-01  0.279022315E+00
   H -0.231202162E+02  0.259468577E+01  0.322943451E+01
   H  0.227811799E+02 -0.262557204E+01 -0.333425893E+01
     4
 # iter = 49500  time[fs]=49.50000
   C -0.457706898E+01 -0.133228202E+00 -0.329210940E+00
   C  0.449496344E+01  0.879073159E-01  0.285046143E+00
   H -0.235110119E+02  0.263872922E+01  0.328501385E+01
   H  0.231659671E+02 -0.267008350E+01 -0.339193620E+01
     4
 # iter = 50000  time[fs]=50.00000
   C -0.466089997E+01 -0.136158303E+00 -0.335552973E+00
   C  0.457650531E+01  0.905190235E-01  0.291083583E+00
   H -0.239020915E+02  0.268280767E+01  0.334063748E+01
   H  0.235510803E+02 -0.271463820E+01 -0.344967010E+01
     4
 # iter = 50500  time[fs]=50.50000
   C -0.474487787E+01 -0.139093474E+00 -0.341907173E+00
   C  0.465819071E+01  0.931364669E-01  0.297134187E+00
   H -0.242934459E+02  0.272692001E+01  0.339630398E+01
   H  0.239365090E+02 -0.275923478E+01 -0.350745884E+01
     4
 # iter = 51000  time[fs]=51.00000
   C -0.482899754E+01 -0.142033568E+00 -0.348273140E+00
   C  0.474001457E+01  0.957594795E-01  0.303197528E+00
   H -0.246850662E+02  0.277106517E+01  0.345201203E+01
   H  0.243222434E+02 -0.280387193E+01 -0.356530075E+01
     4
 # iter = 51500  time[fs]=51.50000
   C -0.491325405E+01 -0.144978443E+00 -0.354650498E+00
   C  0.482197208E+01  0.983879013E-01  0.309273197E+00
   H -0.250769442E+02  0.281524214E+01  0.350776036E+01
   H  0.247082737E+02 -0.284854842E+01 -0.362319420E+01
     4
 # iter = 52000  time[fs]=52.00000
   C -0.499764275E+01 -0.147927965E+00 -0.361038884E+00
   C  0.490405868E+01  0.101021579E+00  0.315360808E+00
   H -0.254690719E+02  0.285944995E+01  0.356354774E+01
   H  0.250945909E+02 -0.289326306E+01 -0.368113766E+01
     4
 # iter = 52500  time[fs]=52.50000
   C -0.508215920E+01 -0.150882003E+00 -0.367437953E+00
   C  0.498627002E+01  0.103660364E+00  0.321459988E+00
   H -0.258614417E+02  0.290368767E+01  0.361937301E+01
   H  0.254811863E+02 -0.293801472E+01 -0.373912965E+01
     4
 # iter = 53000  time[fs]=53.00000
   C -0.516679916E+01 -0.153840433E+00 -0.373847375E+00
   C  0.506860195E+01  0.106304117E+00  0.327570385E+00
   H -0.262540464E+02  0.294795443E+01  0.367523506E+01
   H  0.258680516E+02 -0.298280231E+01 -0.379716877E+01
     4
 # iter = 53500  time[fs]=53.50000
   C -0.525155861E+01 -0.156803135E+00 -0.380266837E+00
   C  0.515105055E+01  0.108952700E+00  0.333691658E+00
   H -0.266468790E+02  0.299224937E+01  0.373113282E+01
   H  0.262551789E+02 -0.302762479E+01 -0.385525366E+01
     4
 # iter = 54000  time[fs]=54.00000
   C -0.533643373E+01 -0.159769993E+00 -0.386696036E+00
   C  0.523361205E+01  0.111605983E+00  0.339823484E+00
   H -0.270399330E+02  0.303657168E+01  0.378706529E+01
   H  0.266425605E+02 -0.307248116E+01 -0.391338303E+01
     4
 # iter = 54500  time[fs]=54.50000
   C -0.542142083E+01 -0.162740896E+00 -0.393134686E+00
   C  0.531628287E+01  0.114263841E+00  0.345965554E+00
   H -0.274332019E+02  0.308092059E+01  0.384303147E+01
   H  0.270301891E+02 -0.311737049E+01 -0.397155564E+01
     4
 # iter = 55000  time[fs]=55.00000
   C -0.550651644E+01 -0.165715738E+00 -0.399582510E+00
   C  0.539905959E+01  0.116926151E+00  0.352117570E+00
   H -0.278266796E+02  0.312529535E+01  0.389903044E+01
   H  0.274180578E+02 -0.316229185E+01 -0.402977030E+01
     4
 # iter = 55500  time[fs]=55.50000
   C -0.559171721E+01 -0.168694415E+00 -0.406039245E+00
   C  0.548193895E+01  0.119592799E+00  0.358279249E+00
   H -0.282203605E+02  0.316969526E+01  0.395506130E+01
   H  0.278061599E+02 -0.320724436E+01 -0.408802587E+01
     4
 # iter = 56000  time[fs]=56.00000
   C -0.567701995E+01 -0.171676829E+00 -0.412504637E+00
   C  0.556491783E+01  0.122263671E+00  0.364450318E+00
   H -0.286142387E+02  0.321411962E+01  0.401112318E+01
   H  0.281944889E+02 -0.325222719E+01 -0.414632125E+01
     4
 # iter = 56500  time[fs]=56.50000
   C -0.576242162E+01 -0.174662885E+00 -0.418978443E+00
   C  0.564799323E+01  0.124938661E+00  0.370630514E+00
   H -0.290083091E+02  0.325856778E+01  0.406721526E+01
   H  0.285830387E+02 -0.329723953E+01 -0.420465539E+01
     4
 # iter = 57000  time[fs]=57.00000
   C -0.584791929E+01 -0.177652489E+00 -0.425460432E+00
   C  0.573116230E+01  0.127617663E+00  0.376819589E+00
   H -0.294025663E+02  0.330303912E+01  0.412333674E+01
   H  0.289718034E+02 -0.334228060E+01 -0.426302728E+01
     4
 # iter = 57500  time[fs]=57.50000
   C -0.593351016E+01 -0.180645555E+00 -0.431950379E+00
   C  0.581442231E+01  0.130300578E+00  0.383017300E+00
   H -0.297970055E+02  0.334753301E+01  0.417948686E+01
   H  0.293607772E+02 -0.338734965E+01 -0.432143595E+01
     4
 # iter = 58000  time[fs]=58.00000
   C -0.601919156E+01 -0.183641996E+00 -0.438448070E+00
   C  0.589777064E+01  0.132987309E+00  0.389223417E+00
   H -0.301916220E+02  0.339204889E+01  0.423566488E+01
   H  0.297499548E+02 -0.343244597E+01 -0.437988046E+01
     4
 # iter = 58500  time[fs]=58.50000
   C -0.610496092E+01 -0.186641729E+00 -0.444953299E+00
   C  0.598120478E+01  0.135677763E+00  0.395437716E+00
   H -0.305864111E+02  0.343658618E+01  0.429187009E+01
   H  0.301393309E+02 -0.347756887E+01 -0.443835991E+01
     4
 # iter = 59000  time[fs]=59.00000
   C -0.619081577E+01 -0.189644677E+00 -0.451465868E+00
   C  0.606472232E+01  0.138371849E+00  0.401659985E+00
   H -0.309813684E+02  0.348114436E+01  0.434810182E+01
   H  0.305289003E+02 -0.352271769E+01 -0.449687343E+01
     4
 # iter = 59500  time[fs]=59.50000
   C -0.627675377E+01 -0.192650760E+00 -0.457985585E+00
   C  0.614832095E+01  0.141069481E+00  0.407890018E+00
   H -0.313764897E+02  0.352572289E+01  0.440435941E+01
   H  0.309186583E+02 -0.356789177E+01 -0.455542018E+01
     4
 # iter = 60000  time[fs]=60.00000
   C -0.636277263E+01 -0.195659906E+00 -0.464512268E+00
   C  0.623199845E+01  0.143770576E+00  0.414127616E+00
   H -0.317717709E+02  0.357032129E+01  0.446064222E+01
   H  0.313086001E+02 -0.361309051E+01 -0.461399936E+01
     4
 # iter = 60500  time[fs]=60.50000
   C -0.644887017E+01 -0.198672043E+00 -0.471045740E+00
   C  0.631575268E+01  0.146475051E+00  0.420372589E+00
   H -0.321672080E+02  0.361493906E+01  0.451694966E+01
   H  0.316987213E+02 -0.365831330E+01 -0.467261019E+01
     4
 # iter = 61000  time[fs]=61.00000
   C -0.653504431E+01 -0.201687102E+00 -0.477585830E+00
   C  0.639958162E+01  0.149182829E+00  0.426624754E+00
   H -0.325627974E+02  0.365957574E+01  0.457328112E+01
   H  0.320890174E+02 -0.370355959E+01 -0.473125193E+01
     4
 # iter = 61500  time[fs]=61.50000
   C -0.662129303E+01 -0.204705015E+00 -0.484132375E+00
   C  0.648348327E+01  0.151893835E+00  0.432883933E+00
   H -0.329585353E+02  0.370423088E+01  0.462963604E+01
   H  0.324794844E+02 -0.374882880E+01 -0.478992384E+01
     4
 # iter = 62000  time[fs]=62.00000
   C -0.670761439E+01 -0.207725718E+00 -0.490685217E+00
   C  0.656745576E+01  0.154607994E+00  0.439149956E+00
   H -0.333544182E+02  0.374890405E+01  0.468601388E+01
   H  0.328701180E+02 -0.379412041E+01 -0.484862523E+01
     4
 # iter = 62500  time[fs]=62.50000
   C -0.679400652E+01 -0.210749148E+00 -0.497244204E+00
   C  0.665149726E+01  0.157325236E+00  0.445422658E+00
   H -0.337504426E+02  0.379359483E+01  0.474241410E+01
   H  0.332609144E+02 -0.383943391E+01 -0.490735543E+01
     4
 # iter = 63000  time[fs]=63.00000
   C -0.688046764E+01 -0.213775245E+00 -0.503809188E+00
   C  0.673560602E+01  0.160045493E+00  0.451701881E+00
   H -0.341466054E+02  0.383830282E+01  0.479883620E+01
   H  0.336518699E+02 -0.388476878E+01 -0.496611377E+01
     4
 # iter = 63500  time[fs]=63.50000
   C -0.696699602E+01 -0.216803950E+00 -0.510380028E+00
   C  0.681978034E+01  0.162768699E+00  0.457987471E+00
   H -0.345429034E+02  0.388302762E+01  0.485527969E+01
   H  0.340429808E+02 -0.393012455E+01 -0.502489964E+01
     4
 # iter = 64000  time[fs]=64.00000
   C -0.705358998E+01 -0.219835206E+00 -0.516956587E+00
   C  0.690401860E+01  0.165494788E+00  0.464279280E+00
   H -0.349393334E+02  0.392776887E+01  0.491174408E+01
   H  0.344342436E+02 -0.397550076E+01 -0.508371242E+01
     4
 # iter = 64500  time[fs]=64.50000
   C -0.714024793E+01 -0.222868958E+00 -0.523538732E+00
   C  0.698831923E+01  0.168223700E+00  0.470577166E+00
   H -0.353358925E+02  0.397252618E+01  0.496822891E+01
   H  0.348256548E+02 -0.402089695E+01 -0.514255153E+01
     4
 # iter = 65000  time[fs]=65.00000
   C -0.722696830E+01 -0.225905154E+00 -0.530126335E+00
   C  0.707268071E+01  0.170955373E+00  0.476880989E+00
   H -0.357325778E+02  0.401729922E+01  0.502473375E+01
   H  0.352172111E+02 -0.406631269E+01 -0.520141638E+01
     4
 # iter = 65500  time[fs]=65.50000
   C -0.731374962E+01 -0.228943740E+00 -0.536719274E+00
   C  0.715710159E+01  0.173689750E+00  0.483190617E+00
   H -0.361293866E+02  0.406208764E+01  0.508125815E+01
   H  0.356089095E+02 -0.411174756E+01 -0.526030643E+01
     4
 # iter = 66000  time[fs]=66.00000
   C -0.740059043E+01 -0.231984669E+00 -0.543317429E+00
   C  0.724158046E+01  0.176426774E+00  0.489505920E+00
   H -0.365263162E+02  0.410689111E+01  0.513780170E+01
   H  0.360007467E+02 -0.415720114E+01 -0.531922115E+01
     4
 # iter = 66500  time[fs]=66.50000
   C -0.748748934E+01 -0.235027890E+00 -0.549920683E+00
   C  0.732611595E+01  0.179166390E+00  0.495826774E+00
   H -0.369233640E+02  0.415170930E+01  0.519436399E+01
   H  0.363927198E+02 -0.420267304E+01 -0.537816001E+01
     4
 # iter = 67000  time[fs]=67.00000
   C -0.757444501E+01 -0.238073356E+00 -0.556528926E+00
   C  0.741070675E+01  0.181908544E+00  0.502153057E+00
   H -0.373205274E+02  0.419654192E+01  0.525094463E+01
   H  0.367848259E+02 -0.424816288E+01 -0.543712252E+01
     4
 # iter = 67500  time[fs]=67.50000
   C -0.766145613E+01 -0.241121023E+00 -0.563142049E+00
   C  0.749535160E+01  0.184653186E+00  0.508484652E+00
   H -0.377178041E+02  0.424138866E+01  0.530754324E+01
   H  0.371770623E+02 -0.429367028E+01 -0.549610818E+01
     4
 # iter = 68000  time[fs]=68.00000
   C -0.774852146E+01 -0.244170845E+00 -0.569759947E+00
   C  0.758004926E+01  0.187400266E+00  0.514821445E+00
   H -0.381151916E+02  0.428624922E+01  0.536415946E+01
   H  0.375694261E+02 -0.433919489E+01 -0.555511653E+01
     4
 # iter = 68500  time[fs]=68.50000
   C -0.783563977E+01 -0.247222780E+00 -0.576382518E+00
   C  0.766479854E+01  0.190149734E+00  0.521163328E+00
   H -0.385126878E+02  0.433112333E+01  0.542079292E+01
   H  0.379619148E+02 -0.438473636E+01 -0.561414711E+01
     4
 # iter = 69000  time[fs]=69.00000
   C -0.792280988E+01 -0.250276786E+00 -0.583009665E+00
   C  0.774959830E+01  0.192901543E+00  0.527510193E+00
   H -0.389102902E+02  0.437601071E+01  0.547744328E+01
   H  0.383545258E+02 -0.443029435E+01 -0.567319946E+01
     4
 # iter = 69500  time[fs]=69.50000
   C -0.801003066E+01 -0.253332822E+00 -0.589641293E+00
   C  0.783444743E+01  0.195655647E+00  0.533861937E+00
   H -0.393079969E+02  0.442091110E+01  0.553411021E+01
   H  0.387472567E+02 -0.447586852E+01 -0.573227317E+01
     4
 # iter = 70000  time[fs]=70.00000
   C -0.809730101E+01 -0.256390850E+00 -0.596277308E+00
   C  0.791934486E+01  0.198412003E+00  0.540218461E+00
   H -0.397058057E+02  0.446582423E+01  0.559079336E+01
   H  0.391401049E+02 -0.452145856E+01 -0.579136782E+01
     4
 # iter = 70500  time[fs]=70.50000
   C -0.818461987E+01 -0.259450829E+00 -0.602917621E+00
   C  0.800428953E+01  0.201170567E+00  0.546579666E+00
   H -0.401037147E+02  0.451074987E+01  0.564749244E+01
   H  0.395330683E+02 -0.456706417E+01 -0.585048298E+01
     4
 # iter = 71000  time[fs]=71.00000
   C -0.827198619E+01 -0.262512724E+00 -0.609562145E+00
   C  0.808928044E+01  0.203931296E+00  0.552945460E+00
   H -0.405017217E+02  0.455568776E+01  0.570420713E+01
   H  0.399261446E+02 -0.461268503E+01 -0.590961829E+01
     4
 # iter = 71500  time[fs]=71.50000
   C -0.835939898E+01 -0.265576499E+00 -0.616210796E+00
   C  0.817431662E+01  0.206694149E+00  0.559315750E+00
   H -0.408998250E+02  0.460063767E+01  0.576093712E+01
   H  0.403193315E+02 -0.465832086E+01 -0.596877334E+01
     4
 # iter = 72000  time[fs]=72.00000
   C -0.844685726E+01 -0.268642117E+00 -0.622863492E+00
   C  0.825939712E+01  0.209459088E+00  0.565690448E+00
   H -0.412980226E+02  0.464559936E+01  0.581768214E+01
   H  0.407126269E+02 -0.470397137E+01 -0.602794776E+01
     4
 # iter = 72500  time[fs]=72.50000
   C -0.853436010E+01 -0.271709545E+00 -0.629520154E+00
   C  0.834452102E+01  0.212226073E+00  0.572069467E+00
   H -0.416963128E+02  0.469057263E+01  0.587444190E+01
   H  0.411060287E+02 -0.474963628E+01 -0.608714120E+01
     4
 # iter = 73000  time[fs]=73.00000
   C -0.862190659E+01 -0.274778749E+00 -0.636180703E+00
   C  0.842968742E+01  0.214995067E+00  0.578452725E+00
   H -0.420946938E+02  0.473555725E+01  0.593121613E+01
   H  0.414995350E+02 -0.479531534E+01 -0.614635330E+01
     4
 # iter = 73500  time[fs]=73.50000
   C -0.870949583E+01 -0.277849698E+00 -0.642845066E+00
   C  0.851489547E+01  0.217766033E+00  0.584840139E+00
   H -0.424931639E+02  0.478055301E+01  0.598800455E+01
   H  0.418931437E+02 -0.484100827E+01 -0.620558372E+01
     4
 # iter = 74000  time[fs]=74.00000
   C -0.879712698E+01 -0.280922359E+00 -0.649513170E+00
   C  0.860014433E+01  0.220538935E+00  0.591231631E+00
   H -0.428917215E+02  0.482555970E+01  0.604480690E+01
   H  0.422868530E+02 -0.488671483E+01 -0.626483212E+01
     4
 # iter = 74500  time[fs]=74.50000
   C -0.888479919E+01 -0.283996701E+00 -0.656184942E+00
   C  0.868543318E+01  0.223313739E+00  0.597627124E+00
   H -0.432903649E+02  0.487057713E+01  0.610162294E+01
   H  0.426806610E+02 -0.493243476E+01 -0.632409818E+01
     4
 # iter = 75000  time[fs]=75.00000
   C -0.897251165E+01 -0.287072696E+00 -0.662860316E+00
   C  0.877076124E+01  0.226090411E+00  0.604026543E+00
   H -0.436890925E+02  0.491560511E+01  0.615845243E+01
   H  0.430745659E+02 -0.497816782E+01 -0.638338159E+01
     4
 # iter = 75500  time[fs]=75.50000
   C -0.906026359E+01 -0.290150313E+00 -0.669539223E+00
   C  0.885612773E+01  0.228868917E+00  0.610429815E+00
   H -0.440879030E+02  0.496064343E+01  0.621529511E+01
   H  0.434685660E+02 -0.502391379E+01 -0.644268204E+01
     4
 # iter = 76000  time[fs]=76.00000
   C -0.914805423E+01 -0.293229524E+00 -0.676221599E+00
   C  0.894153191E+01  0.231649227E+00  0.616836871E+00
   H -0.444867947E+02  0.500569193E+01  0.627215075E+01
   H  0.438626595E+02 -0.506967243E+01 -0.650199922E+01
     4
 # iter = 76500  time[fs]=76.50000
   C -0.923588284E+01 -0.296310302E+00 -0.682907380E+00
   C  0.902697306E+01  0.234431308E+00  0.623247640E+00
   H -0.448857662E+02  0.505075042E+01  0.632901914E+01
   H  0.442568448E+02 -0.511544352E+01 -0.656133285E+01
     4
 # iter = 77000  time[fs]=77.00000
   C -0.932374869E+01 -0.299392620E+00 -0.689596505E+00
   C  0.911245047E+01  0.237215130E+00  0.629662057E+00
   H -0.452848161E+02  0.509581873E+01  0.638590004E+01
   H  0.446511203E+02 -0.516122685E+01 -0.662068264E+01
     4
 # iter = 77500  time[fs]=77.50000
   C -0.941165108E+01 -0.302476451E+00 -0.696288914E+00
   C  0.919796347E+01  0.240000664E+00  0.636080056E+00
   H -0.456839431E+02  0.514089668E+01  0.644279325E+01
   H  0.450454844E+02 -0.520702221E+01 -0.668004832E+01
     4
 # iter = 78000  time[fs]=78.00000
   C -0.949958934E+01 -0.305561770E+00 -0.702984547E+00
   C  0.928351138E+01  0.242787881E+00  0.642501574E+00
   H -0.460831458E+02  0.518598411E+01  0.649969855E+01
   H  0.454399356E+02 -0.525282938E+01 -0.673942961E+01
     4
 # iter = 78500  time[fs]=78.50000
   C -0.958756279E+01 -0.308648551E+00 -0.709683349E+00
   C  0.936909355E+01  0.245576752E+00  0.648926548E+00
   H -0.464824229E+02  0.523108087E+01  0.655661574E+01
   H  0.458344723E+02 -0.529864817E+01 -0.679882626E+01
     4
 # iter = 79000  time[fs]=79.00000
   C -0.967557079E+01 -0.311736771E+00 -0.716385263E+00
   C  0.945470937E+01  0.248367249E+00  0.655354919E+00
   H -0.468817732E+02  0.527618679E+01  0.661354461E+01
   H  0.462290931E+02 -0.534447838E+01 -0.685823800E+01
     4
 # iter = 79500  time[fs]=79.50000
   C -0.976361272E+01 -0.314826406E+00 -0.723090236E+00
   C  0.954035821E+01  0.251159347E+00  0.661786629E+00
   H -0.472811953E+02  0.532130172E+01  0.667048498E+01
   H  0.466237966E+02 -0.539031983E+01 -0.691766459E+01
     4
 # iter = 80000  time[fs]=80.00000
   C -0.985168796E+01 -0.317917432E+00 -0.729798215E+00
   C  0.962603948E+01  0.253953018E+00  0.668221619E+00
   H -0.476806882E+02  0.536642551E+01  0.672743666E+01
   H  0.470185814E+02 -0.543617233E+01 -0.697710578E+01
