     4
 # iter = 25000  time[fs]=25.00000
   C -0.102242970E+01 -0.267410814E-01 -0.469294120E-01
   C  0.986710508E+00 -0.232574120E-01  0.708233562E-01
   H -0.529870120E+01  0.394023550E+00  0.645709904E+00
   H  0.529933109E+01  0.339436706E+00 -0.392839776E+00
     4
 # iter = 25500  time[fs]=25.50000
   C -0.107205304E+01 -0.299688160E-01 -0.512195720E-01
   C  0.102711731E+01 -0.266816087E-01  0.740753995E-01
   H -0.563982578E+01  0.410633472E+00  0.680100487E+00
   H  0.561020166E+01  0.352386771E+00 -0.429888025E+00
     4
 # iter = 26000  time[fs]=26.00000
   C -0.112554438E+01 -0.341728025E-01 -0.566666677E-01
   C  0.106941943E+01 -0.311529937E-01  0.765134405E-01
   H -0.599165178E+01  0.422272928E+00  0.709799397E+00
   H  0.592117905E+01  0.360321836E+00 -0.472860096E+00
     4
 # iter = 26500  time[fs]=26.50000
   C -0.117986854E+01 -0.365562905E-01 -0.604613819E-01
   C  0.111640162E+01 -0.336381739E-01  0.811532758E-01
   H -0.633748667E+01  0.444973879E+00  0.750807209E+00
   H  0.624777512E+01  0.379291807E+00 -0.505614334E+00
     4
 # iter = 27000  time[fs]=27.00000
   C -0.123465937E+01 -0.369773052E-01 -0.624498229E-01
   C  0.116798656E+01 -0.339846366E-01  0.881308335E-01
   H -0.667603087E+01  0.479490446E+00  0.803852166E+00
   H  0.659027205E+01  0.410056352E+00 -0.527309186E+00
     4
 # iter = 27500  time[fs]=27.50000
   C -0.129178260E+01 -0.375098561E-01 -0.646947986E-01
   C  0.122171134E+01 -0.344446443E-01  0.951783294E-01
   H -0.701883156E+01  0.513821929E+00  0.856912067E+00
   H  0.693623977E+01  0.440610533E+00 -0.549876247E+00
     4
 # iter = 28000  time[fs]=28.00000
   C -0.135251486E+01 -0.396209517E-01 -0.686528164E-01
   C  0.127579018E+01 -0.366114340E-01  0.100688303E+00
   H -0.737399318E+01  0.539472223E+00  0.901472227E+00
   H  0.727681393E+01  0.462455625E+00 -0.581750999E+00
     4
 # iter = 28500  time[fs]=28.50000
   C -0.141608779E+01 -0.427144494E-01 -0.737179287E-01
   C  0.133069381E+01 -0.398388125E-01  0.105294075E+00
   H -0.773777223E+01  0.559837781E+00  0.940912604E+00
   H  0.761508739E+01  0.478992750E+00 -0.619478997E+00
     4
 # iter = 29000  time[fs]=29.00000
   C -0.148088683E+01 -0.453314918E-01 -0.784221868E-01
   C  0.138784575E+01 -0.425440956E-01  0.110566635E+00
   H -0.810149066E+01  0.583290509E+00  0.983590519E+00
   H  0.795917513E+01  0.498601323E+00 -0.654635015E+00
     4
 # iter = 29500  time[fs]=29.50000
   C -0.154626600E+01 -0.469671644E-01 -0.822523023E-01
   C  0.144764966E+01 -0.441799058E-01  0.117042647E+00
   H -0.846200347E+01  0.612709526E+00  0.103237240E+01
   H  0.831172580E+01  0.524164249E+00 -0.684295386E+00
     4
 # iter = 30000  time[fs]=30.00000
   C -0.161280131E+01 -0.483253005E-01 -0.859044227E-01
   C  0.150921153E+01 -0.455107531E-01  0.123947771E+00
   H -0.882316260E+01  0.644012329E+00  0.108316472E+01
   H  0.866844593E+01  0.551598230E+00 -0.712506635E+00
     4
 # iter = 30500  time[fs]=30.50000
   C -0.168116280E+01 -0.501913846E-01 -0.901569820E-01
   C  0.157156152E+01 -0.473896780E-01  0.130419989E+00
   H -0.918931474E+01  0.672649289E+00  0.113140811E+01
   H  0.902459767E+01  0.576352269E+00 -0.743786927E+00
     4
 # iter = 31000  time[fs]=31.00000
   C -0.175125622E+01 -0.525751724E-01 -0.950132687E-01
   C  0.163458325E+01 -0.498276457E-01  0.136440182E+00
   H -0.956035490E+01  0.698544039E+00  0.117701749E+01
   H  0.937994124E+01  0.598351093E+00 -0.778182552E+00
     4
 # iter = 31500  time[fs]=31.50000
   C -0.182247345E+01 -0.549623205E-01 -0.999530121E-01
   C  0.169873949E+01 -0.522666923E-01  0.142558900E+00
   H -0.993317420E+01  0.724642796E+00  0.122293122E+01
   H  0.973728019E+01  0.620543676E+00 -0.812718852E+00
     4
 # iter = 32000  time[fs]=32.00000
   C -0.189441062E+01 -0.570336483E-01 -0.104651604E+00
   C  0.176429042E+01 -0.543606535E-01  0.149115543E+00
   H -0.103058040E+02  0.752768763E+00  0.127096547E+01
   H  0.100983095E+02  0.644755215E+00 -0.845547547E+00
     4
 # iter = 32500  time[fs]=32.50000
   C -0.196712497E+01 -0.589230790E-01 -0.109238001E+00
   C  0.183101273E+01 -0.562551517E-01  0.155958300E+00
   H -0.106789009E+02  0.782135348E+00  0.132032735E+01
   H  0.104621253E+02  0.670199488E+00 -0.877433917E+00
     4
 # iter = 33000  time[fs]=33.00000
   C -0.204082425E+01 -0.609078330E-01 -0.113984872E+00
   C  0.189853495E+01 -0.582513155E-01  0.162780382E+00
   H -0.110539592E+02  0.811131599E+00  0.136940021E+01
   H  0.108270101E+02  0.695265329E+00 -0.909970116E+00
     4
 # iter = 33500  time[fs]=33.50000
   C -0.211552615E+01 -0.630685714E-01 -0.118968707E+00
   C  0.196670559E+01 -0.604368842E-01  0.169488874E+00
   H -0.114313501E+02  0.839280812E+00  0.141770220E+01
   H  0.111923914E+02  0.719476373E+00 -0.943615292E+00
     4
 # iter = 34000  time[fs]=34.00000
   C -0.219105422E+01 -0.652859975E-01 -0.124066381E+00
   C  0.203559607E+01 -0.626825243E-01  0.176208370E+00
   H -0.118103007E+02  0.867259907E+00  0.146590554E+01
   H  0.115588602E+02  0.743510476E+00 -0.977675980E+00
     4
 # iter = 34500  time[fs]=34.50000
   C -0.226723988E+01 -0.674435142E-01 -0.129157780E+00
   C  0.210528013E+01 -0.648618149E-01  0.183060947E+00
   H -0.121900617E+02  0.895731181E+00  0.151466826E+01
   H  0.119270010E+02  0.768030809E+00 -0.101147478E+01
     4
 # iter = 35000  time[fs]=35.00000
   C -0.234403711E+01 -0.695424593E-01 -0.134241010E+00
   C  0.217570822E+01 -0.669763340E-01  0.190041033E+00
   H -0.125705703E+02  0.924678016E+00  0.156396982E+01
   H  0.122967254E+02  0.793021196E+00 -0.104501484E+01
     4
 # iter = 35500  time[fs]=35.50000
   C -0.242146846E+01 -0.716486351E-01 -0.139378898E+00
   C  0.224676503E+01 -0.690976194E-01  0.197073419E+00
   H -0.129521414E+02  0.953712998E+00  0.161341922E+01
   H  0.126675805E+02  0.818094407E+00 -0.107867144E+01
     4
 # iter = 36000  time[fs]=36.00000
   C -0.249953005E+01 -0.737976632E-01 -0.144604323E+00
   C  0.231837178E+01 -0.712644343E-01  0.204115956E+00
   H -0.133349217E+02  0.982623380E+00  0.166280045E+01
   H  0.130392934E+02  0.843037938E+00 -0.111264608E+01
     4
 # iter = 36500  time[fs]=36.50000
   C -0.257816949E+01 -0.759733386E-01 -0.149898551E+00
   C  0.239050932E+01 -0.734592740E-01  0.211183029E+00
   H -0.137187635E+02  0.101149576E+01  0.171219706E+01
   H  0.134118957E+02  0.867938761E+00 -0.114684169E+01
     4
 # iter = 37000  time[fs]=37.00000
   C -0.265732549E+01 -0.781475601E-01 -0.155231143E+00
   C  0.246317447E+01 -0.756517111E-01  0.218302183E+00
   H -0.141034551E+02  0.104048585E+01  0.176176198E+01
   H  0.137854925E+02  0.892952970E+00 -0.118109285E+01
     4
 # iter = 37500  time[fs]=37.50000
   C -0.273696037E+01 -0.803131368E-01 -0.160592744E+00
   C  0.253634410E+01 -0.778340082E-01  0.225478489E+00
   H -0.144889092E+02  0.106962931E+01  0.181152829E+01
   H  0.141600729E+02  0.918116522E+00 -0.121535496E+01
     4
 # iter = 38000  time[fs]=38.00000
   C -0.281705618E+01 -0.824801710E-01 -0.165991454E+00
   C  0.260997876E+01 -0.800171922E-01  0.232698449E+00
   H -0.148751418E+02  0.109886257E+01  0.186143002E+01
   H  0.145355301E+02  0.943366052E+00 -0.124968341E+01
     4
 # iter = 38500  time[fs]=38.50000
   C -0.289759571E+01 -0.846573328E-01 -0.171434085E+00
   C  0.268404278E+01 -0.822107287E-01  0.239950307E+00
   H -0.152621635E+02  0.112813071E+01  0.191141004E+01
   H  0.149117691E+02  0.968646836E+00 -0.128412549E+01
     4
 # iter = 39000  time[fs]=39.00000
   C -0.297855447E+01 -0.868439980E-01 -0.176918287E+00
   C  0.275851262E+01 -0.844139892E-01  0.247232562E+00
   H -0.156499346E+02  0.115743274E+01  0.196146530E+01
   H  0.152887521E+02  0.993958095E+00 -0.131867509E+01
     4
 # iter = 39500  time[fs]=39.50000
   C -0.305990566E+01 -0.890354550E-01 -0.182437743E+00
   C  0.283337099E+01 -0.866219030E-01  0.254548305E+00
   H -0.160383941E+02  0.118679157E+01  0.201161678E+01
   H  0.156664674E+02  0.101932294E+01 -0.135330268E+01
     4
 # iter = 40000  time[fs]=40.00000
   C -0.314162649E+01 -0.912293413E-01 -0.187988596E+00
   C  0.290859970E+01 -0.888319457E-01  0.261898216E+00
   H -0.164274969E+02  0.121621684E+01  0.206187236E+01
   H  0.160448927E+02  0.104475119E+01 -0.138799243E+01
     4
 # iter = 40500  time[fs]=40.50000
   C -0.322369874E+01 -0.934264073E-01 -0.193570204E+00
   C  0.298417870E+01 -0.910449676E-01  0.269279724E+00
   H -0.168172182E+02  0.124570055E+01  0.211222233E+01
   H  0.164239901E+02  0.107023500E+01 -0.142274662E+01
     4
 # iter = 41000  time[fs]=41.00000
   C -0.330610605E+01 -0.956279050E-01 -0.199182519E+00
   C  0.306008876E+01 -0.932623605E-01  0.276689832E+00
   H -0.172075380E+02  0.127523203E+01  0.216265448E+01
   H  0.168037212E+02  0.109576385E+01 -0.145757052E+01
     4
 # iter = 41500  time[fs]=41.50000
   C -0.338883216E+01 -0.978339540E-01 -0.204824444E+00
   C  0.313631312E+01 -0.954842838E-01  0.284126878E+00
   H -0.175984313E+02  0.130480736E+01  0.221316341E+01
   H  0.171840560E+02  0.112133395E+01 -0.149246302E+01
     4
 # iter = 42000  time[fs]=42.00000
   C -0.347186117E+01 -0.100043908E+00 -0.210494198E+00
   C  0.321283701E+01 -0.977100631E-01  0.291590131E+00
   H -0.179898706E+02  0.133442725E+01  0.226374848E+01
   H  0.175649708E+02  0.114694615E+01 -0.152741867E+01
     4
 # iter = 42500  time[fs]=42.50000
   C -0.355517834E+01 -0.102257247E+00 -0.216190193E+00
   C  0.328964656E+01 -0.999391576E-01  0.299078814E+00
   H -0.183818306E+02  0.136409189E+01  0.231440856E+01
   H  0.179464429E+02  0.117260074E+01 -0.156243285E+01
     4
 # iter = 43000  time[fs]=43.00000
   C -0.363877026E+01 -0.104473841E+00 -0.221911303E+00
   C  0.336672843E+01 -0.102171451E+00  0.306591808E+00
   H -0.187742896E+02  0.139379934E+01  0.236514052E+01
   H  0.183284491E+02  0.119829590E+01 -0.159750333E+01
     4
 # iter = 43500  time[fs]=43.50000
   C -0.372262452E+01 -0.106693709E+00 -0.227656608E+00
   C  0.344407000E+01 -0.104406982E+00  0.314127912E+00
   H -0.191672278E+02  0.142354702E+01  0.241594063E+01
   H  0.187109665E+02  0.122402916E+01 -0.163262875E+01
     4
 # iter = 44000  time[fs]=44.00000
   C -0.380672944E+01 -0.108916784E+00 -0.233425161E+00
   C  0.352165953E+01 -0.106645698E+00  0.321686088E+00
   H -0.195606265E+02  0.145333296E+01  0.246680584E+01
   H  0.190939743E+02  0.124979864E+01 -0.166780739E+01
     4
 # iter = 44500  time[fs]=44.50000
   C -0.389107396E+01 -0.111142912E+00 -0.239215978E+00
   C  0.359948615E+01 -0.108887450E+00  0.329265457E+00
   H -0.199544671E+02  0.148315584E+01  0.251773380E+01
   H  0.194774533E+02  0.127560310E+01 -0.170303709E+01
     4
 # iter = 45000  time[fs]=45.00000
   C -0.397564771E+01 -0.113371937E+00 -0.245028122E+00
   C  0.367753965E+01 -0.111132082E+00  0.336865206E+00
   H -0.203487325E+02  0.151301447E+01  0.256872239E+01
   H  0.198613855E+02  0.130144145E+01 -0.173831572E+01
     4
 # iter = 45500  time[fs]=45.50000
   C -0.406044097E+01 -0.115603740E+00 -0.250860740E+00
   C  0.375581040E+01 -0.113379483E+00  0.344484534E+00
   H -0.207434063E+02  0.154290756E+01  0.261976940E+01
   H  0.202457537E+02  0.132731246E+01 -0.177364146E+01
     4
 # iter = 46000  time[fs]=46.00000
   C -0.414544461E+01 -0.117838229E+00 -0.256713045E+00
   C  0.383428935E+01 -0.115629565E+00  0.352122665E+00
   H -0.211384734E+02  0.157283378E+01  0.267087263E+01
   H  0.206305415E+02  0.135321490E+01 -0.180901269E+01
     4
 # iter = 46500  time[fs]=46.50000
   C -0.423065005E+01 -0.120075314E+00 -0.262584290E+00
   C  0.391296798E+01 -0.117882242E+00  0.359778871E+00
   H -0.215339193E+02  0.160279190E+01  0.272203004E+01
   H  0.210157336E+02  0.137914758E+01 -0.184442785E+01
     4
 # iter = 47000  time[fs]=47.00000
   C -0.431604919E+01 -0.122314899E+00 -0.268473761E+00
   C  0.399183824E+01 -0.120137424E+00  0.367452472E+00
   H -0.219297304E+02  0.163278079E+01  0.277323974E+01
   H  0.214013154E+02  0.140510946E+01 -0.187988542E+01
     4
 # iter = 47500  time[fs]=47.50000
   C -0.440163437E+01 -0.124556893E+00 -0.274380780E+00
   C  0.407089258E+01 -0.122395022E+00  0.375142826E+00
   H -0.223258937E+02  0.166279939E+01  0.282449992E+01
   H  0.217872731E+02  0.143109952E+01 -0.191538394E+01
     4
 # iter = 48000  time[fs]=48.00000
   C -0.448739839E+01 -0.126801213E+00 -0.280304708E+00
   C  0.415012385E+01 -0.124654954E+00  0.382849323E+00
   H -0.227223969E+02  0.169284669E+01  0.287580889E+01
   H  0.221735936E+02  0.145711683E+01 -0.195092203E+01
     4
 # iter = 48500  time[fs]=48.50000
   C -0.457333443E+01 -0.129047777E+00 -0.286244938E+00
   C  0.422952528E+01 -0.126917145E+00  0.390571384E+00
   H -0.231192282E+02  0.172292172E+01  0.292716501E+01
   H  0.225602644E+02  0.148316046E+01 -0.198649840E+01
     4
 # iter = 49000  time[fs]=49.00000
   C -0.465943603E+01 -0.131296513E+00 -0.292200896E+00
   C  0.430909050E+01 -0.129181520E+00  0.398308460E+00
   H -0.235163768E+02  0.175302356E+01  0.297856673E+01
   H  0.229472738E+02  0.150922955E+01 -0.202211180E+01
     4
 # iter = 49500  time[fs]=49.50000
   C -0.474569710E+01 -0.133547347E+00 -0.298172037E+00
   C  0.438881346E+01 -0.131448011E+00  0.406060028E+00
   H -0.239138319E+02  0.178315134E+01  0.303001257E+01
   H  0.233346105E+02  0.153532326E+01 -0.205776106E+01
     4
 # iter = 50000  time[fs]=50.00000
   C -0.483211183E+01 -0.135800211E+00 -0.304157842E+00
   C  0.446868842E+01 -0.133716550E+00  0.413825595E+00
   H -0.243115836E+02  0.181330422E+01  0.308150112E+01
   H  0.237222638E+02  0.156144082E+01 -0.209344504E+01
     4
 # iter = 50500  time[fs]=50.50000
   C -0.491867476E+01 -0.138055040E+00 -0.310157817E+00
   C  0.454870994E+01 -0.135987075E+00  0.421604687E+00
   H -0.247096223E+02  0.184348140E+01  0.313303106E+01
   H  0.241102236E+02  0.158758148E+01 -0.212916267E+01
     4
 # iter = 51000  time[fs]=51.00000
   C -0.500538066E+01 -0.140311773E+00 -0.316171493E+00
   C  0.462887287E+01 -0.138259524E+00  0.429396858E+00
   H -0.251079389E+02  0.187368214E+01  0.318460110E+01
   H  0.244984801E+02  0.161374451E+01 -0.216491293E+01
     4
 # iter = 51500  time[fs]=51.50000
   C -0.509222459E+01 -0.142570349E+00 -0.322198423E+00
   C  0.470917232E+01 -0.140533839E+00  0.437201680E+00
   H -0.255065247E+02  0.190390571E+01  0.323621002E+01
   H  0.248870241E+02  0.163992924E+01 -0.220069484E+01
     4
 # iter = 52000  time[fs]=52.00000
   C -0.517920185E+01 -0.144830712E+00 -0.328238181E+00
   C  0.478960362E+01 -0.142809966E+00  0.445018746E+00
   H -0.259053715E+02  0.193415142E+01  0.328785666E+01
   H  0.252758467E+02  0.166613501E+01 -0.223650745E+01
     4
 # iter = 52500  time[fs]=52.50000
   C -0.526630797E+01 -0.147092809E+00 -0.334290361E+00
   C  0.487016234E+01 -0.145087851E+00  0.452847667E+00
   H -0.263044714E+02  0.196441860E+01  0.333953990E+01
   H  0.256649396E+02  0.169236120E+01 -0.227234987E+01
     4
 # iter = 53000  time[fs]=53.00000
   C -0.535353868E+01 -0.149356588E+00 -0.340354574E+00
   C  0.495084426E+01 -0.147367443E+00  0.460688074E+00
   H -0.267038167E+02  0.199470664E+01  0.339125867E+01
   H  0.260542946E+02  0.171860721E+01 -0.230822125E+01
     4
 # iter = 53500  time[fs]=53.50000
   C -0.544088993E+01 -0.151622000E+00 -0.346430451E+00
   C  0.503164538E+01 -0.149648694E+00  0.468539613E+00
   H -0.271034002E+02  0.202501492E+01  0.344301196E+01
   H  0.264439040E+02  0.174487247E+01 -0.234412076E+01
     4
 # iter = 54000  time[fs]=54.00000
   C -0.552835784E+01 -0.153888997E+00 -0.352517638E+00
   C  0.511256185E+01 -0.151931557E+00  0.476401945E+00
   H -0.275032151E+02  0.205534286E+01  0.349479878E+01
   H  0.268337604E+02  0.177115644E+01 -0.238004762E+01
     4
 # iter = 54500  time[fs]=54.50000
   C -0.561593873E+01 -0.156157534E+00 -0.358615795E+00
   C  0.519359002E+01 -0.154215987E+00  0.484274747E+00
   H -0.279032546E+02  0.208568992E+01  0.354661820E+01
   H  0.272238568E+02  0.179745859E+01 -0.241600106E+01
     4
 # iter = 55000  time[fs]=55.00000
   C -0.570362908E+01 -0.158427568E+00 -0.364724600E+00
   C  0.527472642E+01 -0.156501942E+00  0.492157711E+00
   H -0.283035125E+02  0.211605556E+01  0.359846933E+01
   H  0.276141864E+02  0.182377841E+01 -0.245198037E+01
     4
 # iter = 55500  time[fs]=55.50000
   C -0.579142551E+01 -0.160699058E+00 -0.370843743E+00
   C  0.535596769E+01 -0.158789381E+00  0.500050539E+00
   H -0.287039826E+02  0.214643928E+01  0.365035129E+01
   H  0.280047428E+02  0.185011543E+01 -0.248798484E+01
     4
 # iter = 56000  time[fs]=56.00000
   C -0.587932482E+01 -0.162971964E+00 -0.376972927E+00
   C  0.543731067E+01 -0.161078263E+00  0.507952949E+00
   H -0.291046592E+02  0.217684058E+01  0.370226327E+01
   H  0.283955196E+02  0.187646919E+01 -0.252401382E+01
     4
 # iter = 56500  time[fs]=56.50000
   C -0.596732392E+01 -0.165246247E+00 -0.383111866E+00
   C  0.551875230E+01 -0.163368552E+00  0.515864669E+00
   H -0.295055366E+02  0.220725899E+01  0.375420446E+01
   H  0.287865109E+02  0.190283923E+01 -0.256006666E+01
     4
 # iter = 57000  time[fs]=57.00000
   C -0.605541987E+01 -0.167521871E+00 -0.389260289E+00
   C  0.560028967E+01 -0.165660210E+00  0.523785437E+00
   H -0.299066094E+02  0.223769407E+01  0.380617410E+01
   H  0.291777109E+02  0.192922513E+01 -0.259614273E+01
     4
 # iter = 57500  time[fs]=57.50000
   C -0.614360986E+01 -0.169798800E+00 -0.395417934E+00
   C  0.568192000E+01 -0.167953202E+00  0.531715005E+00
   H -0.303078724E+02  0.226814538E+01  0.385817147E+01
   H  0.295691142E+02  0.195562648E+01 -0.263224146E+01
     4
 # iter = 58000  time[fs]=58.00000
   C -0.623189117E+01 -0.172077002E+00 -0.401584549E+00
   C  0.576364060E+01 -0.170247495E+00  0.539653132E+00
   H -0.307093208E+02  0.229861250E+01  0.391019584E+01
   H  0.299607154E+02  0.198204288E+01 -0.266836225E+01
     4
 # iter = 58500  time[fs]=58.50000
   C -0.632026123E+01 -0.174356443E+00 -0.407759893E+00
   C  0.584544892E+01 -0.172543056E+00  0.547599587E+00
   H -0.311109497E+02  0.232909503E+01  0.396224655E+01
   H  0.303525094E+02  0.200847396E+01 -0.270450458E+01
     4
 # iter = 59000  time[fs]=59.00000
   C -0.640871754E+01 -0.176637091E+00 -0.413943734E+00
   C  0.592734249E+01 -0.174839853E+00  0.555554149E+00
   H -0.315127545E+02  0.235959259E+01  0.401432293E+01
   H  0.307444914E+02  0.203491935E+01 -0.274066790E+01
     4
 # iter = 59500  time[fs]=59.50000
   C -0.649725773E+01 -0.178918917E+00 -0.420135849E+00
   C  0.600931896E+01 -0.177137857E+00  0.563516606E+00
   H -0.319147308E+02  0.239010481E+01  0.406642435E+01
   H  0.311366565E+02  0.206137869E+01 -0.277685170E+01
     4
 # iter = 60000  time[fs]=60.00000
   C -0.658587951E+01 -0.181201892E+00 -0.426336024E+00
   C  0.609137607E+01 -0.179437038E+00  0.571486751E+00
   H -0.323168743E+02  0.242063132E+01  0.411855022E+01
   H  0.315290003E+02  0.208785164E+01 -0.281305550E+01
     4
 # iter = 60500  time[fs]=60.50000
   C -0.667458067E+01 -0.183485988E+00 -0.432544052E+00
   C  0.617351164E+01 -0.181737368E+00  0.579464389E+00
   H -0.327191809E+02  0.245117178E+01  0.417069993E+01
   H  0.319215184E+02  0.211433789E+01 -0.284927881E+01
     4
 # iter = 61000  time[fs]=61.00000
   C -0.676335911E+01 -0.185771176E+00 -0.438759735E+00
   C  0.625572358E+01 -0.184038821E+00  0.587449329E+00
   H -0.331216467E+02  0.248172585E+01  0.422287294E+01
   H  0.323142065E+02  0.214083710E+01 -0.288552118E+01
     4
 # iter = 61500  time[fs]=61.50000
   C -0.685221280E+01 -0.188057433E+00 -0.444982881E+00
   C  0.633800988E+01 -0.186341369E+00  0.595441388E+00
   H -0.335242679E+02  0.251229323E+01  0.427506867E+01
   H  0.327070606E+02  0.216734898E+01 -0.292178217E+01
     4
 # iter = 62000  time[fs]=62.00000
   C -0.694113977E+01 -0.190344732E+00 -0.451213305E+00
   C  0.642036860E+01 -0.188644988E+00  0.603440391E+00
   H -0.339270407E+02  0.254287359E+01  0.432728663E+01
   H  0.331000767E+02  0.219387323E+01 -0.295806134E+01
     4
 # iter = 62500  time[fs]=62.50000
   C -0.703013816E+01 -0.192633049E+00 -0.457450831E+00
   C  0.650279790E+01 -0.190949653E+00  0.611446168E+00
   H -0.343299617E+02  0.257346663E+01  0.437952628E+01
   H  0.334932510E+02  0.222040956E+01 -0.299435829E+01
     4
 # iter = 63000  time[fs]=63.00000
   C -0.711920615E+01 -0.194922361E+00 -0.463695287E+00
   C  0.658529597E+01 -0.193255340E+00  0.619458555E+00
   H -0.347330273E+02  0.260407207E+01  0.443178715E+01
   H  0.338865799E+02  0.224695771E+01 -0.303067261E+01
     4
 # iter = 63500  time[fs]=63.50000
   C -0.720834199E+01 -0.197212645E+00 -0.469946507E+00
   C  0.666786109E+01 -0.195562027E+00  0.627477394E+00
   H -0.351362342E+02  0.263468962E+01  0.448406875E+01
   H  0.342800598E+02  0.227351740E+01 -0.306700393E+01
     4
 # iter = 64000  time[fs]=64.00000
   C -0.729754401E+01 -0.199503879E+00 -0.476204331E+00
   C  0.675049160E+01 -0.197869692E+00  0.635502532E+00
   H -0.355395793E+02  0.266531903E+01  0.453637063E+01
   H  0.346736873E+02  0.230008838E+01 -0.310335186E+01
     4
 # iter = 64500  time[fs]=64.50000
   C -0.738681058E+01 -0.201796042E+00 -0.482468607E+00
   C  0.683318589E+01 -0.200178314E+00  0.643533823E+00
   H -0.359430595E+02  0.269596001E+01  0.458869234E+01
   H  0.350674591E+02  0.232667040E+01 -0.313971604E+01
     4
 # iter = 65000  time[fs]=65.00000
   C -0.747614015E+01 -0.204089114E+00 -0.488739183E+00
   C  0.691594243E+01 -0.202487870E+00  0.651571124E+00
   H -0.363466718E+02  0.272661233E+01  0.464103345E+01
   H  0.354613720E+02  0.235326322E+01 -0.317609613E+01
     4
 # iter = 65500  time[fs]=65.50000
   C -0.756553120E+01 -0.206383074E+00 -0.495015918E+00
   C  0.699875971E+01 -0.204798343E+00  0.659614298E+00
   H -0.367504132E+02  0.275727573E+01  0.469339354E+01
   H  0.358554229E+02  0.237986661E+01 -0.321249178E+01
     4
 # iter = 66000  time[fs]=66.00000
   C -0.765498228E+01 -0.208677905E+00 -0.501298671E+00
   C  0.708163630E+01 -0.207109712E+00  0.667663212E+00
   H -0.371542810E+02  0.278794999E+01  0.474577222E+01
   H  0.362496088E+02  0.240648034E+01 -0.324890267E+01
     4
 # iter = 66500  time[fs]=66.50000
   C -0.774449198E+01 -0.210973586E+00 -0.507587308E+00
   C  0.716457081E+01 -0.209421958E+00  0.675717738E+00
   H -0.375582724E+02  0.281863486E+01  0.479816909E+01
   H  0.366439268E+02  0.243310420E+01 -0.328532849E+01
     4
 # iter = 67000  time[fs]=67.00000
   C -0.783405894E+01 -0.213270101E+00 -0.513881700E+00
   C  0.724756189E+01 -0.211735063E+00  0.683777752E+00
   H -0.379623848E+02  0.284933013E+01  0.485058377E+01
   H  0.370383741E+02  0.245973797E+01 -0.332176891E+01
     4
 # iter = 67500  time[fs]=67.50000
   C -0.792368187E+01 -0.215567431E+00 -0.520181719E+00
   C  0.733060826E+01 -0.214049010E+00  0.691843132E+00
   H -0.383666158E+02  0.288003558E+01  0.490301589E+01
   H  0.374329480E+02  0.248638144E+01 -0.335822365E+01
     4
 # iter = 68000  time[fs]=68.00000
   C -0.801335947E+01 -0.217865561E+00 -0.526487245E+00
   C  0.741370864E+01 -0.216363782E+00  0.699913764E+00
   H -0.387709627E+02  0.291075100E+01  0.495546511E+01
   H  0.378276458E+02  0.251303443E+01 -0.339469242E+01
     4
 # iter = 68500  time[fs]=68.50000
   C -0.810309054E+01 -0.220164473E+00 -0.532798160E+00
   C  0.749686184E+01 -0.218679361E+00  0.707989534E+00
   H -0.391754232E+02  0.294147620E+01  0.500793107E+01
   H  0.382224651E+02  0.253969673E+01 -0.343117493E+01
     4
 # iter = 69000  time[fs]=69.00000
   C -0.819287387E+01 -0.222464152E+00 -0.539114349E+00
   C  0.758006667E+01 -0.220995733E+00  0.716070333E+00
   H -0.395799951E+02  0.297221096E+01  0.506041343E+01
   H  0.386174032E+02  0.256636815E+01 -0.346767091E+01
     4
 # iter = 69500  time[fs]=69.50000
   C -0.828270833E+01 -0.224764582E+00 -0.545435701E+00
   C  0.766332201E+01 -0.223312880E+00  0.724156056E+00
   H -0.399846760E+02  0.300295511E+01  0.511291189E+01
   H  0.390124579E+02  0.259304853E+01 -0.350418009E+01
     4
 # iter = 70000  time[fs]=70.00000
   C -0.837259281E+01 -0.227065749E+00 -0.551762109E+00
   C  0.774662675E+01 -0.225630789E+00  0.732246599E+00
   H -0.403894637E+02  0.303370846E+01  0.516542611E+01
   H  0.394076267E+02  0.261973768E+01 -0.354070222E+01
     4
 # iter = 70500  time[fs]=70.50000
   C -0.846252622E+01 -0.229367637E+00 -0.558093469E+00
   C  0.782997983E+01 -0.227949444E+00  0.740341865E+00
   H -0.407943562E+02  0.306447082E+01  0.521795580E+01
   H  0.398029075E+02  0.264643543E+01 -0.357723706E+01
     4
 # iter = 71000  time[fs]=71.00000
   C -0.855250752E+01 -0.231670234E+00 -0.564429680E+00
   C  0.791338022E+01 -0.230268830E+00  0.748441755E+00
   H -0.411993514E+02  0.309524203E+01  0.527050065E+01
   H  0.401982980E+02  0.267314161E+01 -0.361378435E+01
     4
 # iter = 71500  time[fs]=71.50000
   C -0.864253571E+01 -0.233973525E+00 -0.570770644E+00
   C  0.799682692E+01 -0.232588935E+00  0.756546178E+00
   H -0.416044473E+02  0.312602192E+01  0.532306038E+01
   H  0.405937960E+02  0.269985607E+01 -0.365034386E+01
     4
 # iter = 72000  time[fs]=72.00000
   C -0.873260981E+01 -0.236277497E+00 -0.577116267E+00
   C  0.808031896E+01 -0.234909744E+00  0.764655041E+00
   H -0.420096420E+02  0.315681031E+01  0.537563471E+01
   H  0.409893996E+02  0.272657865E+01 -0.368691536E+01
     4
 # iter = 72500  time[fs]=72.50000
   C -0.882272886E+01 -0.238582136E+00 -0.583466455E+00
   C  0.816385540E+01 -0.237231245E+00  0.772768258E+00
   H -0.424149335E+02  0.318760705E+01  0.542822336E+01
   H  0.413851067E+02  0.275330919E+01 -0.372349864E+01
     4
 # iter = 73000  time[fs]=73.00000
   C -0.891289194E+01 -0.240887432E+00 -0.589821120E+00
   C  0.824743534E+01 -0.239553424E+00  0.780885742E+00
   H -0.428203201E+02  0.321841198E+01  0.548082607E+01
   H  0.417809153E+02  0.278004754E+01 -0.376009346E+01
     4
 # iter = 73500  time[fs]=73.50000
   C -0.900309817E+01 -0.243193371E+00 -0.596180174E+00
   C  0.833105789E+01 -0.241876269E+00  0.789007411E+00
   H -0.432257999E+02  0.324922496E+01  0.553344258E+01
   H  0.421768236E+02  0.280679357E+01 -0.379669963E+01
     4
 # iter = 74000  time[fs]=74.00000
   C -0.909334667E+01 -0.245499941E+00 -0.602543533E+00
   C  0.841472219E+01 -0.244199768E+00  0.797133184E+00
   H -0.436313713E+02  0.328004583E+01  0.558607263E+01
   H  0.425728297E+02  0.283354713E+01 -0.383331694E+01
     4
 # iter = 74500  time[fs]=74.50000
   C -0.918363661E+01 -0.247807132E+00 -0.608911115E+00
   C  0.849842741E+01 -0.246523910E+00  0.805262982E+00
   H -0.440370325E+02  0.331087445E+01  0.563871600E+01
   H  0.429689317E+02  0.286030809E+01 -0.386994519E+01
     4
 # iter = 75000  time[fs]=75.00000
   C -0.927396717E+01 -0.250114931E+00 -0.615282839E+00
   C  0.858217274E+01 -0.248848682E+00  0.813396730E+00
   H -0.444427819E+02  0.334171068E+01  0.569137242E+01
   H  0.433651281E+02  0.288707631E+01 -0.390658417E+01
     4
 # iter = 75500  time[fs]=75.50000
   C -0.936433755E+01 -0.252423328E+00 -0.621658629E+00
   C  0.866595741E+01 -0.251174074E+00  0.821534353E+00
   H -0.448486180E+02  0.337255440E+01  0.574404168E+01
   H  0.437614169E+02  0.291385166E+01 -0.394323372E+01
     4
 # iter = 76000  time[fs]=76.00000
   C -0.945474698E+01 -0.254732312E+00 -0.628038410E+00
   C  0.874978065E+01 -0.253500075E+00  0.829675780E+00
   H -0.452545391E+02  0.340340545E+01  0.579672356E+01
   H  0.441577967E+02  0.294063402E+01 -0.397989363E+01
     4
 # iter = 76500  time[fs]=76.50000
   C -0.954519472E+01 -0.257041874E+00 -0.634422106E+00
   C  0.883364171E+01 -0.255826674E+00  0.837820940E+00
   H -0.456605437E+02  0.343426372E+01  0.584941782E+01
   H  0.445542657E+02  0.296742327E+01 -0.401656373E+01
     4
 # iter = 77000  time[fs]=77.00000
   C -0.963568003E+01 -0.259352002E+00 -0.640809648E+00
   C  0.891753988E+01 -0.258153860E+00  0.845969765E+00
   H -0.460666305E+02  0.346512908E+01  0.590212425E+01
   H  0.449508225E+02  0.299421928E+01 -0.405324385E+01
     4
 # iter = 77500  time[fs]=77.50000
   C -0.972620222E+01 -0.261662687E+00 -0.647200965E+00
   C  0.900147447E+01 -0.260481625E+00  0.854122189E+00
   H -0.464727979E+02  0.349600141E+01  0.595484266E+01
   H  0.453474654E+02  0.302102194E+01 -0.408993382E+01
     4
 # iter = 78000  time[fs]=78.00000
   C -0.981676058E+01 -0.263973920E+00 -0.653595991E+00
   C  0.908544478E+01 -0.262809957E+00  0.862278147E+00
   H -0.468790445E+02  0.352688059E+01  0.600757282E+01
   H  0.457441929E+02  0.304783114E+01 -0.412663346E+01
     4
 # iter = 78500  time[fs]=78.50000
   C -0.990735446E+01 -0.266285691E+00 -0.659994658E+00
   C  0.916945016E+01 -0.265138848E+00  0.870437577E+00
   H -0.472853691E+02  0.355776650E+01  0.606031456E+01
   H  0.461410038E+02  0.307464677E+01 -0.416334262E+01
     4
 # iter = 79000  time[fs]=79.00000
   C -0.999798320E+01 -0.268597990E+00 -0.666396904E+00
   C  0.925348996E+01 -0.267468289E+00  0.878600416E+00
   H -0.476917702E+02  0.358865903E+01  0.611306766E+01
   H  0.465378964E+02  0.310146871E+01 -0.420006115E+01
     4
 # iter = 79500  time[fs]=79.50000
   C -0.100886462E+02 -0.270910811E+00 -0.672802665E+00
   C  0.933756356E+01 -0.269798269E+00  0.886766607E+00
   H -0.480982466E+02  0.361955807E+01  0.616583196E+01
   H  0.469348694E+02  0.312829687E+01 -0.423678887E+01
     4
 # iter = 80000  time[fs]=80.00000
   C -0.101793427E+02 -0.273224142E+00 -0.679211880E+00
   C  0.942167035E+01 -0.272128780E+00  0.894936089E+00
   H -0.485047970E+02  0.365046351E+01  0.621860725E+01
   H  0.473319216E+02  0.315513114E+01 -0.427352565E+01
