     4
 # iter = 25000  time[fs]=25.00000
   C -0.984774029E+00  0.385192323E-02  0.351432612E-01
   C  0.991538651E+00 -0.737147225E-02  0.135736059E-01
   H -0.537848654E+01 -0.420136279E+00  0.282291262E+00
   H  0.535793768E+01 -0.554071780E-01 -0.441935932E+00
     4
 # iter = 25500  time[fs]=25.50000
   C -0.103054111E+01  0.484169899E-02  0.347626747E-01
   C  0.103103260E+01 -0.890597977E-02  0.136466631E-01
   H -0.571866457E+01 -0.452275041E+00  0.291682286E+00
   H  0.566715052E+01 -0.660776970E-01 -0.478470981E+00
     4
 # iter = 26000  time[fs]=26.00000
   C -0.107993522E+01  0.510489165E-02  0.336397780E-01
   C  0.107216794E+01 -0.115960391E-01  0.125680226E-01
   H -0.606909668E+01 -0.490212990E+00  0.295911505E+00
   H  0.597659894E+01 -0.822096670E-01 -0.520962388E+00
     4
 # iter = 26500  time[fs]=26.50000
   C -0.113043645E+01  0.693079612E-02  0.340620888E-01
   C  0.111814556E+01 -0.120175322E-01  0.137654969E-01
   H -0.641314410E+01 -0.517816601E+00  0.311039077E+00
   H  0.630178561E+01 -0.877061680E-01 -0.553262872E+00
     4
 # iter = 27000  time[fs]=27.00000
   C -0.118171431E+01  0.104304695E-01  0.361392061E-01
   C  0.116892357E+01 -0.100022374E-01  0.174100304E-01
   H -0.674955829E+01 -0.534252619E+00  0.337838359E+00
   H  0.664298512E+01 -0.817661046E-01 -0.574526614E+00
     4
 # iter = 27500  time[fs]=27.50000
   C -0.123526981E+01  0.138967724E-01  0.381628640E-01
   C  0.122175652E+01 -0.809982090E-02  0.209538653E-01
   H -0.708993509E+01 -0.551460356E+00  0.364320793E+00
   H  0.698776107E+01 -0.763577630E-01 -0.596682037E+00
     4
 # iter = 28000  time[fs]=28.00000
   C -0.129212261E+01  0.161211999E-01  0.389238694E-01
   C  0.127466045E+01 -0.811417317E-02  0.225944827E-01
   H -0.744241904E+01 -0.577882452E+00  0.382001134E+00
   H  0.732724296E+01 -0.799483564E-01 -0.628161954E+00
     4
 # iter = 28500  time[fs]=28.50000
   C -0.135161725E+01  0.175888909E-01  0.389071029E-01
   C  0.132819975E+01 -0.931674146E-02  0.230614455E-01
   H -0.780329578E+01 -0.610071775E+00  0.394288366E+00
   H  0.766451749E+01 -0.891100642E-01 -0.665509414E+00
     4
 # iter = 29000  time[fs]=29.00000
   C -0.141240629E+01  0.194934045E-01  0.393061688E-01
   C  0.138401296E+01 -0.991976768E-02  0.241431983E-01
   H -0.816390961E+01 -0.639610125E+00  0.409566818E+00
   H  0.800769372E+01 -0.954405055E-01 -0.700296948E+00
     4
 # iter = 29500  time[fs]=29.50000
   C -0.147393851E+01  0.222458084E-01  0.405323573E-01
   C  0.144258186E+01 -0.930576389E-02  0.264575969E-01
   H -0.852113609E+01 -0.663579457E+00  0.430725169E+00
   H  0.835941485E+01 -0.960365300E-01 -0.729599124E+00
     4
 # iter = 30000  time[fs]=30.00000
   C -0.153666667E+01  0.252655261E-01  0.420054336E-01
   C  0.150291763E+01 -0.834028517E-02  0.291391874E-01
   H -0.887884723E+01 -0.686030429E+00  0.453687403E+00
   H  0.871538249E+01 -0.949633961E-01 -0.757461155E+00
     4
 # iter = 30500  time[fs]=30.50000
   C -0.160112223E+01  0.279052283E-01  0.430785180E-01
   C  0.156394313E+01 -0.798876164E-02  0.312224597E-01
   H -0.924140750E+01 -0.711484945E+00  0.473909303E+00
   H  0.907085423E+01 -0.967560625E-01 -0.788400122E+00
     4
 # iter = 31000  time[fs]=31.00000
   C -0.166721124E+01  0.301543918E-01  0.437416327E-01
   C  0.162554424E+01 -0.826432284E-02  0.326940920E-01
   H -0.960872605E+01 -0.739993491E+00  0.491320347E+00
   H  0.942558612E+01 -0.101475582E+00 -0.822461284E+00
     4
 # iter = 31500  time[fs]=31.50000
   C -0.173441969E+01  0.324327948E-01  0.444151666E-01
   C  0.168825987E+01 -0.853668524E-02  0.341840937E-01
   H -0.997770524E+01 -0.768585789E+00  0.508872763E+00
   H  0.978237781E+01 -0.106160342E+00 -0.856669014E+00
     4
 # iter = 32000  time[fs]=32.00000
   C -0.180240239E+01  0.350002746E-01  0.453596002E-01
   C  0.175239817E+01 -0.841495503E-02  0.360830140E-01
   H -0.103463865E+02 -0.795417322E+00  0.528394903E+00
   H  0.101429207E+02 -0.108973838E+00 -0.889174223E+00
     4
 # iter = 32500  time[fs]=32.50000
   C -0.187119365E+01  0.377450394E-01  0.464637952E-01
   C  0.181771897E+01 -0.806422805E-02  0.382253558E-01
   H -0.107154359E+02 -0.821256279E+00  0.549104139E+00
   H  0.105063075E+02 -0.110692126E+00 -0.920741559E+00
     4
 # iter = 33000  time[fs]=33.00000
   C -0.194095230E+01  0.404378667E-01  0.474991851E-01
   C  0.188381330E+01 -0.782536156E-02  0.402698250E-01
   H -0.110863567E+02 -0.847697324E+00  0.569392835E+00
   H  0.108708176E+02 -0.112917187E+00 -0.952962660E+00
     4
 # iter = 33500  time[fs]=33.50000
   C -0.201168222E+01  0.430109641E-01  0.483986307E-01
   C  0.195051975E+01 -0.779786630E-02  0.421164570E-01
   H -0.114595274E+02 -0.875202163E+00  0.588787527E+00
   H  0.112358757E+02 -0.116117058E+00 -0.986296195E+00
     4
 # iter = 34000  time[fs]=34.00000
   C -0.208322893E+01  0.455607478E-01  0.492591927E-01
   C  0.201792803E+01 -0.783575546E-02  0.439107784E-01
   H -0.118341815E+02 -0.903079952E+00  0.607968352E+00
   H  0.116020701E+02 -0.119606319E+00 -0.102004825E+01
     4
 # iter = 34500  time[fs]=34.50000
   C -0.215544522E+01  0.481815388E-01  0.501758213E-01
   C  0.208612957E+01 -0.779630016E-02  0.457950567E-01
   H -0.122095754E+02 -0.930655707E+00  0.627600543E+00
   H  0.119699827E+02 -0.122714917E+00 -0.105354104E+01
     4
 # iter = 35000  time[fs]=35.00000
   C -0.222828515E+01  0.508709942E-01  0.511467829E-01
   C  0.215507564E+01 -0.768147616E-02  0.477668574E-01
   H -0.125856514E+02 -0.957934648E+00  0.647669989E+00
   H  0.123395231E+02 -0.125452760E+00 -0.108677738E+01
     4
 # iter = 35500  time[fs]=35.50000
   C -0.230175974E+01  0.535739703E-01  0.521175210E-01
   C  0.222464239E+01 -0.757234003E-02  0.497446721E-01
   H -0.129627294E+02 -0.985293877E+00  0.667791469E+00
   H  0.127102359E+02 -0.128201339E+00 -0.112013227E+01
     4
 # iter = 36000  time[fs]=36.00000
   C -0.237585888E+01  0.562601752E-01  0.530583081E-01
   C  0.229474673E+01 -0.751286603E-02  0.516840850E-01
   H -0.133409601E+02 -0.101293665E+01  0.687754275E+00
   H  0.130818463E+02 -0.131167896E+00 -0.115380698E+01
     4
 # iter = 36500  time[fs]=36.50000
   C -0.245053324E+01  0.589419214E-01  0.539819981E-01
   C  0.236537245E+01 -0.748338493E-02  0.536043376E-01
   H -0.137201998E+02 -0.104076759E+01  0.707646947E+00
   H  0.134543841E+02 -0.134260612E+00 -0.118770420E+01
     4
 # iter = 37000  time[fs]=37.00000
   C -0.252572667E+01  0.616413557E-01  0.549112555E-01
   C  0.243652090E+01 -0.744960050E-02  0.555393123E-01
   H -0.141002402E+02 -0.106862285E+01  0.727627001E+00
   H  0.138279526E+02 -0.137318929E+00 -0.122165830E+01
     4
 # iter = 37500  time[fs]=37.50000
   C -0.260140286E+01  0.643635332E-01  0.558516294E-01
   C  0.250817045E+01 -0.740286076E-02  0.574972624E-01
   H -0.144809972E+02 -0.109645932E+01  0.747731735E+00
   H  0.142025392E+02 -0.140302770E+00 -0.125562454E+01
     4
 # iter = 38000  time[fs]=38.00000
   C -0.267754206E+01  0.670993791E-01  0.567945161E-01
   C  0.258028063E+01 -0.735572112E-02  0.594652490E-01
   H -0.148624895E+02 -0.112433369E+01  0.767899058E+00
   H  0.145780357E+02 -0.143271692E+00 -0.128965812E+01
     4
 # iter = 38500  time[fs]=38.50000
   C -0.275412556E+01  0.698410485E-01  0.577325189E-01
   C  0.265281492E+01 -0.731896233E-02  0.614321238E-01
   H -0.152447306E+02 -0.115229452E+01  0.788075421E+00
   H  0.149543457E+02 -0.146276888E+00 -0.132380623E+01
     4
 # iter = 39000  time[fs]=39.00000
   C -0.283112896E+01  0.725883725E-01  0.586658958E-01
   C  0.272575019E+01 -0.729194289E-02  0.633981760E-01
   H -0.156276829E+02 -0.118033689E+01  0.808261125E+00
   H  0.153314297E+02 -0.149315859E+00 -0.135806261E+01
     4
 # iter = 39500  time[fs]=39.50000
   C -0.290852631E+01  0.753445822E-01  0.595982835E-01
   C  0.279907009E+01 -0.726899169E-02  0.653687400E-01
   H -0.160112878E+02 -0.120843237E+01  0.828480270E+00
   H  0.157092751E+02 -0.152362450E+00 -0.139239763E+01
     4
 # iter = 40000  time[fs]=40.00000
   C -0.298629520E+01  0.781110227E-01  0.605314131E-01
   C  0.287275704E+01 -0.724731071E-02  0.673462920E-01
   H -0.163955022E+02 -0.123656619E+01  0.848743622E+00
   H  0.160878582E+02 -0.155403984E+00 -0.142679537E+01
     4
 # iter = 40500  time[fs]=40.50000
   C -0.306441726E+01  0.808865237E-01  0.614644809E-01
   C  0.294679109E+01 -0.722791336E-02  0.693295113E-01
   H -0.167803032E+02 -0.126474159E+01  0.869044194E+00
   H  0.164671402E+02 -0.158445673E+00 -0.146125801E+01
     4
 # iter = 41000  time[fs]=41.00000
   C -0.314287585E+01  0.836695385E-01  0.623962888E-01
   C  0.302115305E+01 -0.721242067E-02  0.713164836E-01
   H -0.171656723E+02 -0.129296477E+01  0.889372281E+00
   H  0.168470813E+02 -0.161495562E+00 -0.149579076E+01
     4
 # iter = 41500  time[fs]=41.50000
   C -0.322165467E+01  0.864594824E-01  0.633265832E-01
   C  0.309582633E+01 -0.720105624E-02  0.733067057E-01
   H -0.175515864E+02 -0.132123548E+01  0.909724870E+00
   H  0.172276507E+02 -0.164555111E+00 -0.153039241E+01
     4
 # iter = 42000  time[fs]=42.00000
   C -0.330073788E+01  0.892564286E-01  0.642557525E-01
   C  0.317079640E+01 -0.719309741E-02  0.753006332E-01
   H -0.179380194E+02 -0.134954909E+01  0.930103512E+00
   H  0.176088237E+02 -0.167621311E+00 -0.156505748E+01
     4
 # iter = 42500  time[fs]=42.50000
   C -0.338011078E+01  0.920603756E-01  0.651840945E-01
   C  0.324604960E+01 -0.718796951E-02  0.772985864E-01
   H -0.183249472E+02 -0.137790176E+01  0.950509171E+00
   H  0.179905768E+02 -0.170691832E+00 -0.159978130E+01
     4
 # iter = 43000  time[fs]=43.00000
   C -0.345975993E+01  0.948710249E-01  0.661115952E-01
   C  0.332157276E+01 -0.718557529E-02  0.793004199E-01
   H -0.187123495E+02 -0.140629198E+01  0.970940667E+00
   H  0.183728858E+02 -0.173766568E+00 -0.163456155E+01
     4
 # iter = 43500  time[fs]=43.50000
   C -0.353967288E+01  0.976879826E-01  0.670381319E-01
   C  0.339735337E+01 -0.718599071E-02  0.813058262E-01
   H -0.191002077E+02 -0.143471909E+01  0.991396103E+00
   H  0.187557272E+02 -0.176846209E+00 -0.166939686E+01
     4
 # iter = 44000  time[fs]=44.00000
   C -0.361983789E+01  0.100510945E+00  0.679636583E-01
   C  0.347337981E+01 -0.718918627E-02  0.833146139E-01
   H -0.194885041E+02 -0.146318202E+01  0.101187416E+01
   H  0.191390793E+02 -0.179930936E+00 -0.170428546E+01
     4
 # iter = 44500  time[fs]=44.50000
   C -0.370024388E+01  0.103339700E+00  0.688882089E-01
   C  0.354964131E+01 -0.719501989E-02  0.853267146E-01
   H -0.198772213E+02 -0.149167921E+01  0.103237414E+01
   H  0.195229221E+02 -0.183020382E+00 -0.173922514E+01
     4
 # iter = 45000  time[fs]=45.00000
   C -0.378088047E+01  0.106174058E+00  0.698118269E-01
   C  0.362612780E+01 -0.720334360E-02  0.873420750E-01
   H -0.202663430E+02 -0.152020914E+01  0.105289543E+01
   H  0.199072370E+02 -0.186114139E+00 -0.177421376E+01
     4
 # iter = 45500  time[fs]=45.50000
   C -0.386173789E+01  0.109013815E+00  0.707345301E-01
   C  0.370282974E+01 -0.721405457E-02  0.893606062E-01
   H -0.206558539E+02 -0.154877054E+01  0.107343729E+01
   H  0.202920063E+02 -0.189211997E+00 -0.180924946E+01
     4
 # iter = 46000  time[fs]=46.00000
   C -0.394280699E+01  0.111858760E+00  0.716563220E-01
   C  0.377973815E+01 -0.722707721E-02  0.913822004E-01
   H -0.210457394E+02 -0.157736233E+01  0.109399890E+01
   H  0.206772128E+02 -0.192313862E+00 -0.184433059E+01
     4
 # iter = 46500  time[fs]=46.50000
   C -0.402407915E+01  0.114708700E+00  0.725772098E-01
   C  0.385684461E+01 -0.724233598E-02  0.934067580E-01
   H -0.214359862E+02 -0.160598343E+01  0.111457953E+01
   H  0.210628406E+02 -0.195419626E+00 -0.187945558E+01
     4
 # iter = 47000  time[fs]=47.00000
   C -0.410554623E+01  0.117563454E+00  0.734972079E-01
   C  0.393414114E+01 -0.725974953E-02  0.954341933E-01
   H -0.218265811E+02 -0.163463282E+01  0.113517850E+01
   H  0.214488746E+02 -0.198529141E+00 -0.191462288E+01
     4
 # iter = 47500  time[fs]=47.50000
   C -0.418720056E+01  0.120422856E+00  0.744163329E-01
   C  0.401162027E+01 -0.727923768E-02  0.974644264E-01
   H -0.222175120E+02 -0.166330948E+01  0.115579520E+01
   H  0.218353005E+02 -0.201642257E+00 -0.194983100E+01
     4
 # iter = 48000  time[fs]=48.00000
   C -0.426903489E+01  0.123286745E+00  0.753346004E-01
   C  0.408927490E+01 -0.730072626E-02  0.994973786E-01
   H -0.226087672E+02 -0.169201248E+01  0.117642903E+01
   H  0.222221046E+02 -0.204758837E+00 -0.198507857E+01
     4
 # iter = 48500  time[fs]=48.50000
   C -0.435104237E+01  0.126154967E+00  0.762520247E-01
   C  0.416709834E+01 -0.732414656E-02  0.101532972E+00
   H -0.230003357E+02 -0.172074094E+01  0.119707942E+01
   H  0.226092740E+02 -0.207878764E+00 -0.202036425E+01
     4
 # iter = 49000  time[fs]=49.00000
   C -0.443321652E+01  0.129027374E+00  0.771686201E-01
   C  0.424508425E+01 -0.734943329E-02  0.103571133E+00
   H -0.233922069E+02 -0.174949400E+01  0.121774583E+01
   H  0.229967965E+02 -0.211001925E+00 -0.205568681E+01
     4
 # iter = 49500  time[fs]=49.50000
   C -0.451555120E+01  0.131903830E+00  0.780844015E-01
   C  0.432322665E+01 -0.737652371E-02  0.105611789E+00
   H -0.237843709E+02 -0.177827086E+01  0.123842772E+01
   H  0.233846604E+02 -0.214128210E+00 -0.209104505E+01
     4
 # iter = 50000  time[fs]=50.00000
   C -0.459804060E+01  0.134784200E+00  0.789993838E-01
   C  0.440151986E+01 -0.740535776E-02  0.107654872E+00
   H -0.241768181E+02 -0.180707077E+01  0.125912462E+01
   H  0.237728545E+02 -0.217257515E+00 -0.212643782E+01
     4
 # iter = 50500  time[fs]=50.50000
   C -0.468067919E+01  0.137668359E+00  0.799135818E-01
   C  0.447995847E+01 -0.743587823E-02  0.109700316E+00
   H -0.245695396E+02 -0.183589299E+01  0.127983605E+01
   H  0.241613683E+02 -0.220389739E+00 -0.216186405E+01
     4
 # iter = 51000  time[fs]=51.00000
   C -0.476346176E+01  0.140556187E+00  0.808270102E-01
   C  0.455853738E+01 -0.746803064E-02  0.111748059E+00
   H -0.249625266E+02 -0.186473681E+01  0.130056156E+01
   H  0.245501917E+02 -0.223524788E+00 -0.219732270E+01
     4
 # iter = 51500  time[fs]=51.50000
   C -0.484638331E+01  0.143447568E+00  0.817396835E-01
   C  0.463725173E+01 -0.750176299E-02  0.113798038E+00
   H -0.253557709E+02 -0.189360159E+01  0.132130073E+01
   H  0.249393150E+02 -0.226662572E+00 -0.223281278E+01
     4
 # iter = 52000  time[fs]=52.00000
   C -0.492943912E+01  0.146342393E+00  0.826516160E-01
   C  0.471609690E+01 -0.753702560E-02  0.115850194E+00
   H -0.257492648E+02 -0.192248669E+01  0.134205314E+01
   H  0.253287291E+02 -0.229803006E+00 -0.226833335E+01
     4
 # iter = 52500  time[fs]=52.50000
   C -0.501262470E+01  0.149240558E+00  0.835628217E-01
   C  0.479506849E+01 -0.757377099E-02  0.117904472E+00
   H -0.261430006E+02 -0.195139149E+01  0.136281840E+01
   H  0.257184252E+02 -0.232946006E+00 -0.230388350E+01
     4
 # iter = 53000  time[fs]=53.00000
   C -0.509593575E+01  0.152141962E+00  0.844733147E-01
   C  0.487416233E+01 -0.761195373E-02  0.119960816E+00
   H -0.265369711E+02 -0.198031543E+01  0.138359614E+01
   H  0.261083948E+02 -0.236091495E+00 -0.233946238E+01
     4
 # iter = 53500  time[fs]=53.50000
   C -0.517936819E+01  0.155046508E+00  0.853831087E-01
   C  0.495337442E+01 -0.765153036E-02  0.122019174E+00
   H -0.269311696E+02 -0.200925794E+01  0.140438600E+01
   H  0.264986301E+02 -0.239239398E+00 -0.237506915E+01
     4
 # iter = 54000  time[fs]=54.00000
   C -0.526291814E+01  0.157954106E+00  0.862922171E-01
   C  0.503270098E+01 -0.769245931E-02  0.124079495E+00
   H -0.273255894E+02 -0.203821850E+01  0.142518764E+01
   H  0.268891232E+02 -0.242389644E+00 -0.241070303E+01
     4
 # iter = 54500  time[fs]=54.50000
   C -0.534658188E+01  0.160864668E+00  0.872006530E-01
   C  0.511213836E+01 -0.773470072E-02  0.126141730E+00
   H -0.277202243E+02 -0.206719659E+01  0.144600072E+01
   H  0.272798668E+02 -0.245542163E+00 -0.244636326E+01
     4
 # iter = 55000  time[fs]=55.00000
   C -0.543035586E+01  0.163778108E+00  0.881084296E-01
   C  0.519168311E+01 -0.777821644E-02  0.128205832E+00
   H -0.281150681E+02 -0.209619174E+01  0.146682494E+01
   H  0.276708538E+02 -0.248696891E+00 -0.248204910E+01
     4
 # iter = 55500  time[fs]=55.50000
   C -0.551423670E+01  0.166694347E+00  0.890155595E-01
   C  0.527133194E+01 -0.782296985E-02  0.130271755E+00
   H -0.285101152E+02 -0.212520346E+01  0.148765998E+01
   H  0.280620776E+02 -0.251853764E+00 -0.251775986E+01
     4
 # iter = 56000  time[fs]=56.00000
   C -0.559822115E+01  0.169613307E+00  0.899220550E-01
   C  0.535108166E+01 -0.786892586E-02  0.132339454E+00
   H -0.289053599E+02 -0.215423132E+01  0.150850556E+01
   H  0.284535316E+02 -0.255012723E+00 -0.255349488E+01
     4
 # iter = 56500  time[fs]=56.50000
   C -0.568230613E+01  0.172534913E+00  0.908279285E-01
   C  0.543092928E+01 -0.791605078E-02  0.134408888E+00
   H -0.293007969E+02 -0.218327489E+01  0.152936141E+01
   H  0.288452095E+02 -0.258173710E+00 -0.258925350E+01
     4
 # iter = 57000  time[fs]=57.00000
   C -0.576648867E+01  0.175459094E+00  0.917331919E-01
   C  0.551087188E+01 -0.796431226E-02  0.136480016E+00
   H -0.296964211E+02 -0.221233374E+01  0.155022724E+01
   H  0.292371055E+02 -0.261336669E+00 -0.262503511E+01
     4
 # iter = 57500  time[fs]=57.50000
   C -0.585076594E+01  0.178385781E+00  0.926378567E-01
   C  0.559090671E+01 -0.801367923E-02  0.138552797E+00
   H -0.300922276E+02 -0.224140748E+01  0.157110280E+01
   H  0.296292137E+02 -0.264501547E+00 -0.266083911E+01
     4
 # iter = 58000  time[fs]=58.00000
   C -0.593513520E+01  0.181314909E+00  0.935419345E-01
   C  0.567103111E+01 -0.806412184E-02  0.140627193E+00
   H -0.304882117E+02 -0.227049573E+01  0.159198785E+01
   H  0.300215286E+02 -0.267668293E+00 -0.269666494E+01
     4
 # iter = 58500  time[fs]=58.50000
   C -0.601959386E+01  0.184246413E+00  0.944454363E-01
   C  0.575124254E+01 -0.811561138E-02  0.142703167E+00
   H -0.308843687E+02 -0.229959812E+01  0.161288215E+01
   H  0.304140450E+02 -0.270836858E+00 -0.273251204E+01
     4
 # iter = 59000  time[fs]=59.00000
   C -0.610413941E+01  0.187180234E+00  0.953483730E-01
   C  0.583153855E+01 -0.816812025E-02  0.144780684E+00
   H -0.312806944E+02 -0.232871429E+01  0.163378546E+01
   H  0.308067576E+02 -0.274007196E+00 -0.276837988E+01
     4
 # iter = 59500  time[fs]=59.50000
   C -0.618876946E+01  0.190116311E+00  0.962507554E-01
   C  0.591191681E+01 -0.822162186E-02  0.146859708E+00
   H -0.316771844E+02 -0.235784391E+01  0.165469756E+01
   H  0.311996617E+02 -0.277179259E+00 -0.280426794E+01
     4
 # iter = 60000  time[fs]=60.00000
   C -0.627348170E+01  0.193054588E+00  0.971525937E-01
   C  0.599237508E+01 -0.827609065E-02  0.148940206E+00
   H -0.320738348E+02 -0.238698664E+01  0.167561824E+01
   H  0.315927523E+02 -0.280353006E+00 -0.284017575E+01
     4
 # iter = 60500  time[fs]=60.50000
   C -0.635827392E+01  0.195995011E+00  0.980538982E-01
   C  0.607291118E+01 -0.833150198E-02  0.151022145E+00
   H -0.324706416E+02 -0.241614217E+01  0.169654730E+01
   H  0.319860250E+02 -0.283528393E+00 -0.287610282E+01
     4
 # iter = 61000  time[fs]=61.00000
   C -0.644314399E+01  0.198937528E+00  0.989546787E-01
   C  0.615352305E+01 -0.838783212E-02  0.153105494E+00
   H -0.328676011E+02 -0.244531019E+01  0.171748453E+01
   H  0.323794754E+02 -0.286705380E+00 -0.291204869E+01
     4
 # iter = 61500  time[fs]=61.50000
   C -0.652808987E+01  0.201882086E+00  0.998549450E-01
   C  0.623420870E+01 -0.844505820E-02  0.155190222E+00
   H -0.332647096E+02 -0.247449041E+01  0.173842974E+01
   H  0.327730992E+02 -0.289883928E+00 -0.294801293E+01
     4
 # iter = 62000  time[fs]=62.00000
   C -0.661310958E+01  0.204828638E+00  0.100754707E+00
   C  0.631496620E+01 -0.850315815E-02  0.157276300E+00
   H -0.336619635E+02 -0.250368254E+01  0.175938275E+01
   H  0.331668923E+02 -0.293063999E+00 -0.298399510E+01
     4
 # iter = 62500  time[fs]=62.50000
   C -0.669820124E+01  0.207777137E+00  0.101653972E+00
   C  0.639579370E+01 -0.856211070E-02  0.159363699E+00
   H -0.340593596E+02 -0.253288630E+01  0.178034338E+01
   H  0.335608507E+02 -0.296245558E+00 -0.301999480E+01
     4
 # iter = 63000  time[fs]=63.00000
   C -0.678336302E+01  0.210727536E+00  0.102552752E+00
   C  0.647668944E+01 -0.862189533E-02  0.161452391E+00
   H -0.344568945E+02 -0.256210144E+01  0.180131146E+01
   H  0.339549707E+02 -0.299428568E+00 -0.305601162E+01
     4
 # iter = 63500  time[fs]=63.50000
   C -0.686859317E+01  0.213679792E+00  0.103451053E+00
   C  0.655765169E+01 -0.868249220E-02  0.163542349E+00
   H -0.348545650E+02 -0.259132769E+01  0.182228681E+01
   H  0.343492485E+02 -0.302612997E+00 -0.309204519E+01
     4
 # iter = 64000  time[fs]=64.00000
   C -0.695388998E+01  0.216633862E+00  0.104348886E+00
   C  0.663867880E+01 -0.874388218E-02  0.165633548E+00
   H -0.352523682E+02 -0.262056481E+01  0.184326929E+01
   H  0.347436806E+02 -0.305798811E+00 -0.312809512E+01
     4
 # iter = 64500  time[fs]=64.50000
   C -0.703925184E+01  0.219589704E+00  0.105246257E+00
   C  0.671976920E+01 -0.880604678E-02  0.167725961E+00
   H -0.356503010E+02 -0.264981256E+01  0.186425872E+01
   H  0.351382634E+02 -0.308985979E+00 -0.316416107E+01
     4
 # iter = 65000  time[fs]=65.00000
   C -0.712467716E+01  0.222547280E+00  0.106143176E+00
   C  0.680092133E+01 -0.886896813E-02  0.169819565E+00
   H -0.360483606E+02 -0.267907070E+01  0.188525497E+01
   H  0.355329938E+02 -0.312174470E+00 -0.320024267E+01
     4
 # iter = 65500  time[fs]=65.50000
   C -0.721016442E+01  0.225506551E+00  0.107039651E+00
   C  0.688213372E+01 -0.893262896E-02  0.171914335E+00
   H -0.364465442E+02 -0.270833901E+01  0.190625787E+01
   H  0.359278684E+02 -0.315364254E+00 -0.323633960E+01
     4
 # iter = 66000  time[fs]=66.00000
   C -0.729571216E+01  0.228467480E+00  0.107935689E+00
   C  0.696340494E+01 -0.899701256E-02  0.174010248E+00
   H -0.368448491E+02 -0.273761727E+01  0.192726731E+01
   H  0.363228841E+02 -0.318555304E+00 -0.327245153E+01
     4
 # iter = 66500  time[fs]=66.50000
   C -0.738131897E+01  0.231430030E+00  0.108831297E+00
   C  0.704473362E+01 -0.906210278E-02  0.176107282E+00
   H -0.372432728E+02 -0.276690527E+01  0.194828312E+01
   H  0.367180379E+02 -0.321747592E+00 -0.330857814E+01
     4
 # iter = 67000  time[fs]=67.00000
   C -0.746698347E+01  0.234394166E+00  0.109726484E+00
   C  0.712611841E+01 -0.912788398E-02  0.178205414E+00
   H -0.376418128E+02 -0.279620281E+01  0.196930519E+01
   H  0.371133269E+02 -0.324941090E+00 -0.334471913E+01
     4
 # iter = 67500  time[fs]=67.50000
   C -0.755270435E+01  0.237359855E+00  0.110621256E+00
   C  0.720755803E+01 -0.919434101E-02  0.180304624E+00
   H -0.380404665E+02 -0.282550969E+01  0.199033338E+01
   H  0.375087483E+02 -0.328135773E+00 -0.338087420E+01
     4
 # iter = 68000  time[fs]=68.00000
   C -0.763848032E+01  0.240327065E+00  0.111515621E+00
   C  0.728905124E+01 -0.926145924E-02  0.182404891E+00
   H -0.384392317E+02 -0.285482572E+01  0.201136757E+01
   H  0.379042992E+02 -0.331331616E+00 -0.341704305E+01
     4
 # iter = 68500  time[fs]=68.50000
   C -0.772431016E+01  0.243295763E+00  0.112409585E+00
   C  0.737059683E+01 -0.932922445E-02  0.184506195E+00
   H -0.388381061E+02 -0.288415071E+01  0.203240763E+01
   H  0.382999770E+02 -0.334528594E+00 -0.345322542E+01
     4
 # iter = 69000  time[fs]=69.00000
   C -0.781019266E+01  0.246265919E+00  0.113303156E+00
   C  0.745219363E+01 -0.939762289E-02  0.186608515E+00
   H -0.392370873E+02 -0.291348448E+01  0.205345345E+01
   H  0.386957792E+02 -0.337726685E+00 -0.348942103E+01
     4
 # iter = 69500  time[fs]=69.50000
   C -0.789612666E+01  0.249237503E+00  0.114196339E+00
   C  0.753384052E+01 -0.946664123E-02  0.188711834E+00
   H -0.396361734E+02 -0.294282686E+01  0.207450492E+01
   H  0.390917032E+02 -0.340925864E+00 -0.352562962E+01
     4
 # iter = 70000  time[fs]=70.00000
   C -0.798211106E+01  0.252210485E+00  0.115089142E+00
   C  0.761553641E+01 -0.953626656E-02  0.190816133E+00
   H -0.400353622E+02 -0.297217768E+01  0.209556193E+01
   H  0.394877465E+02 -0.344126110E+00 -0.356185093E+01
     4
 # iter = 70500  time[fs]=70.50000
   C -0.806814476E+01  0.255184839E+00  0.115981570E+00
   C  0.769728025E+01 -0.960648632E-02  0.192921393E+00
   H -0.404346517E+02 -0.300153676E+01  0.211662436E+01
   H  0.398839069E+02 -0.347327402E+00 -0.359808471E+01
     4
 # iter = 71000  time[fs]=71.00000
   C -0.815422672E+01  0.258160536E+00  0.116873631E+00
   C  0.777907100E+01 -0.967728837E-02  0.195027598E+00
   H -0.408340399E+02 -0.303090396E+01  0.213769211E+01
   H  0.402801821E+02 -0.350529719E+00 -0.363433073E+01
     4
 # iter = 71500  time[fs]=71.50000
   C -0.824035591E+01  0.261137550E+00  0.117765329E+00
   C  0.786090768E+01 -0.974866091E-02  0.197134730E+00
   H -0.412335248E+02 -0.306027912E+01  0.215876508E+01
   H  0.406765697E+02 -0.353733040E+00 -0.367058875E+01
     4
 # iter = 72000  time[fs]=72.00000
   C -0.832653135E+01  0.264115856E+00  0.118656671E+00
   C  0.794278933E+01 -0.982059249E-02  0.199242772E+00
   H -0.416331048E+02 -0.308966208E+01  0.217984318E+01
   H  0.410730677E+02 -0.356937345E+00 -0.370685855E+01
     4
 # iter = 72500  time[fs]=72.50000
   C -0.841275209E+01  0.267095429E+00  0.119547662E+00
   C  0.802471501E+01 -0.989307199E-02  0.201351709E+00
   H -0.420327778E+02 -0.311905270E+01  0.220092630E+01
   H  0.414696740E+02 -0.360142617E+00 -0.374313990E+01
     4
 # iter = 73000  time[fs]=73.00000
   C -0.849901719E+01  0.270076244E+00  0.120438309E+00
   C  0.810668382E+01 -0.996608861E-02  0.203461524E+00
   H -0.424325423E+02 -0.314845084E+01  0.222201435E+01
   H  0.418663864E+02 -0.363348835E+00 -0.377943258E+01
     4
 # iter = 73500  time[fs]=73.50000
   C -0.858532576E+01  0.273058278E+00  0.121328616E+00
   C  0.818869489E+01 -0.100396319E-01  0.205572203E+00
   H -0.428323965E+02 -0.317785635E+01  0.224310724E+01
   H  0.422632031E+02 -0.366555983E+00 -0.381573640E+01
     4
 # iter = 74000  time[fs]=74.00000
   C -0.867167692E+01  0.276041508E+00  0.122218589E+00
   C  0.827074736E+01 -0.101136916E-01  0.207683731E+00
   H -0.432323386E+02 -0.320726911E+01  0.226420489E+01
   H  0.426601220E+02 -0.369764042E+00 -0.385205114E+01
     4
 # iter = 74500  time[fs]=74.50000
   C -0.875806982E+01  0.279025911E+00  0.123108233E+00
   C  0.835284041E+01 -0.101882579E-01  0.209796092E+00
   H -0.436323672E+02 -0.323668897E+01  0.228530721E+01
   H  0.430571414E+02 -0.372972996E+00 -0.388837662E+01
     4
 # iter = 75000  time[fs]=75.00000
   C -0.884450365E+01  0.282011466E+00  0.123997554E+00
   C  0.843497324E+01 -0.102633211E-01  0.211909273E+00
   H -0.440324807E+02 -0.326611582E+01  0.230641411E+01
   H  0.434542593E+02 -0.376182828E+00 -0.392471263E+01
     4
 # iter = 75500  time[fs]=75.50000
   C -0.893097760E+01  0.284998153E+00  0.124886556E+00
   C  0.851714507E+01 -0.103388718E-01  0.214023259E+00
   H -0.444326775E+02 -0.329554953E+01  0.232752552E+01
   H  0.438514741E+02 -0.379393522E+00 -0.396105898E+01
     4
 # iter = 76000  time[fs]=76.00000
   C -0.901749089E+01  0.287985949E+00  0.125775244E+00
   C  0.859935515E+01 -0.104149011E-01  0.216138038E+00
   H -0.448329561E+02 -0.332498997E+01  0.234864135E+01
   H  0.442487839E+02 -0.382605062E+00 -0.399741551E+01
     4
 # iter = 76500  time[fs]=76.50000
   C -0.910404278E+01  0.290974836E+00  0.126663624E+00
   C  0.868160273E+01 -0.104913999E-01  0.218253597E+00
   H -0.452333151E+02 -0.335443704E+01  0.236976152E+01
   H  0.446461871E+02 -0.385817433E+00 -0.403378203E+01
     4
 # iter = 77000  time[fs]=77.00000
   C -0.919063253E+01  0.293964794E+00  0.127551699E+00
   C  0.876388711E+01 -0.105683597E-01  0.220369921E+00
   H -0.456337531E+02 -0.338389060E+01  0.239088597E+01
   H  0.450436820E+02 -0.389030620E+00 -0.407015836E+01
     4
 # iter = 77500  time[fs]=77.50000
   C -0.927725942E+01  0.296955805E+00  0.128439474E+00
   C  0.884620758E+01 -0.106457722E-01  0.222486999E+00
   H -0.460342687E+02 -0.341335056E+01  0.241201462E+01
   H  0.454412671E+02 -0.392244609E+00 -0.410654434E+01
     4
 # iter = 78000  time[fs]=78.00000
   C -0.936392276E+01  0.299947849E+00  0.129326955E+00
   C  0.892856349E+01 -0.107236291E-01  0.224604819E+00
   H -0.464348606E+02 -0.344281680E+01  0.243314739E+01
   H  0.458389408E+02 -0.395459385E+00 -0.414293980E+01
     4
 # iter = 78500  time[fs]=78.50000
   C -0.945062188E+01  0.302940908E+00  0.130214145E+00
   C  0.901095416E+01 -0.108019225E-01  0.226723368E+00
   H -0.468355274E+02 -0.347228922E+01  0.245428422E+01
   H  0.462367015E+02 -0.398674936E+00 -0.417934459E+01
     4
 # iter = 79000  time[fs]=79.00000
   C -0.953735612E+01  0.305934966E+00  0.131101048E+00
   C  0.909337896E+01 -0.108806446E-01  0.228842635E+00
   H -0.472362680E+02 -0.350176771E+01  0.247542504E+01
   H  0.466345479E+02 -0.401891247E+00 -0.421575854E+01
     4
 # iter = 79500  time[fs]=79.50000
   C -0.962412484E+01  0.308930005E+00  0.131987669E+00
   C  0.917583727E+01 -0.109597880E-01  0.230962609E+00
   H -0.476370810E+02 -0.353125218E+01  0.249656978E+01
   H  0.470324783E+02 -0.405108305E+00 -0.425218151E+01
     4
 # iter = 80000  time[fs]=80.00000
   C -0.971092742E+01  0.311926008E+00  0.132874012E+00
   C  0.925832848E+01 -0.110393453E-01  0.233083278E+00
   H -0.480379652E+02 -0.356074251E+01  0.251771838E+01
   H  0.474304916E+02 -0.408326099E+00 -0.428861335E+01
