     4
 # iter = 25000  time[fs]=25.00000
   C -0.978241315E+00  0.118907270E-02 -0.534072506E-01
   C  0.100374680E+01 -0.237296421E-01  0.322434315E-01
   H -0.518720546E+01  0.597596448E+00  0.704028305E+00
   H  0.528277462E+01 -0.598165695E+00 -0.710861079E+00
     4
 # iter = 25500  time[fs]=25.50000
   C -0.102585574E+01 -0.246162043E-02 -0.584742961E-01
   C  0.104678504E+01 -0.235040799E-01  0.338385608E-01
   H -0.552279700E+01  0.625707235E+00  0.741869307E+00
   H  0.558757718E+01 -0.641739384E+00 -0.765071979E+00
     4
 # iter = 26000  time[fs]=26.00000
   C -0.107857641E+01 -0.688544851E-02 -0.645579983E-01
   C  0.109297806E+01 -0.244606434E-01  0.344952739E-01
   H -0.586643520E+01  0.648745630E+00  0.774711739E+00
   H  0.588958327E+01 -0.691038226E+00 -0.825084104E+00
     4
 # iter = 26500  time[fs]=26.50000
   C -0.113362474E+01 -0.969435838E-02 -0.692445286E-01
   C  0.114536504E+01 -0.231665491E-01  0.376206573E-01
   H -0.620173311E+01  0.682758861E+00  0.818595109E+00
   H  0.620461829E+01 -0.729933994E+00 -0.874762453E+00
     4
 # iter = 27000  time[fs]=27.00000
   C -0.119052267E+01 -0.107793260E-01 -0.724014674E-01
   C  0.120375482E+01 -0.194426840E-01  0.433704555E-01
   H -0.652764703E+01  0.728511308E+00  0.874277463E+00
   H  0.653324263E+01 -0.757601977E+00 -0.913276305E+00
     4
 # iter = 27500  time[fs]=27.50000
   C -0.125072049E+01 -0.119335479E-01 -0.758010002E-01
   C  0.126526748E+01 -0.158260982E-01  0.491865969E-01
   H -0.685593933E+01  0.774008931E+00  0.929759511E+00
   H  0.686327351E+01 -0.785992607E+00 -0.952570715E+00
     4
 # iter = 28000  time[fs]=28.00000
   C -0.131517604E+01 -0.144262628E-01 -0.806937712E-01
   C  0.132779704E+01 -0.141114332E-01  0.532558341E-01
   H -0.719490078E+01  0.810761632E+00  0.976546609E+00
   H  0.718605935E+01 -0.823557471E+00 -0.100109258E+01
     4
 # iter = 28500  time[fs]=28.50000
   C -0.138310469E+01 -0.177515611E-01 -0.865575641E-01
   C  0.139179641E+01 -0.135665869E-01  0.562939656E-01
   H -0.754095254E+01  0.842172311E+00  0.101803759E+01
   H  0.750487266E+01 -0.866853850E+00 -0.105539517E+01
     4
 # iter = 29000  time[fs]=29.00000
   C -0.145300858E+01 -0.206605559E-01 -0.921291945E-01
   C  0.145880423E+01 -0.124032620E-01  0.600750005E-01
   H -0.788556154E+01  0.876619083E+00  0.106260696E+01
   H  0.782798254E+01 -0.907465697E+00 -0.110705892E+01
     4
 # iter = 29500  time[fs]=29.50000
   C -0.152423435E+01 -0.227230716E-01 -0.969659092E-01
   C  0.152921571E+01 -0.100027191E-01  0.652051020E-01
   H -0.822570874E+01  0.916986319E+00  0.111313591E+01
   H  0.815817377E+01 -0.942478103E+00 -0.115316578E+01
     4
 # iter = 30000  time[fs]=30.00000
   C -0.159718984E+01 -0.245468818E-01 -0.101664404E+00
   C  0.160196796E+01 -0.722783751E-02  0.708103051E-01
   H -0.856535539E+01  0.959195806E+00  0.116554345E+01
   H  0.849127456E+01 -0.975946362E+00 -0.119776815E+01
     4
 # iter = 30500  time[fs]=30.50000
   C -0.167237392E+01 -0.268092397E-01 -0.106892194E+00
   C  0.167591946E+01 -0.504183533E-02  0.759176417E-01
   H -0.890894430E+01  0.998701589E+00  0.121528117E+01
   H  0.882265488E+01 -0.101239669E+01 -0.124538966E+01
     4
 # iter = 31000  time[fs]=31.00000
   C -0.174963807E+01 -0.295201847E-01 -0.112650763E+00
   C  0.175089882E+01 -0.345751008E-02  0.805057514E-01
   H -0.925645629E+01  0.103543060E+01  0.126227377E+01
   H  0.915216966E+01 -0.105188219E+01 -0.129608110E+01
     4
 # iter = 31500  time[fs]=31.50000
   C -0.182840046E+01 -0.322389106E-01 -0.118491775E+00
   C  0.182739426E+01 -0.184554587E-02  0.851964164E-01
   H -0.960485923E+01  0.107233205E+01  0.130946844E+01
   H  0.948270594E+01 -0.109143399E+01 -0.134687150E+01
     4
 # iter = 32000  time[fs]=32.00000
   C -0.190826183E+01 -0.346919849E-01 -0.124135151E+00
   C  0.190566988E+01  0.184083140E-03  0.903730076E-01
   H -0.995225292E+01  0.111123185E+01  0.135868924E+01
   H  0.981603324E+01 -0.112920903E+01 -0.139591589E+01
     4
 # iter = 32500  time[fs]=32.50000
   C -0.198922531E+01 -0.369950975E-01 -0.129690688E+00
   C  0.198544783E+01  0.246605144E-02  0.958643008E-01
   H -0.102993550E+02  0.115134584E+01  0.140915037E+01
   H  0.101513147E+02 -0.116597745E+01 -0.144398267E+01
     4
 # iter = 33000  time[fs]=33.00000
   C -0.207142871E+01 -0.393868858E-01 -0.135391793E+00
   C  0.206628637E+01  0.465940697E-02  0.101324105E+00
   H -0.106477141E+02  0.119106525E+01  0.145924154E+01
   H  0.104868933E+02 -0.120333590E+01 -0.149266688E+01
     4
 # iter = 33500  time[fs]=33.50000
   C -0.215485130E+01 -0.419369233E-01 -0.141303388E+00
   C  0.214799518E+01  0.666410899E-02  0.106647719E+00
   H -0.109977509E+02  0.122991528E+01  0.150848658E+01
   H  0.108222510E+02 -0.124174757E+01 -0.154243025E+01
     4
 # iter = 34000  time[fs]=34.00000
   C -0.223930959E+01 -0.445428315E-01 -0.147318944E+00
   C  0.223063825E+01  0.862520351E-02  0.111976033E+00
   H -0.113487371E+02  0.126857456E+01  0.155756287E+01
   H  0.111580276E+02 -0.128052261E+01 -0.159258157E+01
     4
 # iter = 34500  time[fs]=34.50000
   C -0.232463048E+01 -0.471044598E-01 -0.153334601E+00
   C  0.231428441E+01  0.106844540E-01  0.117447094E+00
   H -0.116999638E+02  0.130770692E+01  0.160713306E+01
   H  0.114948519E+02 -0.131898690E+01 -0.164244548E+01
     4
 # iter = 35000  time[fs]=35.00000
   C -0.241074928E+01 -0.496229337E-01 -0.159348157E+00
   C  0.239886513E+01  0.128391183E-01  0.123054824E+00
   H -0.120514049E+02  0.134729718E+01  0.165718089E+01
   H  0.118326761E+02 -0.135714659E+01 -0.169202697E+01
     4
 # iter = 35500  time[fs]=35.50000
   C -0.249766293E+01 -0.521547249E-01 -0.165413088E+00
   C  0.248423923E+01  0.150074901E-01  0.128714517E+00
   H -0.124034088E+02  0.138695921E+01  0.170731925E+01
   H  0.121710837E+02 -0.139537972E+01 -0.174170303E+01
     4
 # iter = 36000  time[fs]=36.00000
   C -0.258534804E+01 -0.547303321E-01 -0.171557197E+00
   C  0.257030821E+01  0.171449021E-01  0.134378801E+00
   H -0.127561524E+02  0.142648142E+01  0.175733565E+01
   H  0.125098354E+02 -0.143389037E+01 -0.179167672E+01
     4
 # iter = 36500  time[fs]=36.50000
   C -0.267374162E+01 -0.573356913E-01 -0.177763980E+00
   C  0.265704207E+01  0.192702552E-01  0.140064132E+00
   H -0.131095161E+02  0.146595148E+01  0.180731688E+01
   H  0.128489935E+02 -0.147258377E+01 -0.184185236E+01
     4
 # iter = 37000  time[fs]=37.00000
   C -0.276277488E+01 -0.599464958E-01 -0.184006921E+00
   C  0.274442992E+01  0.214170777E-01  0.145801823E+00
   H -0.134633138E+02  0.150552604E+01  0.185741882E+01
   H  0.131886914E+02 -0.151129664E+01 -0.189206581E+01
     4
 # iter = 37500  time[fs]=37.50000
   C -0.285240091E+01 -0.625563939E-01 -0.190277661E+00
   C  0.283243918E+01  0.235933153E-01  0.151597807E+00
   H -0.138174817E+02  0.154524166E+01  0.190767729E+01
   H  0.135289438E+02 -0.154998638E+01 -0.194227367E+01
     4
 # iter = 38000  time[fs]=38.00000
   C -0.294259117E+01 -0.651738857E-01 -0.196582875E+00
   C  0.292101966E+01  0.257857633E-01  0.157437047E+00
   H -0.141720574E+02  0.158503555E+01  0.195802883E+01
   H  0.138696677E+02 -0.158871018E+01 -0.199253238E+01
     4
 # iter = 38500  time[fs]=38.50000
   C -0.303331903E+01 -0.678062360E-01 -0.202928161E+00
   C  0.301012609E+01  0.279830167E-01  0.163306468E+00
   H -0.145270716E+02  0.162485355E+01  0.200841861E+01
   H  0.142107902E+02 -0.162751705E+01 -0.204289023E+01
     4
 # iter = 39000  time[fs]=39.00000
   C -0.312455269E+01 -0.704527210E-01 -0.209311271E+00
   C  0.309972749E+01  0.301851038E-01  0.169204568E+00
   H -0.148825029E+02  0.166469534E+01  0.205884573E+01
   H  0.145522935E+02 -0.166640243E+01 -0.209334202E+01
     4
 # iter = 39500  time[fs]=39.50000
   C -0.321625936E+01 -0.731091046E-01 -0.215726573E+00
   C  0.318980042E+01  0.323971028E-01  0.175135025E+00
   H -0.152383073E+02  0.170458445E+01  0.210933316E+01
   H  0.148941849E+02 -0.170533826E+01 -0.214385906E+01
     4
 # iter = 40000  time[fs]=40.00000
   C -0.330841058E+01 -0.757731715E-01 -0.222170570E+00
   C  0.328032090E+01  0.346212502E-01  0.181098789E+00
   H -0.155944559E+02  0.174453111E+01  0.215989060E+01
   H  0.152364594E+02 -0.174431006E+01 -0.219442629E+01
     4
 # iter = 40500  time[fs]=40.50000
   C -0.340098258E+01 -0.784453840E-01 -0.228642546E+00
   C  0.337126321E+01  0.368560028E-01  0.187093134E+00
   H -0.159509385E+02  0.178452784E+01  0.221051006E+01
   H  0.155790954E+02 -0.178332136E+01 -0.224504669E+01
     4
 # iter = 41000  time[fs]=41.00000
   C -0.349395390E+01 -0.811266400E-01 -0.235142312E+00
   C  0.346260290E+01  0.390992363E-01  0.193114844E+00
   H -0.163077485E+02  0.182456444E+01  0.226118090E+01
   H  0.159220694E+02 -0.182237863E+01 -0.229572620E+01
     4
 # iter = 41500  time[fs]=41.50000
   C -0.358730379E+01 -0.838168685E-01 -0.241668793E+00
   C  0.355431862E+01  0.413502463E-01  0.199162207E+00
   H -0.166648741E+02  0.186463748E+01  0.231189922E+01
   H  0.162653654E+02 -0.186148184E+01 -0.234646432E+01
     4
 # iter = 42000  time[fs]=42.00000
   C -0.368101236E+01 -0.865153458E-01 -0.248220339E+00
   C  0.364639153E+01  0.436092968E-01  0.205234557E+00
   H -0.170222995E+02  0.190474807E+01  0.236266574E+01
   H  0.166089728E+02 -0.190062657E+01 -0.239725617E+01
     4
 # iter = 42500  time[fs]=42.50000
   C -0.377506122E+01 -0.892214611E-01 -0.254795478E+00
   C  0.373880400E+01  0.458765266E-01  0.211331167E+00
   H -0.173800106E+02  0.194489678E+01  0.241348064E+01
   H  0.169528813E+02 -0.193980919E+01 -0.244809767E+01
     4
 # iter = 43000  time[fs]=43.00000
   C -0.386943359E+01 -0.919349470E-01 -0.261393146E+00
   C  0.383153924E+01  0.481516189E-01  0.217450921E+00
   H -0.177379960E+02  0.198508206E+01  0.246434197E+01
   H  0.172970789E+02 -0.197902833E+01 -0.249898705E+01
     4
 # iter = 43500  time[fs]=43.50000
   C -0.396411394E+01 -0.946556660E-01 -0.268012464E+00
   C  0.392458144E+01  0.504341043E-01  0.223592603E+00
   H -0.180962458E+02  0.202530164E+01  0.251524715E+01
   H  0.176415535E+02 -0.201828352E+01 -0.254992342E+01
     4
 # iter = 44000  time[fs]=44.00000
   C -0.405908775E+01 -0.973834153E-01 -0.274652538E+00
   C  0.401791595E+01  0.527236381E-01  0.229755176E+00
   H -0.184547504E+02  0.206555387E+01  0.256619418E+01
   H  0.179862943E+02 -0.205757381E+01 -0.260090549E+01
     4
 # iter = 44500  time[fs]=44.50000
   C -0.415434137E+01 -0.100117922E+00 -0.281312453E+00
   C  0.411152922E+01  0.550200060E-01  0.235937779E+00
   H -0.188135000E+02  0.210583773E+01  0.261718171E+01
   H  0.183312915E+02 -0.209689778E+01 -0.265193148E+01
     4
 # iter = 45000  time[fs]=45.00000
   C -0.424986203E+01 -0.102858915E+00 -0.287991337E+00
   C  0.420540859E+01  0.573230170E-01  0.242139616E+00
   H -0.191724852E+02  0.214615230E+01  0.266820854E+01
   H  0.186765361E+02 -0.213625404E+01 -0.270299964E+01
     4
 # iter = 45500  time[fs]=45.50000
   C -0.434563782E+01 -0.105606164E+00 -0.294688398E+00
   C  0.429954219E+01  0.596324513E-01  0.248359905E+00
   H -0.195316976E+02  0.218649655E+01  0.271927335E+01
   H  0.190220191E+02 -0.217564141E+01 -0.275410850E+01
     4
 # iter = 46000  time[fs]=46.00000
   C -0.444165756E+01 -0.108359464E+00 -0.301402906E+00
   C  0.439391884E+01  0.619480773E-01  0.254597884E+00
   H -0.198911291E+02  0.222686938E+01  0.277037477E+01
   H  0.193677321E+02 -0.221505890E+01 -0.280525676E+01
     4
 # iter = 46500  time[fs]=46.50000
   C -0.453791080E+01 -0.111118618E+00 -0.308134170E+00
   C  0.448852809E+01  0.642696778E-01  0.260852842E+00
   H -0.202507720E+02  0.226726978E+01  0.282151154E+01
   H  0.197136672E+02 -0.225450556E+01 -0.285644316E+01
     4
 # iter = 47000  time[fs]=47.00000
   C -0.463438768E+01 -0.113883430E+00 -0.314881533E+00
   C  0.458336013E+01  0.665970554E-01  0.267124116E+00
   H -0.206106190E+02  0.230769684E+01  0.287268250E+01
   H  0.200598167E+02 -0.229398041E+01 -0.290766646E+01
     4
 # iter = 47500  time[fs]=47.50000
   C -0.473107896E+01 -0.116653710E+00 -0.321644372E+00
   C  0.467840572E+01  0.689300244E-01  0.273411083E+00
   H -0.209706633E+02  0.234814969E+01  0.292388655E+01
   H  0.204061735E+02 -0.233348253E+01 -0.295892548E+01
     4
 # iter = 48000  time[fs]=48.00000
   C -0.482797591E+01 -0.119429281E+00 -0.328422099E+00
   C  0.477365618E+01  0.712684053E-01  0.279713154E+00
   H -0.213308982E+02  0.238862751E+01  0.297512264E+01
   H  0.207527307E+02 -0.237301104E+01 -0.301021908E+01
     4
 # iter = 48500  time[fs]=48.50000
   C -0.492507033E+01 -0.122209972E+00 -0.335214161E+00
   C  0.486910331E+01  0.736120250E-01  0.286029768E+00
   H -0.216913175E+02  0.242912950E+01  0.302638976E+01
   H  0.210994818E+02 -0.241256513E+01 -0.306154620E+01
     4
 # iter = 49000  time[fs]=49.00000
   C -0.502235448E+01 -0.124995623E+00 -0.342020034E+00
   C  0.496473939E+01  0.759607175E-01  0.292360395E+00
   H -0.220519153E+02  0.246965491E+01  0.307768696E+01
   H  0.214464207E+02 -0.245214400E+01 -0.311290583E+01
     4
 # iter = 49500  time[fs]=49.50000
   C -0.511982104E+01 -0.127786077E+00 -0.348839219E+00
   C  0.506055713E+01  0.783143251E-01  0.298704533E+00
   H -0.224126859E+02  0.251020301E+01  0.312901331E+01
   H  0.217935414E+02 -0.249174691E+01 -0.316429699E+01
     4
 # iter = 50000  time[fs]=50.00000
   C -0.521746309E+01 -0.130581187E+00 -0.355671247E+00
   C  0.515654963E+01  0.806726970E-01  0.305061706E+00
   H -0.227736239E+02  0.255077311E+01  0.318036795E+01
   H  0.221408384E+02 -0.253137312E+01 -0.321571876E+01
     4
 # iter = 50500  time[fs]=50.50000
   C -0.531527411E+01 -0.133380810E+00 -0.362515669E+00
   C  0.525271037E+01  0.830356888E-01  0.311431462E+00
   H -0.231347241E+02  0.259136457E+01  0.323175003E+01
   H  0.224883062E+02 -0.257102197E+01 -0.326717023E+01
     4
 # iter = 51000  time[fs]=51.00000
   C -0.541324790E+01 -0.136184810E+00 -0.369372060E+00
   C  0.534903319E+01  0.854031622E-01  0.317813371E+00
   H -0.234959816E+02  0.263197674E+01  0.328315877E+01
   H  0.228359397E+02 -0.261069278E+01 -0.331865057E+01
     4
 # iter = 51500  time[fs]=51.50000
   C -0.551137859E+01 -0.138993057E+00 -0.376240016E+00
   C  0.544551223E+01  0.877749846E-01  0.324207026E+00
   H -0.238573918E+02  0.267260903E+01  0.333459339E+01
   H  0.231837340E+02 -0.265038494E+01 -0.337015895E+01
     4
 # iter = 52000  time[fs]=52.00000
   C -0.560966062E+01 -0.141805427E+00 -0.383119154E+00
   C  0.554214194E+01  0.901510291E-01  0.330612038E+00
   H -0.242189501E+02  0.271326086E+01  0.338605316E+01
   H  0.235316844E+02 -0.269009783E+01 -0.342169460E+01
     4
 # iter = 52500  time[fs]=52.50000
   C -0.570808871E+01 -0.144621800E+00 -0.390009108E+00
   C  0.563891706E+01  0.925311740E-01  0.337028037E+00
   H -0.245806522E+02  0.275393169E+01  0.343753739E+01
   H  0.238797864E+02 -0.272983089E+01 -0.347325676E+01
     4
 # iter = 53000  time[fs]=53.00000
   C -0.580665783E+01 -0.147442061E+00 -0.396909528E+00
   C  0.573583258E+01  0.949153024E-01  0.343454672E+00
   H -0.249424940E+02  0.279462098E+01  0.348904540E+01
   H  0.242280358E+02 -0.276958355E+01 -0.352484472E+01
     4
 # iter = 53500  time[fs]=53.50000
   C -0.590536322E+01 -0.150266101E+00 -0.403820083E+00
   C  0.583288375E+01  0.973033024E-01  0.349891605E+00
   H -0.253044716E+02  0.283532824E+01  0.354057655E+01
   H  0.245764283E+02 -0.280935529E+01 -0.357645779E+01
     4
 # iter = 54000  time[fs]=54.00000
   C -0.600420034E+01 -0.153093813E+00 -0.410740456E+00
   C  0.593006604E+01  0.996950665E-01  0.356338518E+00
   H -0.256665812E+02  0.287605296E+01  0.359213021E+01
   H  0.249249601E+02 -0.284914561E+01 -0.362809531E+01
     4
 # iter = 54500  time[fs]=54.50000
   C -0.610316485E+01 -0.155925097E+00 -0.417670344E+00
   C  0.602737513E+01  0.102090491E+00  0.362795102E+00
   H -0.260288191E+02  0.291679470E+01  0.364370580E+01
   H  0.252736274E+02 -0.288895400E+01 -0.367975664E+01
     4
 # iter = 55000  time[fs]=55.00000
   C -0.620225265E+01 -0.158759855E+00 -0.424609458E+00
   C  0.612480694E+01  0.104489478E+00  0.369261067E+00
   H -0.263911819E+02  0.295755300E+01  0.369530275E+01
   H  0.256224265E+02 -0.292878000E+01 -0.373144118E+01
     4
 # iter = 55500  time[fs]=55.50000
   C -0.630145980E+01 -0.161597994E+00 -0.431557522E+00
   C  0.622235753E+01  0.106891930E+00  0.375736131E+00
   H -0.267536663E+02  0.299832743E+01  0.374692049E+01
   H  0.259713538E+02 -0.296862316E+01 -0.378314832E+01
     4
 # iter = 56000  time[fs]=56.00000
   C -0.640078256E+01 -0.164439423E+00 -0.438514272E+00
   C  0.632002318E+01  0.109297756E+00  0.382220029E+00
   H -0.271162690E+02  0.303911757E+01  0.379855852E+01
   H  0.263204062E+02 -0.300848304E+01 -0.383487751E+01
     4
 # iter = 56500  time[fs]=56.50000
   C -0.650021734E+01 -0.167284056E+00 -0.445479453E+00
   C  0.641780031E+01  0.111706869E+00  0.388712504E+00
   H -0.274789870E+02  0.307992304E+01  0.385021631E+01
   H  0.266695803E+02 -0.304835923E+01 -0.388662820E+01
     4
 # iter = 57000  time[fs]=57.00000
   C -0.659976074E+01 -0.170131810E+00 -0.452452825E+00
   C  0.651568553E+01  0.114119183E+00  0.395213310E+00
   H -0.278418173E+02  0.312074344E+01  0.390189339E+01
   H  0.270188730E+02 -0.308825132E+01 -0.393839986E+01
     4
 # iter = 57500  time[fs]=57.50000
   C -0.669940947E+01 -0.172982604E+00 -0.459434155E+00
   C  0.661367557E+01  0.116534616E+00  0.401722212E+00
   H -0.282047570E+02  0.316157841E+01  0.395358927E+01
   H  0.273682814E+02 -0.312815892E+01 -0.399019199E+01
     4
 # iter = 58000  time[fs]=58.00000
   C -0.679916042E+01 -0.175836362E+00 -0.466423221E+00
   C  0.671176732E+01  0.118953090E+00  0.408238986E+00
   H -0.285678034E+02  0.320242760E+01  0.400530351E+01
   H  0.277178025E+02 -0.316808166E+01 -0.404200411E+01
     4
 # iter = 58500  time[fs]=58.50000
   C -0.689901058E+01 -0.178693008E+00 -0.473419809E+00
   C  0.680995779E+01  0.121374528E+00  0.414763414E+00
   H -0.289309539E+02  0.324329065E+01  0.405703566E+01
   H  0.280674336E+02 -0.320801918E+01 -0.409383574E+01
     4
 # iter = 59000  time[fs]=59.00000
   C -0.699895710E+01 -0.181552472E+00 -0.480423713E+00
   C  0.690824414E+01  0.123798858E+00  0.421295290E+00
   H -0.292942059E+02  0.328416725E+01  0.410878531E+01
   H  0.284171720E+02 -0.324797114E+01 -0.414568642E+01
     4
 # iter = 59500  time[fs]=59.50000
   C -0.709899723E+01 -0.184414684E+00 -0.487434738E+00
   C  0.700662361E+01  0.126226008E+00  0.427834413E+00
   H -0.296575570E+02  0.332505707E+01  0.416055204E+01
   H  0.287670152E+02 -0.328793718E+01 -0.419755572E+01
     4
 # iter = 60000  time[fs]=60.00000
   C -0.719912833E+01 -0.187279577E+00 -0.494452695E+00
   C  0.710509360E+01  0.128655912E+00  0.434380594E+00
   H -0.300210047E+02  0.336595981E+01  0.421233547E+01
   H  0.291169606E+02 -0.332791700E+01 -0.424944322E+01
     4
 # iter = 60500  time[fs]=60.50000
   C -0.729934787E+01 -0.190147088E+00 -0.501477401E+00
   C  0.720365158E+01  0.131088502E+00  0.440933646E+00
   H -0.303845469E+02  0.340687516E+01  0.426413521E+01
   H  0.294670059E+02 -0.336791028E+01 -0.430134850E+01
     4
 # iter = 61000  time[fs]=61.00000
   C -0.739965344E+01 -0.193017153E+00 -0.508508682E+00
   C  0.730229513E+01  0.133523716E+00  0.447493393E+00
   H -0.307481813E+02  0.344780285E+01  0.431595090E+01
   H  0.298171487E+02 -0.340791671E+01 -0.435327117E+01
     4
 # iter = 61500  time[fs]=61.50000
   C -0.750004269E+01 -0.195889714E+00 -0.515546369E+00
   C  0.740102194E+01  0.135961492E+00  0.454059665E+00
   H -0.311119057E+02  0.348874259E+01  0.436778218E+01
   H  0.301673868E+02 -0.344793601E+01 -0.440521085E+01
     4
 # iter = 62000  time[fs]=62.00000
   C -0.760051341E+01 -0.198764711E+00 -0.522590301E+00
   C  0.749982978E+01  0.138401771E+00  0.460632298E+00
   H -0.314757182E+02  0.352969412E+01  0.441962871E+01
   H  0.305177181E+02 -0.348796788E+01 -0.445716716E+01
     4
 # iter = 62500  time[fs]=62.50000
   C -0.770106342E+01 -0.201642090E+00 -0.529640322E+00
   C  0.759871650E+01  0.140844497E+00  0.467211133E+00
   H -0.318396167E+02  0.357065717E+01  0.447149016E+01
   H  0.308681404E+02 -0.352801206E+01 -0.450913976E+01
     4
 # iter = 63000  time[fs]=63.00000
   C -0.780169067E+01 -0.204521796E+00 -0.536696282E+00
   C  0.769768004E+01  0.143289613E+00  0.473796018E+00
   H -0.322035993E+02  0.361163151E+01  0.452336620E+01
   H  0.312186518E+02 -0.356806829E+01 -0.456112828E+01
     4
 # iter = 63500  time[fs]=63.50000
   C -0.790239316E+01 -0.207403776E+00 -0.543758036E+00
   C  0.779671843E+01  0.145737066E+00  0.480386806E+00
   H -0.325676642E+02  0.365261688E+01  0.457525652E+01
   H  0.315692503E+02 -0.360813630E+01 -0.461313241E+01
     4
 # iter = 64000  time[fs]=64.00000
   C -0.800316899E+01 -0.210287980E+00 -0.550825444E+00
   C  0.789582975E+01  0.148186804E+00  0.486983356E+00
   H -0.329318096E+02  0.369361305E+01  0.462716083E+01
   H  0.319199339E+02 -0.364821584E+01 -0.466515181E+01
     4
 # iter = 64500  time[fs]=64.50000
   C -0.810401629E+01 -0.213174360E+00 -0.557898371E+00
   C  0.799501217E+01  0.150638778E+00  0.493585531E+00
   H -0.332960337E+02  0.373461980E+01  0.467907883E+01
   H  0.322707010E+02 -0.368830668E+01 -0.471718616E+01
     4
 # iter = 65000  time[fs]=65.00000
   C -0.820493330E+01 -0.216062866E+00 -0.564976688E+00
   C  0.809426392E+01  0.153092938E+00  0.500193199E+00
   H -0.336603348E+02  0.377563690E+01  0.473101024E+01
   H  0.326215496E+02 -0.372840859E+01 -0.476923516E+01
     4
 # iter = 65500  time[fs]=65.50000
   C -0.830591831E+01 -0.218953455E+00 -0.572060269E+00
   C  0.819358328E+01  0.155549238E+00  0.506806233E+00
   H -0.340247113E+02  0.381666414E+01  0.478295478E+01
   H  0.329724781E+02 -0.376852134E+01 -0.482129852E+01
     4
 # iter = 66000  time[fs]=66.00000
   C -0.840696965E+01 -0.221846081E+00 -0.579148993E+00
   C  0.829296862E+01  0.158007633E+00  0.513424509E+00
   H -0.343891617E+02  0.385770131E+01  0.483491220E+01
   H  0.333234849E+02 -0.380864470E+01 -0.487337595E+01
     4
 # iter = 66500  time[fs]=66.50000
   C -0.850808574E+01 -0.224740701E+00 -0.586242743E+00
   C  0.839241835E+01  0.160468077E+00  0.520047910E+00
   H -0.347536844E+02  0.389874822E+01  0.488688222E+01
   H  0.336745683E+02 -0.384877847E+01 -0.492546716E+01
     4
 # iter = 67000  time[fs]=67.00000
   C -0.860926504E+01 -0.227637273E+00 -0.593341405E+00
   C  0.849193093E+01  0.162930530E+00  0.526676319E+00
   H -0.351182779E+02  0.393980467E+01  0.493886461E+01
   H  0.340257267E+02 -0.388892244E+01 -0.497757190E+01
     4
 # iter = 67500  time[fs]=67.50000
   C -0.871050606E+01 -0.230535757E+00 -0.600444870E+00
   C  0.859150489E+01  0.165394948E+00  0.533309626E+00
   H -0.354829408E+02  0.398087046E+01  0.499085912E+01
   H  0.343769586E+02 -0.392907641E+01 -0.502968989E+01
     4
 # iter = 68000  time[fs]=68.00000
   C -0.881180737E+01 -0.233436114E+00 -0.607553032E+00
   C  0.869113880E+01  0.167861292E+00  0.539947722E+00
   H -0.358476717E+02  0.402194543E+01  0.504286551E+01
   H  0.347282626E+02 -0.396924019E+01 -0.508182088E+01
     4
 # iter = 68500  time[fs]=68.50000
   C -0.891316758E+01 -0.236338306E+00 -0.614665789E+00
   C  0.879083128E+01  0.170329524E+00  0.546590506E+00
   H -0.362124693E+02  0.406302938E+01  0.509488356E+01
   H  0.350796373E+02 -0.400941358E+01 -0.513396463E+01
     4
 # iter = 69000  time[fs]=69.00000
   C -0.901458535E+01 -0.239242295E+00 -0.621783041E+00
   C  0.889058099E+01  0.172799604E+00  0.553237874E+00
   H -0.365773322E+02  0.410412215E+01  0.514691304E+01
   H  0.354310812E+02 -0.404959641E+01 -0.518612088E+01
     4
 # iter = 69500  time[fs]=69.50000
   C -0.911605940E+01 -0.242148046E+00 -0.628904693E+00
   C  0.899038665E+01  0.175271497E+00  0.559889730E+00
   H -0.369422591E+02  0.414522356E+01  0.519895373E+01
   H  0.357825931E+02 -0.408978850E+01 -0.523828942E+01
     4
 # iter = 70000  time[fs]=70.00000
   C -0.921758846E+01 -0.245055523E+00 -0.636030651E+00
   C  0.909024701E+01  0.177745166E+00  0.566545980E+00
   H -0.373072488E+02  0.418633347E+01  0.525100543E+01
   H  0.361341715E+02 -0.412998967E+01 -0.529047001E+01
     4
 # iter = 70500  time[fs]=70.50000
   C -0.931917132E+01 -0.247964694E+00 -0.643160825E+00
   C  0.919016086E+01  0.180220578E+00  0.573206531E+00
   H -0.376723002E+02  0.422745170E+01  0.530306794E+01
   H  0.364858153E+02 -0.417019975E+01 -0.534266242E+01
     4
 # iter = 71000  time[fs]=71.00000
   C -0.942080681E+01 -0.250875525E+00 -0.650295128E+00
   C  0.929012704E+01  0.182697698E+00  0.579871296E+00
   H -0.380374120E+02  0.426857810E+01  0.535514105E+01
   H  0.368375232E+02 -0.421041859E+01 -0.539486645E+01
     4
 # iter = 71500  time[fs]=71.50000
   C -0.952249380E+01 -0.253787985E+00 -0.657433475E+00
   C  0.939014442E+01  0.185176494E+00  0.586540187E+00
   H -0.384025831E+02  0.430971252E+01  0.540722458E+01
   H  0.371892940E+02 -0.425064601E+01 -0.544708189E+01
     4
 # iter = 72000  time[fs]=72.00000
   C -0.962423119E+01 -0.256702042E+00 -0.664575784E+00
   C  0.949021189E+01  0.187656934E+00  0.593213122E+00
   H -0.387678124E+02  0.435085483E+01  0.545931832E+01
   H  0.375411265E+02 -0.429088188E+01 -0.549930852E+01
     4
 # iter = 72500  time[fs]=72.50000
   C -0.972601790E+01 -0.259617666E+00 -0.671721976E+00
   C  0.959032840E+01  0.190138987E+00  0.599890019E+00
   H -0.391330989E+02  0.439200487E+01  0.551142211E+01
   H  0.378930197E+02 -0.433112603E+01 -0.555154616E+01
     4
 # iter = 73000  time[fs]=73.00000
   C -0.982785291E+01 -0.262534829E+00 -0.678871972E+00
   C  0.969049293E+01  0.192622623E+00  0.606570800E+00
   H -0.394984414E+02  0.443316250E+01  0.556353577E+01
   H  0.382449723E+02 -0.437137832E+01 -0.560379461E+01
     4
 # iter = 73500  time[fs]=73.50000
   C -0.992973522E+01 -0.265453500E+00 -0.686025698E+00
   C  0.979070447E+01  0.195107814E+00  0.613255388E+00
   H -0.398638390E+02  0.447432760E+01  0.561565911E+01
   H  0.385969834E+02 -0.441163861E+01 -0.565605369E+01
     4
 # iter = 74000  time[fs]=74.00000
   C -0.100316639E+02 -0.268373654E+00 -0.693183082E+00
   C  0.989096206E+01  0.197594529E+00  0.619943710E+00
   H -0.402292907E+02  0.451550003E+01  0.566779197E+01
   H  0.389490519E+02 -0.445190675E+01 -0.570832320E+01
     4
 # iter = 74500  time[fs]=74.50000
   C -0.101336379E+02 -0.271295262E+00 -0.700344051E+00
   C  0.999126477E+01  0.200082743E+00  0.626635694E+00
   H -0.405947955E+02  0.455667967E+01  0.571993420E+01
   H  0.393011768E+02 -0.449218262E+01 -0.576060297E+01
     4
 # iter = 75000  time[fs]=75.00000
   C -0.102356564E+02 -0.274218298E+00 -0.707508538E+00
   C  0.100916117E+02  0.202572428E+00  0.633331268E+00
   H -0.409603525E+02  0.459786639E+01  0.577208562E+01
   H  0.396533571E+02 -0.453246608E+01 -0.581289282E+01
     4
 # iter = 75500  time[fs]=75.50000
   C -0.103377184E+02 -0.277142738E+00 -0.714676476E+00
   C  0.101920019E+02  0.205063557E+00  0.640030367E+00
   H -0.413259608E+02  0.463906007E+01  0.582424608E+01
   H  0.400055917E+02 -0.457275700E+01 -0.586519260E+01
     4
 # iter = 76000  time[fs]=76.00000
   C -0.104398232E+02 -0.280068555E+00 -0.721847799E+00
   C  0.102924346E+02  0.207556105E+00  0.646732922E+00
   H -0.416916194E+02  0.468026059E+01  0.587641543E+01
   H  0.403578799E+02 -0.461305525E+01 -0.591750212E+01
     4
 # iter = 76500  time[fs]=76.50000
   C -0.105419699E+02 -0.282995726E+00 -0.729022445E+00
   C  0.103929089E+02  0.210050048E+00  0.653438871E+00
   H -0.420573276E+02  0.472146783E+01  0.592859352E+01
   H  0.407102206E+02 -0.465336073E+01 -0.596982123E+01
     4
 # iter = 77000  time[fs]=77.00000
   C -0.106441576E+02 -0.285924228E+00 -0.736200351E+00
   C  0.104934241E+02  0.212545361E+00  0.660148151E+00
   H -0.424230844E+02  0.476268169E+01  0.598078021E+01
   H  0.410626131E+02 -0.469367329E+01 -0.602214978E+01
     4
 # iter = 77500  time[fs]=77.50000
   C -0.107463857E+02 -0.288854036E+00 -0.743381459E+00
   C  0.105939792E+02  0.215042020E+00  0.666860700E+00
   H -0.427888891E+02  0.480390206E+01  0.603297536E+01
   H  0.414150563E+02 -0.473399283E+01 -0.607448761E+01
     4
 # iter = 78000  time[fs]=78.00000
   C -0.108486532E+02 -0.291785130E+00 -0.750565710E+00
   C  0.106945737E+02  0.217540003E+00  0.673576460E+00
   H -0.431547409E+02  0.484512883E+01  0.608517882E+01
   H  0.417675495E+02 -0.477431924E+01 -0.612683456E+01
     4
 # iter = 78500  time[fs]=78.50000
   C -0.109509595E+02 -0.294717486E+00 -0.757753048E+00
   C  0.107952067E+02  0.220039287E+00  0.680295374E+00
   H -0.435206389E+02  0.488636189E+01  0.613739047E+01
   H  0.421200918E+02 -0.481465240E+01 -0.617919050E+01
     4
 # iter = 79000  time[fs]=79.00000
   C -0.110533039E+02 -0.297651083E+00 -0.764943417E+00
   C  0.108958775E+02  0.222539851E+00  0.687017384E+00
   H -0.438865824E+02  0.492760115E+01  0.618961017E+01
   H  0.424726824E+02 -0.485499221E+01 -0.623155528E+01
     4
 # iter = 79500  time[fs]=79.50000
   C -0.111556856E+02 -0.300585902E+00 -0.772136764E+00
   C  0.109965854E+02  0.225041672E+00  0.693742438E+00
   H -0.442525706E+02  0.496884650E+01  0.624183779E+01
   H  0.428253206E+02 -0.489533856E+01 -0.628392876E+01
     4
 # iter = 80000  time[fs]=80.00000
   C -0.112581040E+02 -0.303521921E+00 -0.779333037E+00
   C  0.110973297E+02  0.227544730E+00  0.700470480E+00
   H -0.446186029E+02  0.501009785E+01  0.629407322E+01
   H  0.431780055E+02 -0.493569135E+01 -0.633631081E+01
