     4
 # iter = 25000  time[fs]=25.00000
   C -0.985962010E+00 -0.104743488E-01  0.604069799E-01
   C  0.983367896E+00  0.179985625E-01  0.337070995E-01
   H -0.529743211E+01 -0.368645419E+00 -0.121122796E+00
   H  0.533097418E+01 -0.153528093E+00 -0.760616188E-01
     4
 # iter = 25500  time[fs]=25.50000
   C -0.103171336E+01 -0.106864471E-01  0.629676931E-01
   C  0.102246303E+01  0.171508920E-01  0.335278396E-01
   H -0.564023847E+01 -0.399450118E+00 -0.138724026E+00
   H  0.564242225E+01 -0.171880993E+00 -0.899477829E-01
     4
 # iter = 26000  time[fs]=26.00000
   C -0.108117141E+01 -0.116939324E-01  0.648085295E-01
   C  0.106326360E+01  0.152064694E-01  0.321556659E-01
   H -0.599351128E+01 -0.436023290E+00 -0.161902753E+00
   H  0.595427294E+01 -0.195838876E+00 -0.109382088E+00
     4
 # iter = 26500  time[fs]=26.50000
   C -0.113178967E+01 -0.111810014E-01  0.682391660E-01
   C  0.110900095E+01  0.156202645E-01  0.330541110E-01
   H -0.634057941E+01 -0.462240719E+00 -0.174558143E+00
   H  0.628200574E+01 -0.209290371E+00 -0.118259018E+00
     4
 # iter = 27000  time[fs]=27.00000
   C -0.118323109E+01 -0.903092322E-02  0.733704772E-01
   C  0.115962877E+01  0.185568291E-01  0.363955875E-01
   H -0.668016581E+01 -0.477271879E+00 -0.175878563E+00
   H  0.662587478E+01 -0.211421400E+00 -0.115769655E+00
     4
 # iter = 27500  time[fs]=27.50000
   C -0.123700704E+01 -0.696261321E-02  0.784780346E-01
   C  0.121236834E+01  0.214340848E-01  0.396051940E-01
   H -0.702384010E+01 -0.493053426E+00 -0.177816050E+00
   H  0.697342553E+01 -0.214188585E+00 -0.113875208E+00
     4
 # iter = 28000  time[fs]=28.00000
   C -0.129414316E+01 -0.619201934E-02  0.823408521E-01
   C  0.126521076E+01  0.224242001E-01  0.408615643E-01
   H -0.737972579E+01 -0.518026465E+00 -0.188824915E+00
   H  0.731577260E+01 -0.226049119E+00 -0.121036789E+00
     4
 # iter = 28500  time[fs]=28.50000
   C -0.135397457E+01 -0.622586947E-02  0.854476785E-01
   C  0.131872305E+01  0.222594271E-01  0.409027252E-01
   H -0.774409418E+01 -0.548746765E+00 -0.205472669E+00
   H  0.765599108E+01 -0.243566766E+00 -0.133821437E+00
     4
 # iter = 29000  time[fs]=29.00000
   C -0.141513820E+01 -0.585613665E-02  0.890024696E-01
   C  0.137455817E+01  0.227429976E-01  0.415370755E-01
   H -0.810827930E+01 -0.576800772E+00 -0.219356116E+00
   H  0.800218071E+01 -0.258331924E+00 -0.143822342E+00
     4
 # iter = 29500  time[fs]=29.50000
   C -0.147707490E+01 -0.466493815E-02  0.934194085E-01
   C  0.143320027E+01  0.244956621E-01  0.433900152E-01
   H -0.846914685E+01 -0.599272811E+00 -0.227568497E+00
   H  0.835697664E+01 -0.267435034E+00 -0.148132427E+00
     4
 # iter = 30000  time[fs]=30.00000
   C -0.154023915E+01 -0.323562868E-02  0.981117736E-01
   C  0.149364737E+01  0.266395226E-01  0.455878372E-01
   H -0.883055851E+01 -0.620213086E+00 -0.234167664E+00
   H  0.871607329E+01 -0.274935588E+00 -0.150813424E+00
     4
 # iter = 30500  time[fs]=30.50000
   C -0.160516515E+01 -0.221919264E-02  0.102425537E+00
   C  0.155480854E+01  0.281960241E-01  0.471557541E-01
   H -0.919686969E+01 -0.644142748E+00 -0.243681458E+00
   H  0.907472205E+01 -0.285363405E+00 -0.156397150E+00
     4
 # iter = 31000  time[fs]=31.00000
   C -0.167175605E+01 -0.162405089E-02  0.106349543E+00
   C  0.161656645E+01  0.291494003E-01  0.480813790E-01
   H -0.956798317E+01 -0.671113145E+00 -0.256167201E+00
   H  0.943267378E+01 -0.298774984E+00 -0.164941865E+00
     4
 # iter = 31500  time[fs]=31.50000
   C -0.173949125E+01 -0.102448447E-02  0.110307052E+00
   C  0.167946402E+01  0.301344436E-01  0.490025388E-01
   H -0.994079689E+01 -0.698155931E+00 -0.268661904E+00
   H  0.979272379E+01 -0.312204668E+00 -0.173483474E+00
     4
 # iter = 32000  time[fs]=32.00000
   C -0.180802075E+01 -0.156403377E-03  0.114559935E+00
   C  0.174381116E+01  0.315441995E-01  0.503150134E-01
   H -0.103133482E+02 -0.723428017E+00 -0.279327253E+00
   H  0.101565597E+02 -0.323812323E+00 -0.180183246E+00
     4
 # iter = 32500  time[fs]=32.50000
   C -0.187737778E+01  0.868994459E-03  0.118994984E+00
   C  0.180936376E+01  0.332099447E-01  0.518525501E-01
   H -0.106862990E+02 -0.747697958E+00 -0.288936045E+00
   H  0.105232709E+02 -0.334370721E+00 -0.185815229E+00
     4
 # iter = 33000  time[fs]=33.00000
   C -0.194772143E+01  0.182182777E-02  0.123380495E+00
   C  0.187570727E+01  0.347854767E-01  0.532711810E-01
   H -0.110611483E+02 -0.772560407E+00 -0.299086728E+00
   H  0.108911337E+02 -0.345478870E+00 -0.191979593E+00
     4
 # iter = 33500  time[fs]=33.50000
   C -0.201905454E+01  0.263502876E-02  0.127647751E+00
   C  0.194267748E+01  0.361686818E-01  0.544708152E-01
   H -0.114382715E+02 -0.798477442E+00 -0.310244804E+00
   H  0.112595703E+02 -0.357602104E+00 -0.199142725E+00
     4
 # iter = 34000  time[fs]=34.00000
   C -0.209122021E+01  0.340716136E-02  0.131893821E+00
   C  0.201036415E+01  0.375057151E-01  0.555994413E-01
   H -0.118169000E+02 -0.824758979E+00 -0.321723298E+00
   H  0.116291668E+02 -0.370052548E+00 -0.206617707E+00
     4
 # iter = 34500  time[fs]=34.50000
   C -0.216406900E+01  0.423456632E-02  0.136213688E+00
   C  0.207885888E+01  0.389395608E-01  0.568017093E-01
   H -0.121962878E+02 -0.850730751E+00 -0.332850762E+00
   H  0.120005031E+02 -0.382157910E+00 -0.213733122E+00
     4
 # iter = 35000  time[fs]=35.00000
   C -0.223755379E+01  0.511591500E-02  0.140604786E+00
   C  0.214811168E+01  0.404670548E-01  0.580759726E-01
   H -0.125763754E+02 -0.876398400E+00 -0.343635397E+00
   H  0.123734868E+02 -0.393926051E+00 -0.220497632E+00
     4
 # iter = 35500  time[fs]=35.50000
   C -0.231168503E+01  0.599649477E-02  0.145011275E+00
   C  0.221799677E+01  0.420052018E-01  0.593406197E-01
   H -0.129574807E+02 -0.902139273E+00 -0.354456883E+00
   H  0.127476612E+02 -0.405736586E+00 -0.227291591E+00
     4
 # iter = 36000  time[fs]=36.00000
   C -0.238645194E+01  0.684659949E-02  0.149402417E+00
   C  0.228842959E+01  0.435085748E-01  0.605514888E-01
   H -0.133397528E+02 -0.928156913E+00 -0.365520893E+00
   H  0.131227500E+02 -0.417795028E+00 -0.234321193E+00
     4
 # iter = 36500  time[fs]=36.50000
   C -0.246180419E+01  0.767945759E-02  0.153790498E+00
   C  0.235939327E+01  0.449961529E-01  0.617287168E-01
   H -0.137230467E+02 -0.954356297E+00 -0.376734358E+00
   H  0.134987817E+02 -0.430007967E+00 -0.241493655E+00
     4
 # iter = 37000  time[fs]=37.00000
   C -0.253768465E+01  0.851815993E-02  0.158197745E+00
   C  0.243088875E+01  0.465017709E-01  0.629072003E-01
   H -0.141071530E+02 -0.980573971E+00 -0.387935619E+00
   H  0.138758584E+02 -0.442213374E+00 -0.248647529E+00
     4
 # iter = 37500  time[fs]=37.50000
   C -0.261405623E+01  0.936848743E-02  0.162629146E+00
   C  0.250289376E+01  0.480334090E-01  0.640958954E-01
   H -0.144919864E+02 -0.100676711E+01 -0.399083503E+00
   H  0.142539666E+02 -0.454369816E+00 -0.255741920E+00
     4
 # iter = 38000  time[fs]=38.00000
   C -0.269089866E+01  0.102219062E-01  0.167075438E+00
   C  0.257536708E+01  0.495776712E-01  0.652823037E-01
   H -0.148775647E+02 -0.103299267E+01 -0.410236487E+00
   H  0.146329971E+02 -0.466535589E+00 -0.262835623E+00
     4
 # iter = 38500  time[fs]=38.50000
   C -0.276819269E+01  0.110710764E-01  0.171528608E+00
   C  0.264827149E+01  0.511230079E-01  0.664557039E-01
   H -0.152639004E+02 -0.105929943E+01 -0.421444763E+00
   H  0.150128525E+02 -0.478760717E+00 -0.269979130E+00
     4
 # iter = 39000  time[fs]=39.00000
   C -0.284591342E+01  0.119163634E-01  0.175988403E+00
   C  0.272158332E+01  0.526694629E-01  0.676169042E-01
   H -0.156509554E+02 -0.108568269E+01 -0.432704935E+00
   H  0.153934929E+02 -0.491041612E+00 -0.277169286E+00
     4
 # iter = 39500  time[fs]=39.50000
   C -0.292403438E+01  0.127615255E-01  0.180458008E+00
   C  0.279528584E+01  0.542222071E-01  0.687717827E-01
   H -0.160386701E+02 -0.111211428E+01 -0.443990032E+00
   H  0.157749047E+02 -0.503351107E+00 -0.284379328E+00
     4
 # iter = 40000  time[fs]=40.00000
   C -0.300253272E+01  0.136083818E-01  0.184938713E+00
   C  0.286936104E+01  0.557835476E-01  0.699233014E-01
   H -0.164270010E+02 -0.113857961E+01 -0.455286604E+00
   H  0.161570637E+02 -0.515675579E+00 -0.291596011E+00
     4
 # iter = 40500  time[fs]=40.50000
   C -0.308138967E+01  0.144561798E-01  0.189429273E+00
   C  0.294378859E+01  0.573519753E-01  0.710705592E-01
   H -0.168159245E+02 -0.116508213E+01 -0.466599132E+00
   H  0.165399303E+02 -0.528019356E+00 -0.298824020E+00
     4
 # iter = 41000  time[fs]=41.00000
   C -0.316058827E+01  0.153037577E-01  0.193928072E+00
   C  0.301854891E+01  0.589254004E-01  0.722120309E-01
   H -0.172054217E+02 -0.119162821E+01 -0.477934972E+00
   H  0.169234645E+02 -0.540389656E+00 -0.306070903E+00
     4
 # iter = 41500  time[fs]=41.50000
   C -0.324011186E+01  0.161508975E-01  0.198434468E+00
   C  0.309362507E+01  0.605031755E-01  0.733475949E-01
   H -0.175954690E+02 -0.121821777E+01 -0.489294943E+00
   H  0.173076349E+02 -0.552787163E+00 -0.313337657E+00
     4
 # iter = 42000  time[fs]=42.00000
   C -0.331994432E+01  0.169980207E-01  0.202948487E+00
   C  0.316900227E+01  0.620856379E-01  0.744780779E-01
   H -0.179860398E+02 -0.124484634E+01 -0.500675440E+00
   H  0.176924162E+02 -0.565208141E+00 -0.320620840E+00
     4
 # iter = 42500  time[fs]=42.50000
   C -0.340007066E+01  0.178454505E-01  0.207470086E+00
   C  0.324466658E+01  0.636730004E-01  0.756041498E-01
   H -0.183771098E+02 -0.127151024E+01 -0.512073569E+00
   H  0.180777847E+02 -0.577649575E+00 -0.327917715E+00
     4
 # iter = 43000  time[fs]=43.00000
   C -0.348047719E+01  0.186931895E-01  0.211998924E+00
   C  0.332060456E+01  0.652650171E-01  0.767259914E-01
   H -0.187686581E+02 -0.129820808E+01 -0.523488694E+00
   H  0.184637157E+02 -0.590110718E+00 -0.335227791E+00
     4
 # iter = 43500  time[fs]=43.50000
   C -0.356115122E+01  0.195411251E-01  0.216534568E+00
   C  0.339680348E+01  0.668612881E-01  0.778436023E-01
   H -0.191606661E+02 -0.132493935E+01 -0.534921007E+00
   H  0.188501852E+02 -0.602591653E+00 -0.342551401E+00
     4
 # iter = 44000  time[fs]=44.00000
   C -0.364208080E+01  0.203892173E-01  0.221076679E+00
   C  0.347325151E+01  0.684615404E-01  0.789570836E-01
   H -0.195531156E+02 -0.135170311E+01 -0.546370215E+00
   H  0.192371714E+02 -0.615091989E+00 -0.349888384E+00
     4
 # iter = 44500  time[fs]=44.50000
   C -0.372325467E+01  0.212375041E-01  0.225625014E+00
   C  0.354993769E+01  0.700656328E-01  0.800666447E-01
   H -0.199459890E+02 -0.137849791E+01 -0.557835509E+00
   H  0.196246539E+02 -0.627610820E+00 -0.357238055E+00
     4
 # iter = 45000  time[fs]=45.00000
   C -0.380466223E+01  0.220860291E-01  0.230179353E+00
   C  0.362685175E+01  0.716734472E-01  0.811724969E-01
   H -0.203392698E+02 -0.140532235E+01 -0.569316061E+00
   H  0.200126140E+02 -0.640147229E+00 -0.364599704E+00
     4
 # iter = 45500  time[fs]=45.50000
   C -0.388629357E+01  0.229348072E-01  0.234739464E+00
   C  0.370398400E+01  0.732848352E-01  0.822748013E-01
   H -0.207329423E+02 -0.143217527E+01 -0.580811264E+00
   H  0.204010333E+02 -0.652700524E+00 -0.371972835E+00
     4
 # iter = 46000  time[fs]=46.00000
   C -0.396813937E+01  0.237838368E-01  0.239305113E+00
   C  0.378132531E+01  0.748996357E-01  0.833736881E-01
   H -0.211269921E+02 -0.145905567E+01 -0.592320645E+00
   H  0.207898948E+02 -0.665270153E+00 -0.379357083E+00
     4
 # iter = 46500  time[fs]=46.50000
   C -0.405019086E+01  0.246331179E-01  0.243876081E+00
   C  0.385886710E+01  0.765177007E-01  0.844692836E-01
   H -0.215214052E+02 -0.148596261E+01 -0.603843742E+00
   H  0.211791822E+02 -0.677855575E+00 -0.386752086E+00
     4
 # iter = 47000  time[fs]=47.00000
   C -0.413243977E+01  0.254826561E-01  0.248452169E+00
   C  0.393660127E+01  0.781389008E-01  0.855617170E-01
   H -0.219161687E+02 -0.151289512E+01 -0.615380069E+00
   H  0.215688801E+02 -0.690456234E+00 -0.394157455E+00
     4
 # iter = 47500  time[fs]=47.50000
   C -0.421487829E+01  0.263324580E-01  0.253033189E+00
   C  0.401452022E+01  0.797631166E-01  0.866511132E-01
   H -0.223112700E+02 -0.153985229E+01 -0.626929153E+00
   H  0.219589741E+02 -0.703071587E+00 -0.401572808E+00
     4
 # iter = 48000  time[fs]=48.00000
   C -0.429749907E+01  0.271825276E-01  0.257618961E+00
   C  0.409261674E+01  0.813902339E-01  0.877375884E-01
   H -0.227066975E+02 -0.156683328E+01 -0.638490555E+00
   H  0.223494503E+02 -0.715701130E+00 -0.408997791E+00
     4
 # iter = 48500  time[fs]=48.50000
   C -0.438029514E+01  0.280328670E-01  0.262209315E+00
   C  0.417088403E+01  0.830201426E-01  0.888212508E-01
   H -0.231024398E+02 -0.159383726E+01 -0.650063864E+00
   H  0.227402957E+02 -0.728344390E+00 -0.416432080E+00
     4
 # iter = 49000  time[fs]=49.00000
   C -0.446325992E+01  0.288834773E-01  0.266804090E+00
   C  0.424931566E+01  0.846527387E-01  0.899022028E-01
   H -0.234984864E+02 -0.162086348E+01 -0.661648692E+00
   H  0.231314978E+02 -0.741000920E+00 -0.423875364E+00
     4
 # iter = 49500  time[fs]=49.50000
   C -0.454638718E+01  0.297343597E-01  0.271403130E+00
   C  0.432790555E+01  0.862879243E-01  0.909805420E-01
   H -0.238948273E+02 -0.164791120E+01 -0.673244667E+00
   H  0.235230447E+02 -0.753670291E+00 -0.431327346E+00
     4
 # iter = 50000  time[fs]=50.00000
   C -0.462967100E+01  0.305855146E-01  0.276006290E+00
   C  0.440664791E+01  0.879256069E-01  0.920563614E-01
   H -0.242914527E+02 -0.167497973E+01 -0.684851432E+00
   H  0.239149253E+02 -0.766352094E+00 -0.438787743E+00
     4
 # iter = 50500  time[fs]=50.50000
   C -0.471310579E+01  0.314369422E-01  0.280613431E+00
   C  0.448553730E+01  0.895656990E-01  0.931297493E-01
   H -0.246883535E+02 -0.170206840E+01 -0.696468649E+00
   H  0.243071288E+02 -0.779045936E+00 -0.446256285E+00
     4
 # iter = 51000  time[fs]=51.00000
   C -0.479668624E+01  0.322886422E-01  0.285224421E+00
   C  0.456456850E+01  0.912081171E-01  0.942007895E-01
   H -0.250855211E+02 -0.172917658E+01 -0.708095993E+00
   H  0.246996449E+02 -0.791751448E+00 -0.453732714E+00
     4
 # iter = 51500  time[fs]=51.50000
   C -0.488040729E+01  0.331406137E-01  0.289839135E+00
   C  0.464373660E+01  0.928527821E-01  0.952695617E-01
   H -0.254829471E+02 -0.175630367E+01 -0.719733158E+00
   H  0.250924640E+02 -0.804468273E+00 -0.461216786E+00
     4
 # iter = 52000  time[fs]=52.00000
   C -0.496426414E+01  0.339928556E-01  0.294457452E+00
   C  0.472303691E+01  0.944996189E-01  0.963361417E-01
   H -0.258806235E+02 -0.178344909E+01 -0.731379847E+00
   H  0.254855766E+02 -0.817196072E+00 -0.468708266E+00
     4
 # iter = 52500  time[fs]=52.50000
   C -0.504825223E+01  0.348453666E-01  0.299079258E+00
   C  0.480246496E+01  0.961485560E-01  0.974006019E-01
   H -0.262785427E+02 -0.181061229E+01 -0.743035780E+00
   H  0.258789740E+02 -0.829934521E+00 -0.476206931E+00
     4
 # iter = 53000  time[fs]=53.00000
   C -0.513236722E+01  0.356981450E-01  0.303704443E+00
   C  0.488201653E+01  0.977995252E-01  0.984630112E-01
   H -0.266766976E+02 -0.183779275E+01 -0.754700687E+00
   H  0.262726476E+02 -0.842683309E+00 -0.483712567E+00
     4
 # iter = 53500  time[fs]=53.50000
   C -0.521660495E+01  0.365511889E-01  0.308332904E+00
   C  0.496168756E+01  0.994524617E-01  0.995234353E-01
   H -0.270750812E+02 -0.186498997E+01 -0.766374309E+00
   H  0.266665893E+02 -0.855442139E+00 -0.491224970E+00
     4
 # iter = 54000  time[fs]=54.00000
   C -0.530096149E+01  0.374044965E-01  0.312964541E+00
   C  0.504147421E+01  0.101107304E+00  0.100581937E+00
   H -0.274736868E+02 -0.189220345E+01 -0.778056400E+00
   H  0.270607913E+02 -0.868210727E+00 -0.498743944E+00
     4
 # iter = 54500  time[fs]=54.50000
   C -0.538543307E+01  0.382580654E-01  0.317599258E+00
   C  0.512137280E+01  0.102763992E+00  0.101638576E+00
   H -0.278725082E+02 -0.191943274E+01 -0.789746724E+00
   H  0.274552462E+02 -0.880988799E+00 -0.506269302E+00
     4
 # iter = 55000  time[fs]=55.00000
   C -0.547001610E+01  0.391118933E-01  0.322236964E+00
   C  0.520137982E+01  0.104422471E+00  0.102693410E+00
   H -0.282715391E+02 -0.194667741E+01 -0.801445052E+00
   H  0.278499468E+02 -0.893776093E+00 -0.513800864E+00
     4
 # iter = 55500  time[fs]=55.50000
   C -0.555470714E+01  0.399659779E-01  0.326877573E+00
   C  0.528149193E+01  0.106082686E+00  0.103746493E+00
   H -0.286707738E+02 -0.197393701E+01 -0.813151167E+00
   H  0.282448864E+02 -0.906572360E+00 -0.521338457E+00
     4
 # iter = 56000  time[fs]=56.00000
   C -0.563950290E+01  0.408203165E-01  0.331521000E+00
   C  0.536170593E+01  0.107744586E+00  0.104797879E+00
   H -0.290702067E+02 -0.200121115E+01 -0.824864859E+00
   H  0.286400582E+02 -0.919377358E+00 -0.528881918E+00
     4
 # iter = 56500  time[fs]=56.50000
   C -0.572440026E+01  0.416749065E-01  0.336167165E+00
   C  0.544201874E+01  0.109408122E+00  0.105847616E+00
   H -0.294698324E+02 -0.202849944E+01 -0.836585929E+00
   H  0.290354561E+02 -0.932190855E+00 -0.536431086E+00
     4
 # iter = 57000  time[fs]=57.00000
   C -0.580939620E+01  0.425297453E-01  0.340815992E+00
   C  0.552242745E+01  0.111073246E+00  0.106895753E+00
   H -0.298696457E+02 -0.205580150E+01 -0.848314183E+00
   H  0.294310740E+02 -0.945012629E+00 -0.543985810E+00
     4
 # iter = 57500  time[fs]=57.50000
   C -0.589448786E+01  0.433848300E-01  0.345467407E+00
   C  0.560292925E+01  0.112739914E+00  0.107942336E+00
   H -0.302696417E+02 -0.208311698E+01 -0.860049435E+00
   H  0.298269060E+02 -0.957842467E+00 -0.551545944E+00
     4
 # iter = 58000  time[fs]=58.00000
   C -0.597967248E+01  0.442401579E-01  0.350121339E+00
   C  0.568352145E+01  0.114408083E+00  0.108987410E+00
   H -0.306698157E+02 -0.211044551E+01 -0.871791507E+00
   H  0.302229466E+02 -0.970680161E+00 -0.559111347E+00
     4
 # iter = 58500  time[fs]=58.50000
   C -0.606494741E+01  0.450957262E-01  0.354777721E+00
   C  0.576420148E+01  0.116077710E+00  0.110031016E+00
   H -0.310701630E+02 -0.213778678E+01 -0.883540227E+00
   H  0.306191905E+02 -0.983525515E+00 -0.566681884E+00
     4
 # iter = 59000  time[fs]=59.00000
   C -0.615031013E+01  0.459515319E-01  0.359436486E+00
   C  0.584496687E+01  0.117748756E+00  0.111073195E+00
   H -0.314706792E+02 -0.216514045E+01 -0.895295429E+00
   H  0.310156323E+02 -0.996378337E+00 -0.574257423E+00
     4
 # iter = 59500  time[fs]=59.50000
   C -0.623575820E+01  0.468075722E-01  0.364097573E+00
   C  0.592581525E+01  0.119421183E+00  0.112113987E+00
   H -0.318713602E+02 -0.219250623E+01 -0.907056954E+00
   H  0.314122673E+02 -0.100923844E+01 -0.581837841E+00
     4
 # iter = 60000  time[fs]=60.00000
   C -0.632128929E+01  0.476638443E-01  0.368760920E+00
   C  0.600674434E+01  0.121094954E+00  0.113153428E+00
   H -0.322722017E+02 -0.221988381E+01 -0.918824649E+00
   H  0.318090905E+02 -0.102210566E+01 -0.589423016E+00
     4
 # iter = 60500  time[fs]=60.50000
   C -0.640690117E+01  0.485203452E-01  0.373426470E+00
   C  0.608775197E+01  0.122770034E+00  0.114191555E+00
   H -0.326731999E+02 -0.224727291E+01 -0.930598365E+00
   H  0.322060973E+02 -0.103497981E+01 -0.597012831E+00
     4
 # iter = 61000  time[fs]=61.00000
   C -0.649259167E+01  0.493770720E-01  0.378094167E+00
   C  0.616883603E+01  0.124446389E+00  0.115228402E+00
   H -0.330743509E+02 -0.227467325E+01 -0.942377960E+00
   H  0.326032833E+02 -0.104786073E+01 -0.604607175E+00
     4
 # iter = 61500  time[fs]=61.50000
   C -0.657835872E+01  0.502340219E-01  0.382763957E+00
   C  0.624999450E+01  0.126123987E+00  0.116264003E+00
   H -0.334756512E+02 -0.230208455E+01 -0.954163294E+00
   H  0.330006443E+02 -0.106074827E+01 -0.612205940E+00
     4
 # iter = 62000  time[fs]=62.00000
   C -0.666420034E+01  0.510911919E-01  0.387435789E+00
   C  0.633122545E+01  0.127802795E+00  0.117298390E+00
   H -0.338770972E+02 -0.232950658E+01 -0.965954237E+00
   H  0.333981759E+02 -0.107364227E+01 -0.619809021E+00
     4
 # iter = 62500  time[fs]=62.50000
   C -0.675011461E+01  0.519485793E-01  0.392109611E+00
   C  0.641252701E+01  0.129482785E+00  0.118331594E+00
   H -0.342786854E+02 -0.235693907E+01 -0.977750658E+00
   H  0.337958744E+02 -0.108654257E+01 -0.627416316E+00
     4
 # iter = 63000  time[fs]=63.00000
   C -0.683609967E+01  0.528061811E-01  0.396785376E+00
   C  0.649389737E+01  0.131163926E+00  0.119363644E+00
   H -0.346804125E+02 -0.238438178E+01 -0.989552433E+00
   H  0.341937357E+02 -0.109944905E+01 -0.635027730E+00
     4
 # iter = 63500  time[fs]=63.50000
   C -0.692215376E+01  0.536639946E-01  0.401463038E+00
   C  0.657533480E+01  0.132846191E+00  0.120394569E+00
   H -0.350822755E+02 -0.241183450E+01 -0.100135944E+01
   H  0.345917562E+02 -0.111236156E+01 -0.642643167E+00
     4
 # iter = 64000  time[fs]=64.00000
   C -0.700827516E+01  0.545220170E-01  0.406142550E+00
   C  0.665683765E+01  0.134529552E+00  0.121424397E+00
   H -0.354842712E+02 -0.243929698E+01 -0.101317157E+01
   H  0.349899322E+02 -0.112527996E+01 -0.650262538E+00
     4
 # iter = 64500  time[fs]=64.50000
   C -0.709446222E+01  0.553802454E-01  0.410823872E+00
   C  0.673840429E+01  0.136213984E+00  0.122453155E+00
   H -0.358863966E+02 -0.246676901E+01 -0.102498871E+01
   H  0.353882604E+02 -0.113820413E+01 -0.657885753E+00
     4
 # iter = 65000  time[fs]=65.00000
   C -0.718071335E+01  0.562386772E-01  0.415506959E+00
   C  0.682003318E+01  0.137899462E+00  0.123480868E+00
   H -0.362886489E+02 -0.249425039E+01 -0.103681074E+01
   H  0.357867372E+02 -0.115113394E+01 -0.665512729E+00
     4
 # iter = 65500  time[fs]=65.50000
   C -0.726702700E+01  0.570973097E-01  0.420191772E+00
   C  0.690172282E+01  0.139585960E+00  0.124507561E+00
   H -0.366910253E+02 -0.252174090E+01 -0.104863756E+01
   H  0.361853594E+02 -0.116406927E+01 -0.673143383E+00
     4
 # iter = 66000  time[fs]=66.00000
   C -0.735340171E+01  0.579561400E-01  0.424878271E+00
   C  0.698347177E+01  0.141273456E+00  0.125533258E+00
   H -0.370935231E+02 -0.254924036E+01 -0.106046908E+01
   H  0.365841240E+02 -0.117701000E+01 -0.680777635E+00
     4
 # iter = 66500  time[fs]=66.50000
   C -0.743983602E+01  0.588151656E-01  0.429566420E+00
   C  0.706527862E+01  0.142961927E+00  0.126557982E+00
   H -0.374961397E+02 -0.257674858E+01 -0.107230518E+01
   H  0.369830278E+02 -0.118995602E+01 -0.688415408E+00
     4
 # iter = 67000  time[fs]=67.00000
   C -0.752632857E+01  0.596743840E-01  0.434256181E+00
   C  0.714714204E+01  0.144651351E+00  0.127581756E+00
   H -0.378988725E+02 -0.260426536E+01 -0.108414579E+01
   H  0.373820678E+02 -0.120290722E+01 -0.696056628E+00
     4
 # iter = 67500  time[fs]=67.50000
   C -0.761287801E+01  0.605337923E-01  0.438947518E+00
   C  0.722906073E+01  0.146341707E+00  0.128604601E+00
   H -0.383017192E+02 -0.263179054E+01 -0.109599079E+01
   H  0.377812413E+02 -0.121586349E+01 -0.703701223E+00
     4
 # iter = 68000  time[fs]=68.00000
   C -0.769948305E+01  0.613933882E-01  0.443640398E+00
   C  0.731103342E+01  0.148032974E+00  0.129626539E+00
   H -0.387046774E+02 -0.265932393E+01 -0.110784011E+01
   H  0.381805453E+02 -0.122882473E+01 -0.711349122E+00
     4
 # iter = 68500  time[fs]=68.50000
   C -0.778614244E+01  0.622531691E-01  0.448334788E+00
   C  0.739305889E+01  0.149725133E+00  0.130647589E+00
   H -0.391077447E+02 -0.268686538E+01 -0.111969366E+01
   H  0.385799774E+02 -0.124179084E+01 -0.719000258E+00
     4
 # iter = 69000  time[fs]=69.00000
   C -0.787285498E+01  0.631131326E-01  0.453030654E+00
   C  0.747513598E+01  0.151418164E+00  0.131667772E+00
   H -0.395109190E+02 -0.271441471E+01 -0.113155135E+01
   H  0.389795347E+02 -0.125476172E+01 -0.726654564E+00
     4
 # iter = 69500  time[fs]=69.50000
   C -0.795961949E+01  0.639732760E-01  0.457727967E+00
   C  0.755726355E+01  0.153112049E+00  0.132687105E+00
   H -0.399141981E+02 -0.274197177E+01 -0.114341309E+01
   H  0.393792148E+02 -0.126773727E+01 -0.734311977E+00
     4
 # iter = 70000  time[fs]=70.00000
   C -0.804643484E+01  0.648335972E-01  0.462426696E+00
   C  0.763944048E+01  0.154806769E+00  0.133705608E+00
   H -0.403175798E+02 -0.276953640E+01 -0.115527882E+01
   H  0.397790153E+02 -0.128071741E+01 -0.741972435E+00
     4
 # iter = 70500  time[fs]=70.50000
   C -0.813329994E+01  0.656940936E-01  0.467126812E+00
   C  0.772166572E+01  0.156502307E+00  0.134723298E+00
   H -0.407210622E+02 -0.279710847E+01 -0.116714846E+01
   H  0.401789337E+02 -0.129370204E+01 -0.749635878E+00
     4
 # iter = 71000  time[fs]=71.00000
   C -0.822021372E+01  0.665547629E-01  0.471828286E+00
   C  0.780393823E+01  0.158198647E+00  0.135740192E+00
   H -0.411246433E+02 -0.282468781E+01 -0.117902192E+01
   H  0.405789678E+02 -0.130669108E+01 -0.757302247E+00
     4
 # iter = 71500  time[fs]=71.50000
   C -0.830717516E+01  0.674156029E-01  0.476531090E+00
   C  0.788625701E+01  0.159895772E+00  0.136756308E+00
   H -0.415283212E+02 -0.285227430E+01 -0.119089913E+01
   H  0.409791153E+02 -0.131968445E+01 -0.764971485E+00
     4
 # iter = 72000  time[fs]=72.00000
   C -0.839418326E+01  0.682766113E-01  0.481235199E+00
   C  0.796862109E+01  0.161593666E+00  0.137771662E+00
   H -0.419320940E+02 -0.287986780E+01 -0.120278003E+01
   H  0.413793739E+02 -0.133268206E+01 -0.772643538E+00
     4
 # iter = 72500  time[fs]=72.50000
   C -0.848123705E+01  0.691377857E-01  0.485940587E+00
   C  0.805102953E+01  0.163292314E+00  0.138786268E+00
   H -0.423359599E+02 -0.290746817E+01 -0.121466454E+01
   H  0.417797417E+02 -0.134568383E+01 -0.780318352E+00
     4
 # iter = 73000  time[fs]=73.00000
   C -0.856833559E+01  0.699991241E-01  0.490647227E+00
   C  0.813348142E+01  0.164991700E+00  0.139800143E+00
   H -0.427399171E+02 -0.293507529E+01 -0.122655261E+01
   H  0.421802165E+02 -0.135868968E+01 -0.787995875E+00
     4
 # iter = 73500  time[fs]=73.50000
   C -0.865547798E+01  0.708606242E-01  0.495355096E+00
   C  0.821597587E+01  0.166691810E+00  0.140813300E+00
   H -0.431439640E+02 -0.296268902E+01 -0.123844415E+01
   H  0.425807963E+02 -0.137169955E+01 -0.795676057E+00
     4
 # iter = 74000  time[fs]=74.00000
   C -0.874266333E+01  0.717222839E-01  0.500064170E+00
   C  0.829851202E+01  0.168392631E+00  0.141825756E+00
   H -0.435480988E+02 -0.299030926E+01 -0.125033912E+01
   H  0.429814792E+02 -0.138471335E+01 -0.803358847E+00
     4
 # iter = 74500  time[fs]=74.50000
   C -0.882989078E+01  0.725841012E-01  0.504774425E+00
   C  0.838108904E+01  0.170094148E+00  0.142837523E+00
   H -0.439523200E+02 -0.301793587E+01 -0.126223744E+01
   H  0.433822632E+02 -0.139773102E+01 -0.811044199E+00
     4
 # iter = 75000  time[fs]=75.00000
   C -0.891715951E+01  0.734460739E-01  0.509485840E+00
   C  0.846370613E+01  0.171796347E+00  0.143848614E+00
   H -0.443566260E+02 -0.304556875E+01 -0.127413906E+01
   H  0.437831466E+02 -0.141075249E+01 -0.818732065E+00
     4
 # iter = 75500  time[fs]=75.50000
   C -0.900446870E+01  0.743082001E-01  0.514198393E+00
   C  0.854636249E+01  0.173499217E+00  0.144859044E+00
   H -0.447610153E+02 -0.307320779E+01 -0.128604392E+01
   H  0.441841276E+02 -0.142377768E+01 -0.826422401E+00
     4
 # iter = 76000  time[fs]=76.00000
   C -0.909181758E+01  0.751704777E-01  0.518912062E+00
   C  0.862905737E+01  0.175202745E+00  0.145868825E+00
   H -0.451654863E+02 -0.310085286E+01 -0.129795197E+01
   H  0.445852043E+02 -0.143680655E+01 -0.834115162E+00
     4
 # iter = 76500  time[fs]=76.50000
   C -0.917920538E+01  0.760329047E-01  0.523626827E+00
   C  0.871179001E+01  0.176906918E+00  0.146877969E+00
   H -0.455700376E+02 -0.312850388E+01 -0.130986314E+01
   H  0.449863751E+02 -0.144983901E+01 -0.841810306E+00
     4
 # iter = 77000  time[fs]=77.00000
   C -0.926663135E+01  0.768954793E-01  0.528342668E+00
   C  0.879455971E+01  0.178611724E+00  0.147886488E+00
   H -0.459746679E+02 -0.315616073E+01 -0.132177738E+01
   H  0.453876383E+02 -0.146287500E+01 -0.849507790E+00
     4
 # iter = 77500  time[fs]=77.50000
   C -0.935409479E+01  0.777581996E-01  0.533059565E+00
   C  0.887736576E+01  0.180317152E+00  0.148894395E+00
   H -0.463793756E+02 -0.318382331E+01 -0.133369464E+01
   H  0.457889924E+02 -0.147591448E+01 -0.857207574E+00
     4
 # iter = 78000  time[fs]=78.00000
   C -0.944159498E+01  0.786210636E-01  0.537777499E+00
   C  0.896020748E+01  0.182023191E+00  0.149901700E+00
   H -0.467841596E+02 -0.321149152E+01 -0.134561488E+01
   H  0.461904358E+02 -0.148895737E+01 -0.864909619E+00
     4
 # iter = 78500  time[fs]=78.50000
   C -0.952913125E+01  0.794840695E-01  0.542496452E+00
   C  0.904308420E+01  0.183729829E+00  0.150908415E+00
   H -0.471890184E+02 -0.323916528E+01 -0.135753803E+01
   H  0.465919668E+02 -0.150200363E+01 -0.872613885E+00
     4
 # iter = 79000  time[fs]=79.00000
   C -0.961670293E+01  0.803472156E-01  0.547216405E+00
   C  0.912599529E+01  0.185437057E+00  0.151914550E+00
   H -0.475939509E+02 -0.326684448E+01 -0.136946405E+01
   H  0.469935841E+02 -0.151505319E+01 -0.880320334E+00
     4
 # iter = 79500  time[fs]=79.50000
   C -0.970430938E+01  0.812105000E-01  0.551937342E+00
   C  0.920894012E+01  0.187144863E+00  0.152920116E+00
   H -0.479989557E+02 -0.329452903E+01 -0.138139290E+01
   H  0.473952861E+02 -0.152810599E+01 -0.888028931E+00
     4
 # iter = 80000  time[fs]=80.00000
   C -0.979194997E+01  0.820739210E-01  0.556659245E+00
   C  0.929191806E+01  0.188853237E+00  0.153925123E+00
   H -0.484040317E+02 -0.332221885E+01 -0.139332452E+01
   H  0.477970715E+02 -0.154116200E+01 -0.895739639E+00
