     4
 # iter = 25000  time[fs]=25.00000
   C -0.972877031E+00 -0.470225566E-01  0.108063493E-01
   C  0.100284901E+01 -0.273397270E-01 -0.636007990E-01
   H -0.522170516E+01  0.410071365E+00  0.291234983E+00
   H  0.522914546E+01  0.327460524E+00  0.305936814E+00
     4
 # iter = 25500  time[fs]=25.50000
   C -0.101846659E+01 -0.512708126E-01  0.880737035E-02
   C  0.104364857E+01 -0.306628291E-01 -0.677326159E-01
   H -0.556082093E+01  0.428391436E+00  0.299824235E+00
   H  0.553884647E+01  0.340242896E+00  0.319206719E+00
     4
 # iter = 26000  time[fs]=26.00000
   C -0.106818071E+01 -0.565204049E-01  0.596646252E-02
   C  0.108663310E+01 -0.349541351E-01 -0.729851160E-01
   H -0.590805158E+01  0.441541516E+00  0.303161541E+00
   H  0.584591166E+01  0.347803943E+00  0.327254116E+00
     4
 # iter = 26500  time[fs]=26.50000
   C -0.111892579E+01 -0.599358326E-01  0.510411904E-02
   C  0.113446966E+01 -0.372825751E-01 -0.764130287E-01
   H -0.624700501E+01  0.465573245E+00  0.317307665E+00
   H  0.616614692E+01  0.366219236E+00  0.346155138E+00
     4
 # iter = 27000  time[fs]=27.00000
   C -0.117031511E+01 -0.613728975E-01  0.635091600E-02
   C  0.118705655E+01 -0.375040482E-01 -0.778592869E-01
   H -0.657662929E+01  0.501260015E+00  0.343043414E+00
   H  0.650009249E+01  0.396267938E+00  0.376689400E+00
     4
 # iter = 27500  time[fs]=27.50000
   C -0.122422590E+01 -0.629339703E-01  0.759219391E-02
   C  0.124198491E+01 -0.378008327E-01 -0.794944174E-01
   H -0.690867572E+01  0.536620710E+00  0.368393753E+00
   H  0.683554547E+01  0.425959898E+00  0.406867120E+00
     4
 # iter = 28000  time[fs]=28.00000
   C -0.128193864E+01 -0.661058988E-01  0.733006408E-02
   C  0.129750273E+01 -0.397172909E-01 -0.828522027E-01
   H -0.725142635E+01  0.563175531E+00  0.384884127E+00
   H  0.716383781E+01  0.446809379E+00  0.428202850E+00
     4
 # iter = 28500  time[fs]=28.50000
   C -0.134266072E+01 -0.702836489E-01  0.615966931E-02
   C  0.135404321E+01 -0.426307770E-01 -0.873005153E-01
   H -0.760129873E+01  0.584331749E+00  0.395926491E+00
   H  0.748823041E+01  0.462229934E+00  0.444110372E+00
     4
 # iter = 29000  time[fs]=29.00000
   C -0.140474242E+01 -0.739874621E-01  0.555192485E-02
   C  0.141296336E+01 -0.450123061E-01 -0.913018885E-01
   H -0.794975873E+01  0.608469002E+00  0.409904639E+00
   H  0.781698370E+01  0.480612393E+00  0.462980702E+00
     4
 # iter = 29500  time[fs]=29.50000
   C -0.146751732E+01 -0.767048316E-01  0.601144110E-02
   C  0.147463522E+01 -0.463343893E-01 -0.943212502E-01
   H -0.829378475E+01  0.638474860E+00  0.429709755E+00
   H  0.815287472E+01  0.504849455E+00  0.487706681E+00
     4
 # iter = 30000  time[fs]=30.00000
   C -0.153155929E+01 -0.791488679E-01  0.681805870E-02
   C  0.153817693E+01 -0.473386603E-01 -0.970934557E-01
   H -0.863733336E+01  0.670276701E+00  0.451272352E+00
   H  0.849172427E+01  0.530866071E+00  0.514213367E+00
     4
 # iter = 30500  time[fs]=30.50000
   C -0.159753859E+01 -0.821154863E-01  0.716956688E-02
   C  0.160263495E+01 -0.488522254E-01 -0.100439553E+00
   H -0.898484299E+01  0.699333906E+00  0.470054581E+00
   H  0.882889580E+01  0.554118438E+00  0.537957041E+00
     4
 # iter = 31000  time[fs]=31.00000
   C -0.166535137E+01 -0.856140677E-01  0.705095688E-02
   C  0.166788303E+01 -0.508872632E-01 -0.104366307E+00
   H -0.933629220E+01  0.725576477E+00  0.485988940E+00
   H  0.916423892E+01  0.574537799E+00  0.558869005E+00
     4
 # iter = 31500  time[fs]=31.50000
   C -0.173437354E+01 -0.891226087E-01  0.697919441E-02
   C  0.173435670E+01 -0.529053299E-01 -0.108330426E+00
   H -0.968864806E+01  0.751955097E+00  0.502028370E+00
   H  0.950063638E+01  0.595079045E+00  0.579904195E+00
     4
 # iter = 32000  time[fs]=32.00000
   C -0.180418890E+01 -0.923170328E-01  0.727384076E-02
   C  0.180229674E+01 -0.545727815E-01 -0.111993925E+00
   H -0.100400094E+02  0.780297341E+00  0.520002482E+00
   H  0.983985402E+01  0.617572698E+00  0.602893165E+00
     4
 # iter = 32500  time[fs]=32.50000
   C -0.187484958E+01 -0.953327334E-01  0.779544894E-02
   C  0.187147720E+01 -0.560316923E-01 -0.115494978E+00
   H -0.103910919E+02  0.809821581E+00  0.539131471E+00
   H  0.101810517E+02  0.641237287E+00  0.627054461E+00
     4
 # iter = 33000  time[fs]=33.00000
   C -0.194656096E+01 -0.984504318E-01  0.825965167E-02
   C  0.194152981E+01 -0.575744925E-01 -0.119122506E+00
   H -0.107434424E+02  0.838921698E+00  0.557810870E+00
   H  0.105225693E+02  0.664465900E+00  0.650781181E+00
     4
 # iter = 33500  time[fs]=33.50000
   C -0.201933627E+01 -0.101751568E+00  0.858172344E-02
   C  0.201230002E+01 -0.592870463E-01 -0.122959215E+00
   H -0.110974802E+02  0.867124900E+00  0.575569391E+00
   H  0.108638863E+02  0.686786015E+00  0.673600803E+00
     4
 # iter = 34000  time[fs]=34.00000
   C -0.209299234E+01 -0.105114853E+00  0.887998589E-02
   C  0.208384977E+01 -0.610450990E-01 -0.126877997E+00
   H -0.114524762E+02  0.895111158E+00  0.593088383E+00
   H  0.112056404E+02  0.708878972E+00  0.696194665E+00
     4
 # iter = 34500  time[fs]=34.50000
   C -0.216735447E+01 -0.108421763E+00  0.927027895E-02
   C  0.215624398E+01 -0.627271374E-01 -0.130754758E+00
   H -0.118077208E+02  0.923545527E+00  0.611034161E+00
   H  0.115484583E+02  0.731411123E+00  0.719229107E+00
     4
 # iter = 35000  time[fs]=35.00000
   C -0.224237260E+01 -0.111673380E+00  0.974908448E-02
   C  0.222942887E+01 -0.643354280E-01 -0.134589426E+00
   H -0.121631872E+02  0.952414182E+00  0.629394055E+00
   H  0.118922905E+02  0.754369191E+00  0.742690842E+00
     4
 # iter = 35500  time[fs]=35.50000
   C -0.231806660E+01 -0.114936179E+00  0.102477192E-01
   C  0.230328763E+01 -0.659398666E-01 -0.138449773E+00
   H -0.125192230E+02  0.981332421E+00  0.647784428E+00
   H  0.122367191E+02  0.777368602E+00  0.766195279E+00
     4
 # iter = 36000  time[fs]=36.00000
   C -0.239442980E+01 -0.118246045E+00  0.107282825E-01
   C  0.237773926E+01 -0.675785811E-01 -0.142371993E+00
   H -0.128760042E+02  0.101008991E+01  0.665995923E+00
   H  0.125815034E+02  0.800199275E+00  0.789532318E+00
     4
 # iter = 36500  time[fs]=36.50000
   C -0.247140663E+01 -0.121586333E+00  0.112055848E-01
   C  0.245276094E+01 -0.692352055E-01 -0.146337958E+00
   H -0.132334109E+02  0.103877532E+01  0.684118122E+00
   H  0.129267045E+02  0.822950404E+00  0.812791133E+00
     4
 # iter = 37000  time[fs]=37.00000
   C -0.254893274E+01 -0.124928349E+00  0.117066406E-01
   C  0.252834567E+01 -0.708808251E-01 -0.150317144E+00
   H -0.135912564E+02  0.106754624E+01  0.702309451E+00
   H  0.132724546E+02  0.845780129E+00  0.836129842E+00
     4
 # iter = 37500  time[fs]=37.50000
   C -0.262696795E+01 -0.128264620E+00  0.122373876E-01
   C  0.260446751E+01 -0.725084383E-01 -0.154301075E+00
   H -0.139494765E+02  0.109644012E+01  0.720608129E+00
   H  0.136187676E+02  0.868726292E+00  0.859586264E+00
     4
 # iter = 38000  time[fs]=38.00000
   C -0.270549224E+01 -0.131605218E+00  0.127863417E-01
   C  0.268108505E+01 -0.741291623E-01 -0.158299516E+00
   H -0.143081083E+02  0.112539505E+01  0.738952987E+00
   H  0.139655597E+02  0.891727273E+00  0.883098756E+00
     4
 # iter = 38500  time[fs]=38.50000
   C -0.278448658E+01 -0.134958779E+00  0.133435721E-01
   C  0.275816082E+01 -0.757525703E-01 -0.162320799E+00
   H -0.146671822E+02  0.115435767E+01  0.757291331E+00
   H  0.143127571E+02  0.914729959E+00  0.906614181E+00
     4
 # iter = 39000  time[fs]=39.00000
   C -0.286392463E+01 -0.138324525E+00  0.139086642E-01
   C  0.283566932E+01 -0.773784377E-01 -0.166363556E+00
   H -0.150266764E+02  0.118332841E+01  0.775624215E+00
   H  0.146603414E+02  0.937735065E+00  0.930133229E+00
     4
 # iter = 39500  time[fs]=39.50000
   C -0.294377789E+01 -0.141697542E+00  0.144854300E-01
   C  0.291359135E+01 -0.790022145E-01 -0.170422185E+00
   H -0.153865469E+02  0.121233146E+01  0.793976427E+00
   H  0.150083193E+02  0.960767082E+00  0.953680367E+00
     4
 # iter = 40000  time[fs]=40.00000
   C -0.302402204E+01 -0.145075310E+00  0.150753737E-01
   C  0.299190704E+01 -0.806217885E-01 -0.174493599E+00
   H -0.157467641E+02  0.124137769E+01  0.812359385E+00
   H  0.153566853E+02  0.983837136E+00  0.977266696E+00
     4
 # iter = 40500  time[fs]=40.50000
   C -0.310463748E+01 -0.148458473E+00  0.156769098E-01
   C  0.307059488E+01 -0.822382903E-01 -0.178578029E+00
   H -0.161073177E+02  0.127046022E+01  0.830766718E+00
   H  0.157054171E+02  0.100693857E+01  0.100088553E+01
     4
 # iter = 41000  time[fs]=41.00000
   C -0.318560664E+01 -0.151848192E+00  0.162880053E-01
   C  0.314963436E+01 -0.838533534E-01 -0.182676274E+00
   H -0.164682011E+02  0.129956943E+01  0.849189304E+00
   H  0.160544909E+02  0.103006197E+01  0.102452745E+01
     4
 # iter = 41500  time[fs]=41.50000
   C -0.326691208E+01 -0.155244487E+00  0.169078303E-01
   C  0.322900749E+01 -0.854673992E-01 -0.186787983E+00
   H -0.168294020E+02  0.132870241E+01  0.867624668E+00
   H  0.164038903E+02  0.105320462E+01  0.104818969E+01
     4
 # iter = 42000  time[fs]=42.00000
   C -0.334853686E+01 -0.158646608E+00  0.175363818E-01
   C  0.330869832E+01 -0.870800249E-01 -0.190912034E+00
   H -0.171909047E+02  0.135786077E+01  0.886074862E+00
   H  0.167536044E+02  0.107636834E+01  0.107187406E+01
     4
 # iter = 42500  time[fs]=42.50000
   C -0.343046523E+01 -0.162053939E+00  0.181735753E-01
   C  0.338869194E+01 -0.886909408E-01 -0.195047467E+00
   H -0.175526946E+02  0.138704554E+01  0.904541324E+00
   H  0.171036223E+02  0.109955432E+01  0.109558173E+01
     4
 # iter = 43000  time[fs]=43.00000
   C -0.351268289E+01 -0.165466267E+00  0.188189697E-01
   C  0.346897401E+01 -0.903002531E-01 -0.199193765E+00
   H -0.179147604E+02  0.141625562E+01  0.923023318E+00
   H  0.174539319E+02  0.112276163E+01  0.111931174E+01
     4
 # iter = 43500  time[fs]=43.50000
   C -0.359517661E+01 -0.168883533E+00  0.194720148E-01
   C  0.354953104E+01 -0.919082044E-01 -0.203350589E+00
   H -0.182770921E+02  0.144548915E+01  0.941519367E+00
   H  0.178045208E+02  0.114598858E+01  0.114306237E+01
     4
 # iter = 44000  time[fs]=44.00000
   C -0.367793393E+01 -0.172305596E+00  0.201322794E-01
   C  0.363035046E+01 -0.935149364E-01 -0.207517536E+00
   H -0.186396797E+02  0.147474489E+01  0.960028549E+00
   H  0.181553780E+02  0.116923405E+01  0.116683251E+01
     4
 # iter = 44500  time[fs]=44.50000
   C -0.376094309E+01 -0.175732234E+00  0.207994542E-01
   C  0.371142061E+01 -0.951204846E-01 -0.211694133E+00
   H -0.190025135E+02  0.150402218E+01  0.978550528E+00
   H  0.185064935E+02  0.119249753E+01  0.119062159E+01
     4
 # iter = 45000  time[fs]=45.00000
   C -0.384419305E+01 -0.179163223E+00  0.214732615E-01
   C  0.379273058E+01 -0.967248699E-01 -0.215879925E+00
   H -0.193655840E+02  0.153332045E+01  0.997085052E+00
   H  0.188578578E+02  0.121577859E+01  0.121442919E+01
     4
 # iter = 45500  time[fs]=45.50000
   C -0.392767349E+01 -0.182598384E+00  0.221534108E-01
   C  0.387427007E+01 -0.983281436E-01 -0.220074516E+00
   H -0.197288826E+02  0.156263900E+01  0.101563171E+01
   H  0.192094621E+02  0.123907665E+01  0.123825468E+01
     4
 # iter = 46000  time[fs]=46.00000
   C -0.401137470E+01 -0.186037566E+00  0.228396120E-01
   C  0.395602942E+01 -0.999303719E-01 -0.224277551E+00
   H -0.200924011E+02  0.159197706E+01  0.103418999E+01
   H  0.195612977E+02  0.126239106E+01  0.126209742E+01
     4
 # iter = 46500  time[fs]=46.50000
   C -0.409528758E+01 -0.189480624E+00  0.235315956E-01
   C  0.403799951E+01 -0.101531614E+00 -0.228488697E+00
   H -0.204561319E+02  0.162133392E+01  0.105275946E+01
   H  0.199133563E+02  0.128572121E+01  0.128595676E+01
     4
 # iter = 47000  time[fs]=47.00000
   C -0.417940352E+01 -0.192927412E+00  0.242291166E-01
   C  0.412017178E+01 -0.103131917E+00 -0.232707627E+00
   H -0.208200674E+02  0.165070895E+01  0.107133973E+01
   H  0.202656303E+02  0.130906658E+01  0.130983217E+01
     4
 # iter = 47500  time[fs]=47.50000
   C -0.426371443E+01 -0.196377791E+00  0.249319469E-01
   C  0.420253817E+01 -0.104731323E+00 -0.236934035E+00
   H -0.211842009E+02  0.168010157E+01  0.108993045E+01
   H  0.206181124E+02  0.133242668E+01  0.133372314E+01
     4
 # iter = 48000  time[fs]=48.00000
   C -0.434821266E+01 -0.199831630E+00  0.256398702E-01
   C  0.428509104E+01 -0.106329872E+00 -0.241167632E+00
   H -0.215485255E+02  0.170951120E+01  0.110853128E+01
   H  0.209707957E+02  0.135580104E+01  0.135762919E+01
     4
 # iter = 48500  time[fs]=48.50000
   C -0.443289098E+01 -0.203288806E+00  0.263526810E-01
   C  0.436782322E+01 -0.107927604E+00 -0.245408145E+00
   H -0.219130351E+02  0.173893729E+01  0.112714188E+01
   H  0.213236735E+02  0.137918920E+01  0.138154983E+01
     4
 # iter = 49000  time[fs]=49.00000
   C -0.451774258E+01 -0.206749204E+00  0.270701854E-01
   C  0.445072789E+01 -0.109524558E+00 -0.249655318E+00
   H -0.222777236E+02  0.176837933E+01  0.114576193E+01
   H  0.216767395E+02  0.140259073E+01  0.140548460E+01
     4
 # iter = 49500  time[fs]=49.50000
   C -0.460276100E+01 -0.210212713E+00  0.277922009E-01
   C  0.453379862E+01 -0.111120767E+00 -0.253908908E+00
   H -0.226425853E+02  0.179783682E+01  0.116439114E+01
   H  0.220299878E+02  0.142600520E+01  0.142943309E+01
     4
 # iter = 50000  time[fs]=50.00000
   C -0.468794011E+01 -0.213679227E+00  0.285185551E-01
   C  0.461702933E+01 -0.112716265E+00 -0.258168684E+00
   H -0.230076148E+02  0.182730927E+01  0.118302921E+01
   H  0.223834125E+02  0.144943222E+01  0.145339488E+01
     4
 # iter = 50500  time[fs]=50.50000
   C -0.477327412E+01 -0.217148646E+00  0.292490850E-01
   C  0.470041422E+01 -0.114311082E+00 -0.262434427E+00
   H -0.233728068E+02  0.185679626E+01  0.120167588E+01
   H  0.227370084E+02  0.147287142E+01  0.147736957E+01
     4
 # iter = 51000  time[fs]=51.00000
   C -0.485875753E+01 -0.220620876E+00  0.299836361E-01
   C  0.478394782E+01 -0.115905249E+00 -0.266705930E+00
   H -0.237381564E+02  0.188629733E+01  0.122033088E+01
   H  0.230907701E+02  0.149632244E+01  0.150135680E+01
     4
 # iter = 51500  time[fs]=51.50000
   C -0.494438512E+01 -0.224095826E+00  0.307220621E-01
   C  0.486762493E+01 -0.117498791E+00 -0.270982996E+00
   H -0.241036588E+02  0.191581209E+01  0.123899397E+01
   H  0.234446927E+02  0.151978493E+01  0.152535619E+01
     4
 # iter = 52000  time[fs]=52.00000
   C -0.503015193E+01 -0.227573409E+00  0.314642241E-01
   C  0.495144061E+01 -0.119091735E+00 -0.275265438E+00
   H -0.244693096E+02  0.194534013E+01  0.125766490E+01
   H  0.237987715E+02  0.154325856E+01  0.154936741E+01
     4
 # iter = 52500  time[fs]=52.50000
   C -0.511605324E+01 -0.231053543E+00  0.322099904E-01
   C  0.503539016E+01 -0.120684106E+00 -0.279553076E+00
   H -0.248351044E+02  0.197488108E+01  0.127634346E+01
   H  0.241530018E+02  0.156674301E+01  0.157339013E+01
     4
 # iter = 53000  time[fs]=53.00000
   C -0.520208456E+01 -0.234536149E+00  0.329592359E-01
   C  0.511946910E+01 -0.122275927E+00 -0.283845743E+00
   H -0.252010390E+02  0.200443457E+01  0.129502941E+01
   H  0.245073794E+02  0.159023798E+01  0.159742403E+01
     4
 # iter = 53500  time[fs]=53.50000
   C -0.528824162E+01 -0.238021152E+00  0.337118416E-01
   C  0.520367318E+01 -0.123867220E+00 -0.288143275E+00
   H -0.255671096E+02  0.203400026E+01  0.131372256E+01
   H  0.248619001E+02  0.161374318E+01  0.162146880E+01
     4
 # iter = 54000  time[fs]=54.00000
   C -0.537452034E+01 -0.241508481E+00  0.344676945E-01
   C  0.528799834E+01 -0.125458006E+00 -0.292445519E+00
   H -0.259333122E+02  0.206357782E+01  0.133242269E+01
   H  0.252165599E+02  0.163725834E+01  0.164552416E+01
     4
 # iter = 54500  time[fs]=54.50000
   C -0.546091684E+01 -0.244998067E+00  0.352266867E-01
   C  0.537244071E+01 -0.127048304E+00 -0.296752327E+00
   H -0.262996433E+02  0.209316692E+01  0.135112963E+01
   H  0.255713549E+02  0.166078318E+01  0.166958982E+01
     4
 # iter = 55000  time[fs]=55.00000
   C -0.554742741E+01 -0.248489844E+00  0.359887157E-01
   C  0.545699659E+01 -0.128638133E+00 -0.301063561E+00
   H -0.266660993E+02  0.212276726E+01  0.136984318E+01
   H  0.259262815E+02  0.168431746E+01  0.169366552E+01
     4
 # iter = 55500  time[fs]=55.50000
   C -0.563404851E+01 -0.251983749E+00  0.367536836E-01
   C  0.554166247E+01 -0.130227512E+00 -0.305379084E+00
   H -0.270326769E+02  0.215237855E+01  0.138856317E+01
   H  0.262813362E+02  0.170786091E+01  0.171775100E+01
     4
 # iter = 56000  time[fs]=56.00000
   C -0.572077676E+01 -0.255479722E+00  0.375214971E-01
   C  0.562643498E+01 -0.131816456E+00 -0.309698770E+00
   H -0.273993729E+02  0.218200051E+01  0.140728943E+01
   H  0.266365155E+02  0.173141331E+01  0.174184600E+01
     4
 # iter = 56500  time[fs]=56.50000
   C -0.580760893E+01 -0.258977705E+00  0.382920670E-01
   C  0.571131089E+01 -0.133404983E+00 -0.314022495E+00
   H -0.277661841E+02  0.221163285E+01  0.142602180E+01
   H  0.269918163E+02  0.175497442E+01  0.176595030E+01
     4
 # iter = 57000  time[fs]=57.00000
   C -0.589454192E+01 -0.262477643E+00  0.390653084E-01
   C  0.579628712E+01 -0.134993107E+00 -0.318350142E+00
   H -0.281331076E+02  0.224127532E+01  0.144476012E+01
   H  0.273472353E+02  0.177854404E+01  0.179006366E+01
     4
 # iter = 57500  time[fs]=57.50000
   C -0.598157277E+01 -0.265979483E+00  0.398411399E-01
   C  0.588136073E+01 -0.136580843E+00 -0.322681599E+00
   H -0.285001405E+02  0.227092767E+01  0.146350423E+01
   H  0.277027696E+02  0.180212194E+01  0.181418585E+01
     4
 # iter = 58000  time[fs]=58.00000
   C -0.606869866E+01 -0.269483173E+00  0.406194836E-01
   C  0.596652889E+01 -0.138168204E+00 -0.327016759E+00
   H -0.288672801E+02  0.230058965E+01  0.148225400E+01
   H  0.280584163E+02  0.182570792E+01  0.183831667E+01
     4
 # iter = 58500  time[fs]=58.50000
   C -0.615591685E+01 -0.272988666E+00  0.414002652E-01
   C  0.605178890E+01 -0.139755204E+00 -0.331355516E+00
   H -0.292345237E+02  0.233026103E+01  0.150100928E+01
   H  0.284141725E+02  0.184930179E+01  0.186245591E+01
     4
 # iter = 59000  time[fs]=59.00000
   C -0.624322475E+01 -0.276495912E+00  0.421834133E-01
   C  0.613713816E+01 -0.141341856E+00 -0.335697774E+00
   H -0.296018688E+02  0.235994158E+01  0.151976994E+01
   H  0.287700356E+02  0.187290336E+01  0.188660336E+01
     4
 # iter = 59500  time[fs]=59.50000
   C -0.633061986E+01 -0.280004868E+00  0.429688597E-01
   C  0.622257418E+01 -0.142928171E+00 -0.340043436E+00
   H -0.299693128E+02  0.238963109E+01  0.153853584E+01
   H  0.291260031E+02  0.189651244E+01  0.191075885E+01
     4
 # iter = 60000  time[fs]=60.00000
   C -0.641809978E+01 -0.283515489E+00  0.437565389E-01
   C  0.630809458E+01 -0.144514161E+00 -0.344392412E+00
   H -0.303368534E+02  0.241932935E+01  0.155730687E+01
   H  0.294820723E+02  0.192012886E+01  0.193492217E+01
     4
 # iter = 60500  time[fs]=60.50000
   C -0.650566220E+01 -0.287027734E+00  0.445463881E-01
   C  0.639369707E+01 -0.146099838E+00 -0.348744613E+00
   H -0.307044884E+02  0.244903615E+01  0.157608291E+01
   H  0.298382409E+02  0.194375245E+01  0.195909316E+01
     4
 # iter = 61000  time[fs]=61.00000
   C -0.659330492E+01 -0.290541563E+00  0.453383471E-01
   C  0.647937943E+01 -0.147685210E+00 -0.353099955E+00
   H -0.310722154E+02  0.247875130E+01  0.159486382E+01
   H  0.301945066E+02  0.196738305E+01  0.198327164E+01
     4
 # iter = 61500  time[fs]=61.50000
   C -0.668102580E+01 -0.294056935E+00  0.461323581E-01
   C  0.656513956E+01 -0.149270289E+00 -0.357458357E+00
   H -0.314400325E+02  0.250847461E+01  0.161364951E+01
   H  0.305508671E+02  0.199102050E+01  0.200745744E+01
     4
 # iter = 62000  time[fs]=62.00000
   C -0.676882279E+01 -0.297573814E+00  0.469283656E-01
   C  0.665097541E+01 -0.150855083E+00 -0.361819741E+00
   H -0.318079374E+02  0.253820589E+01  0.163243987E+01
   H  0.309073202E+02  0.201466464E+01  0.203165041E+01
     4
 # iter = 62500  time[fs]=62.50000
   C -0.685669394E+01 -0.301092164E+00  0.477263160E-01
   C  0.673688502E+01 -0.152439603E+00 -0.366184032E+00
   H -0.321759283E+02  0.256794497E+01  0.165123479E+01
   H  0.312638639E+02  0.203831532E+01  0.205585038E+01
     4
 # iter = 63000  time[fs]=63.00000
   C -0.694463735E+01 -0.304611949E+00  0.485261582E-01
   C  0.682286651E+01 -0.154023856E+00 -0.370551157E+00
   H -0.325440031E+02  0.259769169E+01  0.167003416E+01
   H  0.316204961E+02  0.206197241E+01  0.208005720E+01
     4
 # iter = 63500  time[fs]=63.50000
   C -0.703265119E+01 -0.308133136E+00  0.493278427E-01
   C  0.690891807E+01 -0.155607851E+00 -0.374921047E+00
   H -0.329121601E+02  0.262744587E+01  0.168883789E+01
   H  0.319772148E+02  0.208563576E+01  0.210427073E+01
     4
 # iter = 64000  time[fs]=64.00000
   C -0.712073370E+01 -0.311655692E+00  0.501313221E-01
   C  0.699503794E+01 -0.157191597E+00 -0.379293634E+00
   H -0.332803973E+02  0.265720735E+01  0.170764589E+01
   H  0.323340183E+02  0.210930524E+01  0.212849083E+01
     4
 # iter = 64500  time[fs]=64.50000
   C -0.720888320E+01 -0.315179587E+00  0.509365505E-01
   C  0.708122443E+01 -0.158775100E+00 -0.383668854E+00
   H -0.336487132E+02  0.268697598E+01  0.172645806E+01
   H  0.326909046E+02  0.213298073E+01  0.215271736E+01
     4
 # iter = 65000  time[fs]=65.00000
   C -0.729709804E+01 -0.318704789E+00  0.517434839E-01
   C  0.716747593E+01 -0.160358369E+00 -0.388046643E+00
   H -0.340171060E+02  0.271675161E+01  0.174527431E+01
   H  0.330478719E+02  0.215666208E+01  0.217695018E+01
     4
 # iter = 65500  time[fs]=65.50000
   C -0.738537665E+01 -0.322231269E+00  0.525520800E-01
   C  0.725379085E+01 -0.161941410E+00 -0.392426943E+00
   H -0.343855740E+02  0.274653409E+01  0.176409456E+01
   H  0.334049186E+02  0.218034919E+01  0.220118918E+01
     4
 # iter = 66000  time[fs]=66.00000
   C -0.747371751E+01 -0.325758999E+00  0.533622976E-01
   C  0.734016769E+01 -0.163524230E+00 -0.396809693E+00
   H -0.347541158E+02  0.277632329E+01  0.178291872E+01
   H  0.337620430E+02  0.220404194E+01  0.222543421E+01
     4
 # iter = 66500  time[fs]=66.50000
   C -0.756211916E+01 -0.329287951E+00  0.541740974E-01
   C  0.742660499E+01 -0.165106835E+00 -0.401194839E+00
   H -0.351227296E+02  0.280611906E+01  0.180174672E+01
   H  0.341192434E+02  0.222774020E+01  0.224968516E+01
     4
 # iter = 67000  time[fs]=67.00000
   C -0.765058016E+01 -0.332818099E+00  0.549874413E-01
   C  0.751310133E+01 -0.166689233E+00 -0.405582325E+00
   H -0.354914142E+02  0.283592128E+01  0.182057847E+01
   H  0.344765183E+02  0.225144387E+01  0.227394192E+01
     4
 # iter = 67500  time[fs]=67.50000
   C -0.773909917E+01 -0.336349418E+00  0.558022925E-01
   C  0.759965536E+01 -0.168271429E+00 -0.409972099E+00
   H -0.358601679E+02  0.286572981E+01  0.183941390E+01
   H  0.348338662E+02  0.227515285E+01  0.229820437E+01
     4
 # iter = 68000  time[fs]=68.00000
   C -0.782767484E+01 -0.339881881E+00  0.566186156E-01
   C  0.768626575E+01 -0.169853428E+00 -0.414364111E+00
   H -0.362289895E+02  0.289554454E+01  0.185825294E+01
   H  0.351912857E+02  0.229886702E+01  0.232247239E+01
     4
 # iter = 68500  time[fs]=68.50000
   C -0.791630591E+01 -0.343415466E+00  0.574363762E-01
   C  0.777293123E+01 -0.171435237E+00 -0.418758310E+00
   H -0.365978776E+02  0.292536533E+01  0.187709550E+01
   H  0.355487752E+02  0.232258628E+01  0.234674588E+01
     4
 # iter = 69000  time[fs]=69.00000
   C -0.800499113E+01 -0.346950148E+00  0.582555412E-01
   C  0.785965056E+01 -0.173016860E+00 -0.423154649E+00
   H -0.369668308E+02  0.295519208E+01  0.189594154E+01
   H  0.359063334E+02  0.234631054E+01  0.237102474E+01
     4
 # iter = 69500  time[fs]=69.50000
   C -0.809372931E+01 -0.350485905E+00  0.590760787E-01
   C  0.794642257E+01 -0.174598303E+00 -0.427553082E+00
   H -0.373358479E+02  0.298502466E+01  0.191479096E+01
   H  0.362639590E+02  0.237003970E+01  0.239530887E+01
     4
 # iter = 70000  time[fs]=70.00000
   C -0.818251928E+01 -0.354022716E+00  0.598979576E-01
   C  0.803324609E+01 -0.176179571E+00 -0.431953565E+00
   H -0.377049277E+02  0.301486297E+01  0.193364372E+01
   H  0.366216506E+02  0.239377367E+01  0.241959816E+01
     4
 # iter = 70500  time[fs]=70.50000
   C -0.827135993E+01 -0.357560558E+00  0.607211480E-01
   C  0.812012000E+01 -0.177760668E+00 -0.436356054E+00
   H -0.380740688E+02  0.304470691E+01  0.195249974E+01
   H  0.369794070E+02  0.241751235E+01  0.244389252E+01
     4
 # iter = 71000  time[fs]=71.00000
   C -0.836025017E+01 -0.361099411E+00  0.615456209E-01
   C  0.820704323E+01 -0.179341600E+00 -0.440760507E+00
   H -0.384432703E+02  0.307455635E+01  0.197135897E+01
   H  0.373372270E+02  0.244125567E+01  0.246819186E+01
     4
 # iter = 71500  time[fs]=71.50000
   C -0.844918894E+01 -0.364639255E+00  0.623713483E-01
   C  0.829401472E+01 -0.180922371E+00 -0.445166884E+00
   H -0.388125309E+02  0.310441121E+01  0.199022135E+01
   H  0.376951093E+02  0.246500353E+01  0.249249608E+01
     4
 # iter = 72000  time[fs]=72.00000
   C -0.853817523E+01 -0.368180071E+00  0.631983031E-01
   C  0.838103347E+01 -0.182502984E+00 -0.449575146E+00
   H -0.391818495E+02  0.313427139E+01  0.200908681E+01
   H  0.380530529E+02  0.248875585E+01  0.251680510E+01
     4
 # iter = 72500  time[fs]=72.50000
   C -0.862720805E+01 -0.371721840E+00  0.640264588E-01
   C  0.846809848E+01 -0.184083445E+00 -0.453985253E+00
   H -0.395512251E+02  0.316413678E+01  0.202795530E+01
   H  0.384110564E+02  0.251251254E+01  0.254111883E+01
     4
 # iter = 73000  time[fs]=73.00000
   C -0.871628643E+01 -0.375264543E+00  0.648557902E-01
   C  0.855520881E+01 -0.185663756E+00 -0.458397170E+00
   H -0.399206565E+02  0.319400730E+01  0.204682677E+01
   H  0.387691190E+02  0.253627354E+01  0.256543719E+01
     4
 # iter = 73500  time[fs]=73.50000
   C -0.880540945E+01 -0.378808163E+00  0.656862723E-01
   C  0.864236353E+01 -0.187243923E+00 -0.462810860E+00
   H -0.402901429E+02  0.322388284E+01  0.206570115E+01
   H  0.391272394E+02  0.256003877E+01  0.258976009E+01
     4
 # iter = 74000  time[fs]=74.00000
   C -0.889457621E+01 -0.382352681E+00  0.665178814E-01
   C  0.872956174E+01 -0.188823948E+00 -0.467226288E+00
   H -0.406596832E+02  0.325376334E+01  0.208457841E+01
   H  0.394854167E+02  0.258380814E+01  0.261408747E+01
     4
 # iter = 74500  time[fs]=74.50000
   C -0.898378583E+01 -0.385898082E+00  0.673505941E-01
   C  0.881680256E+01 -0.190403835E+00 -0.471643420E+00
   H -0.410292764E+02  0.328364869E+01  0.210345848E+01
   H  0.398436499E+02  0.260758159E+01  0.263841923E+01
     4
 # iter = 75000  time[fs]=75.00000
   C -0.907303746E+01 -0.389444349E+00  0.681843880E-01
   C  0.890408516E+01 -0.191983588E+00 -0.476062223E+00
   H -0.413989216E+02  0.331353881E+01  0.212234132E+01
   H  0.402019378E+02  0.263135905E+01  0.266275530E+01
     4
 # iter = 75500  time[fs]=75.50000
   C -0.916233027E+01 -0.392991466E+00  0.690192413E-01
   C  0.899140871E+01 -0.193563210E+00 -0.480482666E+00
   H -0.417686179E+02  0.334343363E+01  0.214122688E+01
   H  0.405602797E+02  0.265514044E+01  0.268709562E+01
     4
 # iter = 76000  time[fs]=76.00000
   C -0.925166346E+01 -0.396539418E+00  0.698551326E-01
   C  0.907877242E+01 -0.195142705E+00 -0.484904717E+00
   H -0.421383644E+02  0.337333305E+01  0.216011511E+01
   H  0.409186745E+02  0.267892571E+01  0.271144011E+01
     4
 # iter = 76500  time[fs]=76.50000
   C -0.934103626E+01 -0.400088189E+00  0.706920414E-01
   C  0.916617550E+01 -0.196722075E+00 -0.489328347E+00
   H -0.425081603E+02  0.340323701E+01  0.217900597E+01
   H  0.412771213E+02  0.270271478E+01  0.273578869E+01
     4
 # iter = 77000  time[fs]=77.00000
   C -0.943044791E+01 -0.403637764E+00  0.715299477E-01
   C  0.925361721E+01 -0.198301323E+00 -0.493753524E+00
   H -0.428780046E+02  0.343314543E+01  0.219789941E+01
   H  0.416356193E+02  0.272650759E+01  0.276014131E+01
     4
 # iter = 77500  time[fs]=77.50000
   C -0.951989766E+01 -0.407188131E+00  0.723688321E-01
   C  0.934109681E+01 -0.199880453E+00 -0.498180222E+00
   H -0.432478966E+02  0.346305823E+01  0.221679539E+01
   H  0.419941676E+02  0.275030408E+01  0.278449790E+01
     4
 # iter = 78000  time[fs]=78.00000
   C -0.960938482E+01 -0.410739273E+00  0.732086757E-01
   C  0.942861359E+01 -0.201459467E+00 -0.502608413E+00
   H -0.436178355E+02  0.349297534E+01  0.223569387E+01
   H  0.423527653E+02  0.277410419E+01  0.280885838E+01
     4
 # iter = 78500  time[fs]=78.50000
   C -0.969890867E+01 -0.414291179E+00  0.740494602E-01
   C  0.951616686E+01 -0.203038368E+00 -0.507038068E+00
   H -0.439878205E+02  0.352289669E+01  0.225459480E+01
   H  0.427114117E+02  0.279790786E+01  0.283322270E+01
     4
 # iter = 79000  time[fs]=79.00000
   C -0.978846854E+01 -0.417843834E+00  0.748911677E-01
   C  0.960375595E+01 -0.204617158E+00 -0.511469163E+00
   H -0.443578508E+02  0.355282221E+01  0.227349815E+01
   H  0.430701058E+02  0.282171503E+01  0.285759080E+01
     4
 # iter = 79500  time[fs]=79.50000
   C -0.987806378E+01 -0.421397227E+00  0.757337809E-01
   C  0.969138019E+01 -0.206195841E+00 -0.515901670E+00
   H -0.447279256E+02  0.358275184E+01  0.229240387E+01
   H  0.434288470E+02  0.284552564E+01  0.288196262E+01
     4
 # iter = 80000  time[fs]=80.00000
   C -0.996769374E+01 -0.424951343E+00  0.765772829E-01
   C  0.977903896E+01 -0.207774419E+00 -0.520335566E+00
   H -0.450980444E+02  0.361268550E+01  0.231131192E+01
   H  0.437876344E+02  0.286933965E+01  0.290633809E+01
