     4
 # iter = 25000  time[fs]=25.00000
   C -0.985552708E+00  0.559737854E-04  0.598791959E-01
   C  0.986525746E+00  0.470271557E-01 -0.203183527E-01
   H -0.522353222E+01 -0.572805196E+00 -0.507928156E+00
   H  0.535002219E+01  0.444305859E+00 -0.191462786E+00
     4
 # iter = 25500  time[fs]=25.50000
   C -0.103266719E+01 -0.315980546E-03  0.626300497E-01
   C  0.102780571E+01  0.442011841E-01 -0.213364021E-01
   H -0.556121866E+01 -0.619141096E+00 -0.549213348E+00
   H  0.565887574E+01  0.459141380E+00 -0.210202609E+00
     4
 # iter = 26000  time[fs]=26.00000
   C -0.108404259E+01 -0.169782595E-02  0.645887483E-01
   C  0.107139292E+01  0.404384986E-01 -0.234860504E-01
   H -0.590696561E+01 -0.671203727E+00 -0.596188815E+00
   H  0.596496376E+01  0.468792813E+00 -0.234437188E+00
     4
 # iter = 26500  time[fs]=26.50000
   C -0.113656718E+01 -0.124758017E-02  0.685723981E-01
   C  0.111999499E+01  0.387186356E-01 -0.237652141E-01
   H -0.624437855E+01 -0.712870506E+00 -0.632736086E+00
   H  0.628411304E+01  0.489332859E+00 -0.248061763E+00
     4
 # iter = 27000  time[fs]=27.00000
   C -0.118983795E+01  0.118396092E-02  0.747082084E-01
   C  0.117349596E+01  0.391795792E-01 -0.220159861E-01
   H -0.657241142E+01 -0.743315359E+00 -0.658032552E+00
   H  0.661688139E+01  0.521537307E+00 -0.250272217E+00
     4
 # iter = 27500  time[fs]=27.50000
   C -0.124571784E+01  0.349811877E-02  0.808781632E-01
   C  0.122942736E+01  0.395873879E-01 -0.204548255E-01
   H -0.690282781E+01 -0.774481226E+00 -0.684024086E+00
   H  0.695108059E+01  0.553412265E+00 -0.253037252E+00
     4
 # iter = 28000  time[fs]=28.00000
   C -0.130547482E+01  0.421087879E-02  0.855813453E-01
   C  0.128599257E+01  0.383604210E-01 -0.206480586E-01
   H -0.724391930E+01 -0.814814407E+00 -0.719159529E+00
   H  0.727805457E+01  0.576468899E+00 -0.264824100E+00
     4
 # iter = 28500  time[fs]=28.50000
   C -0.136830537E+01  0.392957572E-02  0.894103654E-01
   C  0.134362616E+01  0.361292517E-01 -0.219517106E-01
   H -0.759210582E+01 -0.860873635E+00 -0.759999859E+00
   H  0.760107395E+01  0.594118762E+00 -0.282203093E+00
     4
 # iter = 29000  time[fs]=29.00000
   C -0.143255036E+01  0.413574351E-02  0.938339304E-01
   C  0.140370662E+01  0.344501648E-01 -0.227977961E-01
   H -0.793885234E+01 -0.904247169E+00 -0.798135311E+00
   H  0.792840714E+01  0.614751282E+00 -0.296769311E+00
     4
 # iter = 29500  time[fs]=29.50000
   C -0.149753539E+01  0.534304689E-02  0.993545117E-01
   C  0.146660849E+01  0.338583627E-01 -0.226409216E-01
   H -0.828113849E+01 -0.942021297E+00 -0.830653895E+00
   H  0.826283779E+01  0.641257654E+00 -0.305617810E+00
     4
 # iter = 30000  time[fs]=30.00000
   C -0.156382765E+01  0.683899019E-02  0.105249831E+00
   C  0.153142780E+01  0.335947498E-01 -0.222313080E-01
   H -0.862292502E+01 -0.978248568E+00 -0.861609657E+00
   H  0.860019215E+01  0.669561095E+00 -0.312812983E+00
     4
 # iter = 30500  time[fs]=30.50000
   C -0.163209171E+01  0.782795817E-02  0.110715718E+00
   C  0.159718821E+01  0.328135249E-01 -0.224070106E-01
   H -0.896865455E+01 -0.101745231E+01 -0.895527253E+00
   H  0.893583826E+01  0.695116218E+00 -0.322889174E+00
     4
 # iter = 31000  time[fs]=31.00000
   C -0.170221883E+01  0.830073388E-02  0.115735461E+00
   C  0.166375815E+01  0.315007883E-01 -0.231751492E-01
   H -0.931830751E+01 -0.105968553E+01 -0.932460848E+00
   H  0.926962977E+01  0.717853084E+00 -0.335906586E+00
     4
 # iter = 31500  time[fs]=31.50000
   C -0.177358073E+01  0.877937063E-02  0.120824537E+00
   C  0.173157985E+01  0.302047814E-01 -0.239815353E-01
   H -0.966885130E+01 -0.110198106E+01 -0.969444352E+00
   H  0.960445291E+01  0.740725712E+00 -0.348902586E+00
     4
 # iter = 32000  time[fs]=32.00000
   C -0.184575763E+01  0.958783206E-02  0.126301119E+00
   C  0.180089722E+01  0.292650372E-01 -0.244814115E-01
   H -0.100183852E+02 -0.114249690E+01 -0.100463668E+01
   H  0.994207647E+01  0.765563791E+00 -0.360039747E+00
     4
 # iter = 32500  time[fs]=32.50000
   C -0.191879868E+01  0.105904514E-01  0.132024426E+00
   C  0.187147832E+01  0.285359005E-01 -0.248158345E-01
   H -0.103676266E+02 -0.118200265E+01 -0.103880829E+01
   H  0.102816628E+02  0.791584958E+00 -0.370093409E+00
     4
 # iter = 33000  time[fs]=33.00000
   C -0.199290674E+01  0.115061430E-01  0.137708843E+00
   C  0.194294629E+01  0.277184674E-01 -0.252796489E-01
   H -0.107181239E+02 -0.122209397E+01 -0.107355558E+01
   H  0.106215538E+02  0.817181444E+00 -0.380664963E+00
     4
 # iter = 33500  time[fs]=33.50000
   C -0.206809285E+01  0.122530786E-01  0.143268525E+00
   C  0.201514258E+01  0.267247332E-01 -0.259572654E-01
   H -0.110702975E+02 -0.126323377E+01 -0.110934214E+01
   H  0.109612308E+02  0.841880005E+00 -0.392221878E+00
     4
 # iter = 34000  time[fs]=34.00000
   C -0.214417199E+01  0.129521511E-01  0.148820787E+00
   C  0.208812974E+01  0.256811906E-01 -0.267189993E-01
   H -0.114234191E+02 -0.130473268E+01 -0.114547923E+01
   H  0.113013332E+02  0.866361388E+00 -0.404078166E+00
     4
 # iter = 34500  time[fs]=34.50000
   C -0.222096781E+01  0.137214675E-01  0.154480542E+00
   C  0.216197350E+01  0.247116179E-01 -0.274382308E-01
   H -0.117767794E+02 -0.134591703E+01 -0.118129371E+01
   H  0.116424892E+02  0.891291408E+00 -0.415563236E+00
     4
 # iter = 35000  time[fs]=35.00000
   C -0.229842890E+01  0.145594982E-01  0.160243402E+00
   C  0.223661865E+01  0.238135619E-01 -0.281148769E-01
   H -0.121303523E+02 -0.138679302E+01 -0.121679232E+01
   H  0.119846504E+02  0.916656262E+00 -0.426686514E+00
     4
 # iter = 35500  time[fs]=35.50000
   C -0.237657394E+01  0.153993134E-01  0.166039872E+00
   C  0.231194570E+01  0.229156173E-01 -0.288180739E-01
   H -0.124844861E+02 -0.142773850E+01 -0.125235335E+01
   H  0.123273999E+02  0.942070869E+00 -0.437829057E+00
     4
 # iter = 36000  time[fs]=36.00000
   C -0.245539525E+01  0.162045740E-01  0.171831302E+00
   C  0.238787186E+01  0.219788345E-01 -0.295847351E-01
   H -0.128393577E+02 -0.146895748E+01 -0.128818123E+01
   H  0.126704982E+02  0.967324692E+00 -0.449197704E+00
     4
 # iter = 36500  time[fs]=36.50000
   C -0.253483637E+01  0.169914878E-01  0.177631819E+00
   C  0.246437372E+01  0.210198993E-01 -0.303963429E-01
   H -0.131948473E+02 -0.151035532E+01 -0.132418172E+01
   H  0.130140071E+02  0.992506521E+00 -0.460700256E+00
     4
 # iter = 37000  time[fs]=37.00000
   C -0.261483220E+01  0.177883199E-01  0.183467801E+00
   C  0.254144409E+01  0.200683273E-01 -0.312217297E-01
   H -0.135507689E+02 -0.155176891E+01 -0.136019207E+01
   H  0.133580596E+02  0.101777413E+01 -0.472175798E+00
     4
 # iter = 37500  time[fs]=37.50000
   C -0.269534187E+01  0.186021255E-01  0.189344595E+00
   C  0.261905648E+01  0.191312954E-01 -0.320522253E-01
   H -0.139070585E+02 -0.159315576E+01 -0.139617009E+01
   H  0.137026702E+02  0.104316500E+01 -0.483583922E+00
     4
 # iter = 38000  time[fs]=38.00000
   C -0.277634480E+01  0.194224208E-01  0.195250165E+00
   C  0.269716868E+01  0.181975085E-01 -0.328977719E-01
   H -0.142637538E+02 -0.163457308E+01 -0.143217331E+01
   H  0.140477556E+02  0.106861719E+01 -0.494983873E+00
     4
 # iter = 38500  time[fs]=38.50000
   C -0.285782144E+01  0.202401764E-01  0.201174066E+00
   C  0.277574250E+01  0.172572587E-01 -0.337668485E-01
   H -0.146208853E+02 -0.167606992E+01 -0.146825106E+01
   H  0.143932427E+02  0.109407729E+01 -0.506426558E+00
     4
 # iter = 39000  time[fs]=39.00000
   C -0.293974503E+01  0.210557910E-01  0.207115404E+00
   C  0.285475200E+01  0.163108442E-01 -0.346580385E-01
   H -0.149784318E+02 -0.171764180E+01 -0.150439911E+01
   H  0.147391135E+02  0.111954573E+01 -0.517909206E+00
     4
 # iter = 39500  time[fs]=39.50000
   C -0.302208669E+01  0.218738131E-01  0.213077547E+00
   C  0.293417768E+01  0.153629835E-01 -0.355656035E-01
   H -0.153363493E+02 -0.175926076E+01 -0.154058974E+01
   H  0.150853750E+02  0.114504673E+01 -0.529405407E+00
     4
 # iter = 40000  time[fs]=40.00000
   C -0.310482172E+01  0.226964136E-01  0.219061583E+00
   C  0.301399936E+01  0.144159118E-01 -0.364863759E-01
   H -0.156946087E+02 -0.180091239E+01 -0.157680876E+01
   H  0.154320221E+02  0.117059119E+01 -0.540902245E+00
     4
 # iter = 40500  time[fs]=40.50000
   C -0.318793028E+01  0.235226123E-01  0.225065534E+00
   C  0.309419524E+01  0.134685586E-01 -0.374205724E-01
   H -0.160531999E+02 -0.184260030E+01 -0.161305999E+01
   H  0.157790330E+02  0.119617220E+01 -0.552404706E+00
     4
 # iter = 41000  time[fs]=41.00000
   C -0.327139448E+01  0.243509262E-01  0.231087004E+00
   C  0.317474447E+01  0.125193428E-01 -0.383689909E-01
   H -0.164121164E+02 -0.188433102E+01 -0.164935015E+01
   H  0.161263840E+02  0.122178015E+01 -0.563920624E+00
     4
 # iter = 41500  time[fs]=41.50000
   C -0.335519670E+01  0.251810276E-01  0.237124819E+00
   C  0.325562883E+01  0.115679203E-01 -0.393312554E-01
   H -0.167713463E+02 -0.192610459E+01 -0.168567945E+01
   H  0.164740591E+02  0.124741212E+01 -0.575451257E+00
     4
 # iter = 42000  time[fs]=42.00000
   C -0.343931977E+01  0.260133719E-01  0.243178655E+00
   C  0.333683220E+01  0.106147882E-01 -0.403062055E-01
   H -0.171308739E+02 -0.196791667E+01 -0.172204374E+01
   H  0.168220475E+02  0.127306972E+01 -0.586993409E+00
     4
 # iter = 42500  time[fs]=42.50000
   C -0.352374777E+01  0.268482942E-01  0.249248125E+00
   C  0.341833946E+01  0.966032793E-02 -0.412928481E-01
   H -0.174906850E+02 -0.200976368E+01 -0.175843957E+01
   H  0.171703386E+02  0.129875399E+01 -0.598544570E+00
     4
 # iter = 43000  time[fs]=43.00000
   C -0.360846623E+01  0.276857377E-01  0.255332504E+00
   C  0.350013613E+01  0.870451600E-02 -0.422906416E-01
   H -0.178507684E+02 -0.205164434E+01 -0.179486582E+01
   H  0.175189205E+02  0.132446382E+01 -0.610104466E+00
     4
 # iter = 43500  time[fs]=43.50000
   C -0.369346178E+01  0.285255055E-01  0.261430973E+00
   C  0.358220857E+01  0.774718815E-02 -0.432992270E-01
   H -0.182111141E+02 -0.209355822E+01 -0.183132220E+01
   H  0.178677810E+02  0.135019735E+01 -0.621673627E+00
     4
 # iter = 44000  time[fs]=44.00000
   C -0.377872185E+01  0.293674909E-01  0.267542848E+00
   C  0.366454408E+01  0.678828165E-02 -0.443181822E-01
   H -0.185717125E+02 -0.213550446E+01 -0.186780797E+01
   H  0.182169091E+02  0.137595334E+01 -0.633252080E+00
     4
 # iter = 44500  time[fs]=44.50000
   C -0.386423455E+01  0.302116837E-01  0.273667583E+00
   C  0.374713089E+01  0.582784040E-02 -0.453470132E-01
   H -0.189325539E+02 -0.217748169E+01 -0.190432189E+01
   H  0.185662950E+02  0.140173111E+01 -0.644839317E+00
     4
 # iter = 45000  time[fs]=45.00000
   C -0.394998876E+01  0.310580822E-01  0.279804673E+00
   C  0.382995799E+01  0.486592094E-02 -0.463852448E-01
   H -0.192936290E+02 -0.221948857E+01 -0.194086272E+01
   H  0.189159295E+02  0.142753011E+01 -0.656434791E+00
     4
 # iter = 45500  time[fs]=45.50000
   C -0.403597404E+01  0.319066508E-01  0.285953616E+00
   C  0.391301501E+01  0.390254711E-02 -0.474324637E-01
   H -0.196549292E+02 -0.226152399E+01 -0.197742949E+01
   H  0.192658037E+02  0.145334962E+01 -0.668038164E+00
     4
 # iter = 46000  time[fs]=46.00000
   C -0.412218064E+01  0.327573354E-01  0.292113920E+00
   C  0.399629218E+01  0.293772494E-02 -0.484883005E-01
   H -0.200164465E+02 -0.230358703E+01 -0.201402134E+01
   H  0.196159090E+02  0.147918889E+01 -0.679649217E+00
     4
 # iter = 46500  time[fs]=46.50000
   C -0.420859935E+01  0.336100852E-01  0.298285125E+00
   C  0.407978034E+01  0.197146583E-02 -0.495524048E-01
   H -0.203781734E+02 -0.234567676E+01 -0.205063746E+01
   H  0.199662374E+02  0.150504718E+01 -0.691267723E+00
     4
 # iter = 47000  time[fs]=47.00000
   C -0.429522154E+01  0.344648579E-01  0.304466805E+00
   C  0.416347086E+01  0.100379111E-02 -0.506244384E-01
   H -0.207401025E+02 -0.238779229E+01 -0.208727705E+01
   H  0.203167813E+02  0.153092387E+01 -0.702893425E+00
     4
 # iter = 47500  time[fs]=47.50000
   C -0.438203903E+01  0.353216139E-01  0.310658559E+00
   C  0.424735561E+01  0.347254349E-04 -0.517040799E-01
   H -0.211022270E+02 -0.242993274E+01 -0.212393931E+01
   H  0.206675333E+02  0.155681837E+01 -0.714526063E+00
     4
 # iter = 48000  time[fs]=48.00000
   C -0.446904413E+01  0.361803122E-01  0.316860009E+00
   C  0.433142692E+01 -0.935707814E-03 -0.527910283E-01
   H -0.214645404E+02 -0.247209729E+01 -0.216062349E+01
   H  0.210184867E+02  0.158273010E+01 -0.726165401E+00
     4
 # iter = 48500  time[fs]=48.50000
   C -0.455622957E+01  0.370409106E-01  0.323070793E+00
   C  0.441567757E+01 -0.190748648E-02 -0.538850005E-01
   H -0.218270363E+02 -0.251428516E+01 -0.219732891E+01
   H  0.213696349E+02  0.160865852E+01 -0.737811221E+00
     4
 # iter = 49000  time[fs]=49.00000
   C -0.464358849E+01  0.379033674E-01  0.329290571E+00
   C  0.450010071E+01 -0.288058815E-02 -0.549857296E-01
   H -0.221897089E+02 -0.255649561E+01 -0.223405489E+01
   H  0.217209716E+02  0.163460309E+01 -0.749463318E+00
     4
 # iter = 49500  time[fs]=49.50000
   C -0.473111439E+01  0.387676424E-01  0.335519020E+00
   C  0.458468987E+01 -0.385498974E-02 -0.560929622E-01
   H -0.225525526E+02 -0.259872795E+01 -0.227080081E+01
   H  0.220724909E+02  0.166056331E+01 -0.761121494E+00
     4
 # iter = 50000  time[fs]=50.00000
   C -0.481880113E+01  0.396336959E-01  0.341755833E+00
   C  0.466943893E+01 -0.483066782E-02 -0.572064585E-01
   H -0.229155620E+02 -0.264098149E+01 -0.230756606E+01
   H  0.224241872E+02  0.168653872E+01 -0.772785559E+00
     4
 # iter = 50500  time[fs]=50.50000
   C -0.490664287E+01  0.405014892E-01  0.348000721E+00
   C  0.475434208E+01 -0.580759907E-02 -0.583259911E-01
   H -0.232787319E+02 -0.268325560E+01 -0.234435005E+01
   H  0.227760549E+02  0.171252886E+01 -0.784455330E+00
     4
 # iter = 51000  time[fs]=51.00000
   C -0.499463410E+01  0.413709844E-01  0.354253406E+00
   C  0.483939382E+01 -0.678576033E-02 -0.594513445E-01
   H -0.236420575E+02 -0.272554966E+01 -0.238115223E+01
   H  0.231280891E+02  0.173853328E+01 -0.796130635E+00
     4
 # iter = 51500  time[fs]=51.50000
   C -0.508276956E+01  0.422421441E-01  0.360513628E+00
   C  0.492458893E+01 -0.776512866E-02 -0.605823142E-01
   H -0.240055341E+02 -0.276786309E+01 -0.241797207E+01
   H  0.234802846E+02  0.176455158E+01 -0.807811310E+00
     4
 # iter = 52000  time[fs]=52.00000
   C -0.517104428E+01  0.431149320E-01  0.366781135E+00
   C  0.500992244E+01 -0.874568128E-02 -0.617187060E-01
   H -0.243691571E+02 -0.281019531E+01 -0.245480907E+01
   H  0.238326368E+02  0.179058336E+01 -0.819497196E+00
     4
 # iter = 52500  time[fs]=52.50000
   C -0.525945351E+01  0.439893125E-01  0.373055690E+00
   C  0.509538965E+01 -0.972739567E-02 -0.628603352E-01
   H -0.247329225E+02 -0.285254581E+01 -0.249166273E+01
   H  0.241851412E+02  0.181662824E+01 -0.831188142E+00
     4
 # iter = 53000  time[fs]=53.00000
   C -0.534799276E+01  0.448652512E-01  0.379337067E+00
   C  0.518098606E+01 -0.107102496E-01 -0.640070260E-01
   H -0.250968260E+02 -0.289491406E+01 -0.252853261E+01
   H  0.245377934E+02  0.184268584E+01 -0.842884003E+00
     4
 # iter = 53500  time[fs]=53.50000
   C -0.543665773E+01  0.457427141E-01  0.385625050E+00
   C  0.526670741E+01 -0.116942212E-01 -0.651586111E-01
   H -0.254608637E+02 -0.293729957E+01 -0.256541824E+01
   H  0.248905893E+02  0.186875583E+01 -0.854584642E+00
     4
 # iter = 54000  time[fs]=54.00000
   C -0.552544433E+01  0.466216684E-01  0.391919432E+00
   C  0.535254962E+01 -0.126792889E-01 -0.663149313E-01
   H -0.258250320E+02 -0.297970187E+01 -0.260231921E+01
   H  0.252435250E+02  0.189483786E+01 -0.866289925E+00
     4
 # iter = 54500  time[fs]=54.50000
   C -0.561434867E+01  0.475020819E-01  0.398220017E+00
   C  0.543850882E+01 -0.136654316E-01 -0.674758346E-01
   H -0.261893271E+02 -0.302212050E+01 -0.263923509E+01
   H  0.255965965E+02  0.192093161E+01 -0.877999725E+00
     4
 # iter = 55000  time[fs]=55.00000
   C -0.570336703E+01  0.483839234E-01  0.404526618E+00
   C  0.552458131E+01 -0.146526284E-01 -0.686411760E-01
   H -0.265537457E+02 -0.306455503E+01 -0.267616551E+01
   H  0.259498003E+02  0.194703678E+01 -0.889713920E+00
     4
 # iter = 55500  time[fs]=55.50000
   C -0.579249587E+01  0.492671624E-01  0.410839054E+00
   C  0.561076354E+01 -0.156408590E-01 -0.698108172E-01
   H -0.269182844E+02 -0.310700505E+01 -0.271311007E+01
   H  0.263031328E+02  0.197315307E+01 -0.901432392E+00
     4
 # iter = 56000  time[fs]=56.00000
   C -0.588173178E+01  0.501517694E-01  0.417157153E+00
   C  0.569705216E+01 -0.166301034E-01 -0.709846260E-01
   H -0.272829400E+02 -0.314947014E+01 -0.275006842E+01
   H  0.266565907E+02  0.199928018E+01 -0.913155028E+00
     4
 # iter = 56500  time[fs]=56.50000
   C -0.597107153E+01  0.510377153E-01  0.423480751E+00
   C  0.578344394E+01 -0.176203420E-01 -0.721624760E-01
   H -0.276477095E+02 -0.319194992E+01 -0.278704020E+01
   H  0.270101707E+02  0.202541785E+01 -0.924881721E+00
     4
 # iter = 57000  time[fs]=57.00000
   C -0.606051202E+01  0.519249722E-01  0.429809690E+00
   C  0.586993579E+01 -0.186115556E-01 -0.733442465E-01
   H -0.280125900E+02 -0.323444403E+01 -0.282402508E+01
   H  0.273638696E+02  0.205156580E+01 -0.936612367E+00
     4
 # iter = 57500  time[fs]=57.50000
   C -0.615005029E+01  0.528135127E-01  0.436143819E+00
   C  0.595652475E+01 -0.196037255E-01 -0.745298218E-01
   H -0.283775786E+02 -0.327695209E+01 -0.286102273E+01
   H  0.277176845E+02  0.207772380E+01 -0.948346864E+00
     4
 # iter = 58000  time[fs]=58.00000
   C -0.623968349E+01  0.537033102E-01  0.442482994E+00
   C  0.604320801E+01 -0.205968333E-01 -0.757190911E-01
   H -0.287426726E+02 -0.331947378E+01 -0.289803284E+01
   H  0.280716125E+02  0.210389158E+01 -0.960085116E+00
     4
 # iter = 58500  time[fs]=58.50000
   C -0.632940890E+01  0.545943388E-01  0.448827075E+00
   C  0.612998285E+01 -0.215908610E-01 -0.769119485E-01
   H -0.291078693E+02 -0.336200875E+01 -0.293505512E+01
   H  0.284256508E+02  0.213006891E+01 -0.971827031E+00
     4
 # iter = 59000  time[fs]=59.00000
   C -0.641922391E+01  0.554865733E-01  0.455175930E+00
   C  0.621684668E+01 -0.225857912E-01 -0.781082921E-01
   H -0.294731663E+02 -0.340455669E+01 -0.297208926E+01
   H  0.287797968E+02  0.215625557E+01 -0.983572519E+00
     4
 # iter = 59500  time[fs]=59.50000
   C -0.650912603E+01  0.563799892E-01  0.461529429E+00
   C  0.630379700E+01 -0.235816067E-01 -0.793080245E-01
   H -0.298385611E+02 -0.344711729E+01 -0.300913499E+01
   H  0.291340477E+02  0.218245134E+01 -0.995321494E+00
     4
 # iter = 60000  time[fs]=60.00000
   C -0.659911283E+01  0.572745627E-01  0.467887450E+00
   C  0.639083144E+01 -0.245782907E-01 -0.805110521E-01
   H -0.302040514E+02 -0.348969024E+01 -0.304619204E+01
   H  0.294884011E+02  0.220865599E+01 -0.100707387E+01
     4
 # iter = 60500  time[fs]=60.50000
   C -0.668918204E+01  0.581702706E-01  0.474249875E+00
   C  0.647794770E+01 -0.255758270E-01 -0.817172849E-01
   H -0.305696349E+02 -0.353227527E+01 -0.308326014E+01
   H  0.298428547E+02  0.223486933E+01 -0.101882957E+01
     4
 # iter = 61000  time[fs]=61.00000
   C -0.677933141E+01  0.590670902E-01  0.480616590E+00
   C  0.656514356E+01 -0.265741995E-01 -0.829266367E-01
   H -0.309353094E+02 -0.357487210E+01 -0.312033906E+01
   H  0.301974061E+02  0.226109116E+01 -0.103058852E+01
     4
 # iter = 61500  time[fs]=61.50000
   C -0.686955884E+01  0.599649996E-01  0.486987486E+00
   C  0.665241692E+01 -0.275733926E-01 -0.841390245E-01
   H -0.313010728E+02 -0.361748045E+01 -0.315742853E+01
   H  0.305520530E+02  0.228732129E+01 -0.104235064E+01
     4
 # iter = 62000  time[fs]=62.00000
   C -0.695986226E+01  0.608639774E-01  0.493362456E+00
   C  0.673976574E+01 -0.285733912E-01 -0.853543685E-01
   H -0.316669231E+02 -0.366010007E+01 -0.319452833E+01
   H  0.309067932E+02  0.231355953E+01 -0.105411585E+01
     4
 # iter = 62500  time[fs]=62.50000
   C -0.705023972E+01  0.617640027E-01  0.499741400E+00
   C  0.682718806E+01 -0.295741803E-01 -0.865725919E-01
   H -0.320328583E+02 -0.370273071E+01 -0.323163823E+01
   H  0.312616248E+02  0.233980571E+01 -0.106588410E+01
     4
 # iter = 63000  time[fs]=63.00000
   C -0.714068931E+01  0.626650554E-01  0.506124219E+00
   C  0.691468200E+01 -0.305757454E-01 -0.877936210E-01
   H -0.323988766E+02 -0.374537212E+01 -0.326875801E+01
   H  0.316165456E+02  0.236605964E+01 -0.107765530E+01
     4
 # iter = 63500  time[fs]=63.50000
   C -0.723120921E+01  0.635671157E-01  0.512510820E+00
   C  0.700224573E+01 -0.315780724E-01 -0.890173846E-01
   H -0.327649759E+02 -0.378802407E+01 -0.330588745E+01
   H  0.319715536E+02  0.239232117E+01 -0.108942940E+01
     4
 # iter = 64000  time[fs]=64.00000
   C -0.732179766E+01  0.644701643E-01  0.518901111E+00
   C  0.708987752E+01 -0.325811475E-01 -0.902438142E-01
   H -0.331311547E+02 -0.383068634E+01 -0.334302636E+01
   H  0.323266471E+02  0.241859013E+01 -0.110120634E+01
     4
 # iter = 64500  time[fs]=64.50000
   C -0.741245296E+01  0.653741825E-01  0.525295004E+00
   C  0.717757567E+01 -0.335849571E-01 -0.914728437E-01
   H -0.334974111E+02 -0.387335871E+01 -0.338017452E+01
   H  0.326818241E+02  0.244486636E+01 -0.111298604E+01
     4
 # iter = 65000  time[fs]=65.00000
   C -0.750317349E+01  0.662791523E-01  0.531692416E+00
   C  0.726533856E+01 -0.345894881E-01 -0.927044096E-01
   H -0.338637436E+02 -0.391604096E+01 -0.341733175E+01
   H  0.330370829E+02  0.247114972E+01 -0.112476846E+01
     4
 # iter = 65500  time[fs]=65.50000
   C -0.759395767E+01  0.671850557E-01  0.538093263E+00
   C  0.735316463E+01 -0.355947277E-01 -0.939384504E-01
   H -0.342301504E+02 -0.395873288E+01 -0.345449786E+01
   H  0.333924218E+02  0.249744005E+01 -0.113655353E+01
     4
 # iter = 66000  time[fs]=66.00000
   C -0.768480397E+01  0.680918755E-01  0.544497468E+00
   C  0.744105236E+01 -0.366006632E-01 -0.951749069E-01
   H -0.345966301E+02 -0.400143429E+01 -0.349167267E+01
   H  0.337478390E+02  0.252373721E+01 -0.114834120E+01
     4
 # iter = 66500  time[fs]=66.50000
   C -0.777571093E+01  0.689995949E-01  0.550904953E+00
   C  0.752900029E+01 -0.376072823E-01 -0.964137219E-01
   H -0.349631811E+02 -0.404414497E+01 -0.352885599E+01
   H  0.341033330E+02  0.255004107E+01 -0.116013142E+01
     4
 # iter = 67000  time[fs]=67.00000
   C -0.786667713E+01  0.699081975E-01  0.557315646E+00
   C  0.761700702E+01 -0.386145733E-01 -0.976548403E-01
   H -0.353298019E+02 -0.408686476E+01 -0.356604767E+01
   H  0.344589022E+02  0.257635149E+01 -0.117192413E+01
     4
 # iter = 67500  time[fs]=67.50000
   C -0.795770120E+01  0.708176672E-01  0.563729474E+00
   C  0.770507118E+01 -0.396225243E-01 -0.988982087E-01
   H -0.356964911E+02 -0.412959345E+01 -0.360324753E+01
   H  0.348145450E+02  0.260266833E+01 -0.118371929E+01
     4
 # iter = 68000  time[fs]=68.00000
   C -0.804878181E+01  0.717279886E-01  0.570146368E+00
   C  0.779319146E+01 -0.406311239E-01 -0.100143775E+00
   H -0.360632474E+02 -0.417233089E+01 -0.364045542E+01
   H  0.351702601E+02  0.262899148E+01 -0.119551683E+01
     4
 # iter = 68500  time[fs]=68.50000
   C -0.813991770E+01  0.726391464E-01  0.576566262E+00
   C  0.788136659E+01 -0.416403611E-01 -0.101391491E+00
   H -0.364300694E+02 -0.421507689E+01 -0.367767117E+01
   H  0.355260459E+02  0.265532081E+01 -0.120731673E+01
     4
 # iter = 69000  time[fs]=69.00000
   C -0.823110762E+01  0.735511259E-01  0.582989092E+00
   C  0.796959533E+01 -0.426502249E-01 -0.102641307E+00
   H -0.367969558E+02 -0.425783130E+01 -0.371489465E+01
   H  0.358819012E+02  0.268165620E+01 -0.121911892E+01
     4
 # iter = 69500  time[fs]=69.50000
   C -0.832235038E+01  0.744639125E-01  0.589414794E+00
   C  0.805787650E+01 -0.436607047E-01 -0.103893177E+00
   H -0.371639054E+02 -0.430059394E+01 -0.375212568E+01
   H  0.362378244E+02  0.270799753E+01 -0.123092337E+01
     4
 # iter = 70000  time[fs]=70.00000
   C -0.841364481E+01  0.753774922E-01  0.595843308E+00
   C  0.814620895E+01 -0.446717902E-01 -0.105147055E+00
   H -0.375309168E+02 -0.434336467E+01 -0.378936415E+01
   H  0.365938144E+02  0.273434470E+01 -0.124273003E+01
     4
 # iter = 70500  time[fs]=70.50000
   C -0.850498979E+01  0.762918513E-01  0.602274575E+00
   C  0.823459156E+01 -0.456834713E-01 -0.106402899E+00
   H -0.378979890E+02 -0.438614332E+01 -0.382660990E+01
   H  0.369498699E+02  0.276069759E+01 -0.125453886E+01
     4
 # iter = 71000  time[fs]=71.00000
   C -0.859638425E+01  0.772069764E-01  0.608708538E+00
   C  0.832302325E+01 -0.466957379E-01 -0.107660665E+00
   H -0.382651208E+02 -0.442892976E+01 -0.386386280E+01
   H  0.373059895E+02  0.278705609E+01 -0.126634981E+01
     4
 # iter = 71500  time[fs]=71.50000
   C -0.868782712E+01  0.781228544E-01  0.615145142E+00
   C  0.841150298E+01 -0.477085805E-01 -0.108920314E+00
   H -0.386323110E+02 -0.447172383E+01 -0.390112272E+01
   H  0.376621722E+02  0.281342011E+01 -0.127816286E+01
     4
 # iter = 72000  time[fs]=72.00000
   C -0.877931740E+01  0.790394726E-01  0.621584333E+00
   C  0.850002974E+01 -0.487219896E-01 -0.110181804E+00
   H -0.389995586E+02 -0.451452540E+01 -0.393838953E+01
   H  0.380184167E+02  0.283978954E+01 -0.128997795E+01
     4
 # iter = 72500  time[fs]=72.50000
   C -0.887085408E+01  0.799568185E-01  0.628026059E+00
   C  0.858860254E+01 -0.497359560E-01 -0.111445099E+00
   H -0.393668625E+02 -0.455733433E+01 -0.397566311E+01
   H  0.383747219E+02  0.286616429E+01 -0.130179506E+01
     4
 # iter = 73000  time[fs]=73.00000
   C -0.896243622E+01  0.808748800E-01  0.634470270E+00
   C  0.867722043E+01 -0.507504706E-01 -0.112710159E+00
   H -0.397342217E+02 -0.460015049E+01 -0.401294334E+01
   H  0.387310867E+02  0.289254426E+01 -0.131361414E+01
     4
 # iter = 73500  time[fs]=73.50000
   C -0.905406288E+01  0.817936453E-01  0.640916918E+00
   C  0.876588249E+01 -0.517655247E-01 -0.113976951E+00
   H -0.401016351E+02 -0.464297375E+01 -0.405023009E+01
   H  0.390875100E+02  0.291892936E+01 -0.132543516E+01
     4
 # iter = 74000  time[fs]=74.00000
   C -0.914573316E+01  0.827131028E-01  0.647365953E+00
   C  0.885458783E+01 -0.527811096E-01 -0.115245437E+00
   H -0.404691018E+02 -0.468580398E+01 -0.408752326E+01
   H  0.394439909E+02  0.294531949E+01 -0.133725808E+01
     4
 # iter = 74500  time[fs]=74.50000
   C -0.923744619E+01  0.836332411E-01  0.653817331E+00
   C  0.894333556E+01 -0.537972169E-01 -0.116515584E+00
   H -0.408366209E+02 -0.472864106E+01 -0.412482273E+01
   H  0.398005281E+02  0.297171457E+01 -0.134908288E+01
     4
 # iter = 75000  time[fs]=75.00000
   C -0.932920113E+01  0.845540492E-01  0.660271006E+00
   C  0.903212486E+01 -0.548138384E-01 -0.117787360E+00
   H -0.412041914E+02 -0.477148487E+01 -0.416212839E+01
   H  0.401571209E+02  0.299811452E+01 -0.136090951E+01
     4
 # iter = 75500  time[fs]=75.50000
   C -0.942099713E+01  0.854755164E-01  0.666726934E+00
   C  0.912095491E+01 -0.558309661E-01 -0.119060731E+00
   H -0.415718123E+02 -0.481433530E+01 -0.419944014E+01
   H  0.405137681E+02  0.302451924E+01 -0.137273795E+01
     4
 # iter = 76000  time[fs]=76.00000
   C -0.951283341E+01  0.863976322E-01  0.673185074E+00
   C  0.920982490E+01 -0.568485919E-01 -0.120335668E+00
   H -0.419394829E+02 -0.485719223E+01 -0.423675787E+01
   H  0.408704689E+02  0.305092867E+01 -0.138456816E+01
     4
 # iter = 76500  time[fs]=76.50000
   C -0.960470919E+01  0.873203862E-01  0.679645384E+00
   C  0.929873406E+01 -0.578667083E-01 -0.121612139E+00
   H -0.423072023E+02 -0.490005556E+01 -0.427408149E+01
   H  0.412272224E+02  0.307734271E+01 -0.139640011E+01
     4
 # iter = 77000  time[fs]=77.00000
   C -0.969662370E+01  0.882437683E-01  0.686107824E+00
   C  0.938768165E+01 -0.588853077E-01 -0.122890115E+00
   H -0.426749696E+02 -0.494292517E+01 -0.431141089E+01
   H  0.415840275E+02  0.310376130E+01 -0.140823378E+01
     4
 # iter = 77500  time[fs]=77.50000
   C -0.978857623E+01  0.891677689E-01  0.692572355E+00
   C  0.947666693E+01 -0.599043828E-01 -0.124169568E+00
   H -0.430427840E+02 -0.498580095E+01 -0.434874597E+01
   H  0.419408836E+02  0.313018436E+01 -0.142006913E+01
     4
 # iter = 78000  time[fs]=78.00000
   C -0.988056604E+01  0.900923782E-01  0.699038939E+00
   C  0.956568919E+01 -0.609239263E-01 -0.125450469E+00
   H -0.434106448E+02 -0.502868282E+01 -0.438608665E+01
   H  0.422977897E+02  0.315661180E+01 -0.143190614E+01
     4
 # iter = 78500  time[fs]=78.50000
   C -0.997259245E+01  0.910175868E-01  0.705507539E+00
   C  0.965474775E+01 -0.619439312E-01 -0.126732793E+00
   H -0.437785512E+02 -0.507157067E+01 -0.442343284E+01
   H  0.426547449E+02  0.318304358E+01 -0.144374477E+01
     4
 # iter = 79000  time[fs]=79.00000
   C -0.100646548E+02  0.919433857E-01  0.711978119E+00
   C  0.974384193E+01 -0.629643905E-01 -0.128016511E+00
   H -0.441465023E+02 -0.511446439E+01 -0.446078444E+01
   H  0.430117486E+02  0.320947960E+01 -0.145558501E+01
     4
 # iter = 79500  time[fs]=79.50000
   C -0.101567524E+02  0.928697658E-01  0.718450645E+00
   C  0.983297108E+01 -0.639852976E-01 -0.129301600E+00
   H -0.445144975E+02 -0.515736390E+01 -0.449814137E+01
   H  0.433687999E+02  0.323591981E+01 -0.146742683E+01
     4
 # iter = 80000  time[fs]=80.00000
   C -0.102488846E+02  0.937967183E-01  0.724925082E+00
   C  0.992213456E+01 -0.650066458E-01 -0.130588034E+00
   H -0.448825361E+02 -0.520026911E+01 -0.453550354E+01
   H  0.437258979E+02  0.326236413E+01 -0.147927019E+01
