     4
 # iter = 25000  time[fs]=25.00000
   C -0.100557591E+01  0.198776445E-01  0.525974331E-01
   C  0.105382219E+01 -0.480542993E-01 -0.260675003E-02
   H -0.524392036E+01 -0.609406523E+00 -0.591919712E+00
   H  0.537298645E+01  0.651415853E+00  0.232302456E+00
     4
 # iter = 25500  time[fs]=25.50000
   C -0.105675935E+01  0.209394668E-01  0.547552552E-01
   C  0.110083209E+01 -0.531614350E-01 -0.437960567E-02
   H -0.558288980E+01 -0.657077529E+00 -0.638349152E+00
   H  0.568644651E+01  0.686901127E+00  0.240495275E+00
     4
 # iter = 26000  time[fs]=26.00000
   C -0.111173433E+01  0.210941318E-01  0.559911614E-01
   C  0.114965116E+01 -0.593460917E-01 -0.719576260E-02
   H -0.592986706E+01 -0.710486175E+00 -0.690513961E+00
   H  0.599710478E+01  0.717342125E+00  0.243408013E+00
     4
 # iter = 26500  time[fs]=26.50000
   C -0.116722268E+01  0.233669574E-01  0.593299304E-01
   C  0.120290301E+01 -0.637290807E-01 -0.817746736E-02
   H -0.626847159E+01 -0.753515957E+00 -0.732297486E+00
   H  0.632078959E+01  0.758798460E+00  0.257123829E+00
     4
 # iter = 27000  time[fs]=27.00000
   C -0.122284919E+01  0.279011274E-01  0.649145666E-01
   C  0.126050384E+01 -0.661614619E-01 -0.717735819E-02
   H -0.659766284E+01 -0.785340114E+00 -0.762872934E+00
   H  0.665805968E+01  0.812034322E+00  0.282427972E+00
     4
 # iter = 27500  time[fs]=27.50000
   C -0.128066503E+01  0.324340509E-01  0.704825634E-01
   C  0.132011276E+01 -0.687734914E-01 -0.632734950E-02
   H -0.692920299E+01 -0.817895236E+00 -0.794176938E+00
   H  0.699672736E+01  0.865045526E+00  0.307335190E+00
     4
 # iter = 28000  time[fs]=28.00000
   C -0.134208138E+01  0.353632811E-01  0.744317585E-01
   C  0.138003337E+01 -0.730708605E-01 -0.713476758E-02
   H -0.727138309E+01 -0.859622970E+00 -0.834651209E+00
   H  0.732813725E+01  0.909334233E+00  0.323363911E+00
     4
 # iter = 28500  time[fs]=28.50000
   C -0.140628669E+01  0.373280444E-01  0.774018086E-01
   C  0.144070982E+01 -0.784368467E-01 -0.898444716E-02
   H -0.762062761E+01 -0.907082920E+00 -0.880855413E+00
   H  0.765556101E+01  0.948304122E+00  0.333931404E+00
     4
 # iter = 29000  time[fs]=29.00000
   C -0.147154895E+01  0.399053269E-01  0.809702231E-01
   C  0.150349063E+01 -0.833672993E-01 -0.103737233E-01
   H -0.796840794E+01 -0.951866562E+00 -0.924381090E+00
   H  0.798726821E+01  0.990337698E+00  0.347431782E+00
     4
 # iter = 29500  time[fs]=29.50000
   C -0.153718721E+01  0.436365830E-01  0.856790316E-01
   C  0.156875866E+01 -0.873395670E-01 -0.107813760E-01
   H -0.831170719E+01 -0.991060941E+00 -0.962315358E+00
   H  0.832604365E+01  0.103832006E+01  0.366760492E+00
     4
 # iter = 30000  time[fs]=30.00000
   C -0.160384686E+01  0.477509144E-01  0.907579345E-01
   C  0.163566748E+01 -0.910746598E-01 -0.109297891E-01
   H -0.865448606E+01 -0.102871622E+01 -0.998708466E+00
   H  0.866771473E+01  0.108816904E+01  0.387844752E+00
     4
 # iter = 30500  time[fs]=30.50000
   C -0.167227402E+01  0.513893132E-01  0.953485315E-01
   C  0.170329920E+01 -0.953777372E-01 -0.116254221E-01
   H -0.900118669E+01 -0.106935319E+01 -0.103808129E+01
   H  0.900765058E+01  0.113533441E+01  0.406142732E+00
     4
 # iter = 31000  time[fs]=31.00000
   C -0.174238297E+01  0.545359370E-01  0.994355850E-01
   C  0.177154502E+01 -0.100256061E+00 -0.128767519E-01
   H -0.935179091E+01 -0.111302439E+01 -0.108048645E+01
   H  0.934570582E+01  0.117974181E+01  0.421587480E+00
     4
 # iter = 31500  time[fs]=31.50000
   C -0.181352834E+01  0.577447120E-01  0.103573614E+00
   C  0.184084516E+01 -0.105177882E+00 -0.141531602E-01
   H -0.970326875E+01 -0.115676366E+01 -0.112295786E+01
   H  0.968476768E+01  0.122434126E+01  0.437135542E+00
     4
 # iter = 32000  time[fs]=32.00000
   C -0.188528530E+01  0.613579683E-01  0.108105522E+00
   C  0.191144784E+01 -0.109812411E+00 -0.151249175E-01
   H -0.100537215E+02 -0.119872949E+01 -0.116365409E+01
   H  0.100266059E+02  0.127095883E+01  0.454618892E+00
     4
 # iter = 32500  time[fs]=32.50000
   C -0.195772882E+01  0.652262054E-01  0.112882357E+00
   C  0.198314300E+01 -0.114295188E+00 -0.159285529E-01
   H -0.104038671E+02 -0.123969081E+01 -0.120334413E+01
   H  0.103703837E+02  0.131880892E+01  0.473257303E+00
     4
 # iter = 33000  time[fs]=33.00000
   C -0.203109627E+01  0.690446059E-01  0.117599824E+00
   C  0.205558012E+01 -0.118909333E+00 -0.168481095E-01
   H -0.107552543E+02 -0.128124223E+01 -0.124362268E+01
   H  0.107144440E+02  0.136628084E+01  0.491444961E+00
     4
 # iter = 33500  time[fs]=33.50000
   C -0.210541749E+01  0.727221900E-01  0.122167440E+00
   C  0.212861705E+01 -0.123735886E+00 -0.179654869E-01
   H -0.111083040E+02 -0.132384620E+01 -0.128495224E+01
   H  0.110582690E+02  0.141289864E+01  0.508710349E+00
     4
 # iter = 34000  time[fs]=34.00000
   C -0.218051048E+01  0.763854746E-01  0.126712189E+00
   C  0.220232286E+01 -0.128650303E+00 -0.191569405E-01
   H -0.114622888E+02 -0.136681340E+01 -0.132664357E+01
   H  0.114024988E+02  0.145934058E+01  0.525735739E+00
     4
 # iter = 34500  time[fs]=34.50000
   C -0.225620093E+01  0.801582920E-01  0.131358346E+00
   C  0.227676871E+01 -0.133530952E+00 -0.203015796E-01
   H -0.118165007E+02 -0.140947025E+01 -0.136802314E+01
   H  0.117477624E+02  0.150627018E+01  0.543188322E+00
     4
 # iter = 35000  time[fs]=35.00000
   C -0.233244692E+01  0.840365843E-01  0.136102270E+00
   C  0.235190879E+01 -0.138377654E+00 -0.213999185E-01
   H -0.121709141E+02 -0.145182275E+01 -0.140909698E+01
   H  0.120940121E+02  0.155367154E+01  0.561055575E+00
     4
 # iter = 35500  time[fs]=35.50000
   C -0.240928032E+01  0.879464695E-01  0.140870469E+00
   C  0.242763490E+01 -0.143256665E+00 -0.225188586E-01
   H -0.125258777E+02 -0.149424837E+01 -0.145024266E+01
   H  0.124408319E+02  0.160115766E+01  0.578953599E+00
     4
 # iter = 36000  time[fs]=36.00000
   C -0.248670365E+01  0.918470400E-01  0.145622402E+00
   C  0.250387333E+01 -0.148203294E+00 -0.236943076E-01
   H -0.128815686E+02 -0.153695082E+01 -0.149166392E+01
   H  0.127879827E+02  0.164851624E+01  0.596672932E+00
     4
 # iter = 36500  time[fs]=36.50000
   C -0.256466616E+01  0.957538585E-01  0.150373977E+00
   C  0.258060684E+01 -0.153199621E+00 -0.249089054E-01
   H -0.132378680E+02 -0.157983537E+01 -0.153326607E+01
   H  0.131355271E+02  0.169583440E+01  0.614303343E+00
     4
 # iter = 37000  time[fs]=37.00000
   C -0.264310692E+01  0.996955638E-01  0.155154156E+00
   C  0.265783325E+01 -0.158215573E+00 -0.261331024E-01
   H -0.135945900E+02 -0.162273882E+01 -0.157488596E+01
   H  0.134835986E+02  0.174326838E+01  0.632003498E+00
     4
 # iter = 37500  time[fs]=37.50000
   C -0.272199018E+01  0.103678218E+00  0.159969303E+00
   C  0.273553134E+01 -0.163242673E+00 -0.273589079E-01
   H -0.139516713E+02 -0.166561853E+01 -0.161648101E+01
   H  0.138322124E+02  0.179085425E+01  0.649811721E+00
     4
 # iter = 38000  time[fs]=38.00000
   C -0.280130121E+01  0.107689224E+00  0.164807106E+00
   C  0.281366442E+01 -0.168290308E+00 -0.285961652E-01
   H -0.143091497E+02 -0.170853158E+01 -0.165810832E+01
   H  0.141812857E+02  0.183852873E+01  0.667666835E+00
     4
 # iter = 38500  time[fs]=38.50000
   C -0.288102569E+01  0.111717654E+00  0.169656905E+00
   C  0.289219929E+01 -0.173366460E+00 -0.298532822E-01
   H -0.146670564E+02 -0.175152686E+01 -0.169981682E+01
   H  0.145307459E+02  0.188623718E+01  0.685516137E+00
     4
 # iter = 39000  time[fs]=39.00000
   C -0.296114106E+01  0.115762785E+00  0.174518226E+00
   C  0.297111420E+01 -0.178469611E+00 -0.311291397E-01
   H -0.150253702E+02 -0.179459977E+01 -0.174160196E+01
   H  0.148805755E+02  0.193397888E+01  0.703360721E+00
     4
 # iter = 39500  time[fs]=39.50000
   C -0.304162193E+01  0.119828430E+00  0.179395119E+00
   C  0.305039324E+01 -0.183594096E+00 -0.324184452E-01
   H -0.153840477E+02 -0.183772223E+01 -0.178343569E+01
   H  0.152307820E+02  0.198177697E+01  0.721225429E+00
     4
 # iter = 40000  time[fs]=40.00000
   C -0.312244697E+01  0.123915938E+00  0.184289153E+00
   C  0.313001965E+01 -0.188736719E+00 -0.337183532E-01
   H -0.157430599E+02 -0.188087977E+01 -0.182530357E+01
   H  0.155813608E+02  0.202964133E+01  0.739121714E+00
     4
 # iter = 40500  time[fs]=40.50000
   C -0.320359956E+01  0.128023356E+00  0.189198584E+00
   C  0.320997483E+01 -0.193897534E+00 -0.350292480E-01
   H -0.161023970E+02 -0.192407587E+01 -0.186720912E+01
   H  0.159322904E+02  0.207756411E+01  0.757043220E+00
     4
 # iter = 41000  time[fs]=41.00000
   C -0.328506489E+01  0.132148262E+00  0.194121184E+00
   C  0.329024093E+01 -0.199077159E+00 -0.363520556E-01
   H -0.164620530E+02 -0.196731697E+01 -0.190915881E+01
   H  0.162835477E+02  0.212553482E+01  0.774980827E+00
     4
 # iter = 41500  time[fs]=41.50000
   C -0.336682801E+01  0.136289529E+00  0.199056012E+00
   C  0.337080241E+01 -0.204275088E+00 -0.376865596E-01
   H -0.168220159E+02 -0.201060303E+01 -0.195115262E+01
   H  0.166351169E+02  0.217354968E+01  0.792932072E+00
     4
 # iter = 42000  time[fs]=42.00000
   C -0.344887420E+01  0.140446928E+00  0.204003013E+00
   C  0.345164558E+01 -0.209490064E+00 -0.390317776E-01
   H -0.171822705E+02 -0.205392963E+01 -0.199318616E+01
   H  0.169869876E+02  0.222160953E+01  0.810899015E+00
     4
 # iter = 42500  time[fs]=42.50000
   C -0.353118979E+01  0.144620150E+00  0.208962039E+00
   C  0.353275756E+01 -0.214720996E+00 -0.403868754E-01
   H -0.175428027E+02 -0.209729311E+01 -0.203525580E+01
   H  0.173391498E+02  0.226971466E+01  0.828883099E+00
     4
 # iter = 43000  time[fs]=43.00000
   C -0.361376240E+01  0.148808511E+00  0.213932564E+00
   C  0.361412597E+01 -0.219967230E+00 -0.417514418E-01
   H -0.179036014E+02 -0.214069212E+01 -0.207736020E+01
   H  0.176915917E+02  0.231786325E+01  0.846883593E+00
     4
 # iter = 43500  time[fs]=43.50000
   C -0.369658060E+01  0.153011222E+00  0.218913943E+00
   C  0.369573907E+01 -0.225228290E+00 -0.431252312E-01
   H -0.182646571E+02 -0.218412616E+01 -0.211949891E+01
   H  0.180443015E+02  0.236605279E+01  0.864899016E+00
     4
 # iter = 44000  time[fs]=44.00000
   C -0.377963360E+01  0.157227626E+00  0.223905656E+00
   C  0.377758597E+01 -0.230503646E+00 -0.445079289E-01
   H -0.186259601E+02 -0.222759429E+01 -0.216167100E+01
   H  0.183972685E+02  0.241428141E+01  0.882928443E+00
     4
 # iter = 44500  time[fs]=44.50000
   C -0.386291118E+01  0.161457205E+00  0.228907316E+00
   C  0.385965652E+01 -0.235792701E+00 -0.458991431E-01
   H -0.189875010E+02 -0.227109510E+01 -0.220387507E+01
   H  0.187504833E+02  0.246254783E+01  0.900971537E+00
     4
 # iter = 45000  time[fs]=45.00000
   C -0.394640373E+01  0.165699484E+00  0.233918572E+00
   C  0.394194122E+01 -0.241094882E+00 -0.472984934E-01
   H -0.193492707E+02 -0.231462718E+01 -0.224610975E+01
   H  0.191039369E+02  0.251085095E+01  0.919028040E+00
     4
 # iter = 45500  time[fs]=45.50000
   C -0.403010225E+01  0.169953979E+00  0.238939056E+00
   C  0.402443113E+01 -0.246409676E+00 -0.487056520E-01
   H -0.197112607E+02 -0.235818938E+01 -0.228837390E+01
   H  0.194576207E+02  0.255918952E+01  0.937097532E+00
     4
 # iter = 46000  time[fs]=46.00000
   C -0.411399829E+01  0.174220215E+00  0.243968404E+00
   C  0.410711778E+01 -0.251736619E+00 -0.501203281E-01
   H -0.200734632E+02 -0.240178069E+01 -0.233066654E+01
   H  0.198115264E+02  0.260756226E+01  0.955179509E+00
     4
 # iter = 46500  time[fs]=46.50000
   C -0.419808389E+01  0.178497745E+00  0.249006275E+00
   C  0.418999323E+01 -0.257075268E+00 -0.515422435E-01
   H -0.204358707E+02 -0.244540018E+01 -0.237298673E+01
   H  0.201656462E+02  0.265596797E+01  0.973273514E+00
     4
 # iter = 47000  time[fs]=47.00000
   C -0.428235153E+01  0.182786156E+00  0.254052352E+00
   C  0.427304999E+01 -0.262425195E+00 -0.529711271E-01
   H -0.207984762E+02 -0.248904687E+01 -0.241533354E+01
   H  0.205199726E+02  0.270440556E+01  0.991379154E+00
     4
 # iter = 47500  time[fs]=47.50000
   C -0.436679413E+01  0.187085056E+00  0.259106342E+00
   C  0.435628098E+01 -0.267785994E+00 -0.544067197E-01
   H -0.211612728E+02 -0.253271986E+01 -0.245770607E+01
   H  0.208744989E+02  0.275287401E+01  0.100949607E+01
     4
 # iter = 48000  time[fs]=48.00000
   C -0.445140498E+01  0.191394074E+00  0.264167961E+00
   C  0.443967953E+01 -0.273157278E+00 -0.558487778E-01
   H -0.215242541E+02 -0.257641827E+01 -0.250010345E+01
   H  0.212292181E+02  0.280137233E+01  0.102762391E+01
     4
 # iter = 48500  time[fs]=48.50000
   C -0.453617775E+01  0.195712855E+00  0.269236941E+00
   C  0.452323933E+01 -0.278538683E+00 -0.572970715E-01
   H -0.218874141E+02 -0.262014129E+01 -0.254252490E+01
   H  0.215841242E+02  0.284989957E+01  0.104576233E+01
     4
 # iter = 49000  time[fs]=49.00000
   C -0.462110644E+01  0.200041062E+00  0.274313026E+00
   C  0.460695439E+01 -0.283929864E+00 -0.587513832E-01
   H -0.222507469E+02 -0.266388814E+01 -0.258496965E+01
   H  0.219392109E+02  0.289845483E+01  0.106391101E+01
     4
 # iter = 49500  time[fs]=49.50000
   C -0.470618538E+01  0.204378376E+00  0.279395974E+00
   C  0.469081906E+01 -0.289330491E+00 -0.602115053E-01
   H -0.226142471E+02 -0.270765808E+01 -0.262743698E+01
   H  0.222944726E+02  0.294703726E+01  0.108206962E+01
     4
 # iter = 50000  time[fs]=50.00000
   C -0.479140917E+01  0.208724493E+00  0.284485554E+00
   C  0.477482796E+01 -0.294740250E+00 -0.616772407E-01
   H -0.229779092E+02 -0.275145040E+01 -0.266992618E+01
   H  0.226499038E+02  0.299564602E+01  0.110023788E+01
     4
 # iter = 50500  time[fs]=50.50000
   C -0.487677272E+01  0.213079122E+00  0.289581547E+00
   C  0.485897601E+01 -0.300158844E+00 -0.631484016E-01
   H -0.233417284E+02 -0.279526442E+01 -0.271243660E+01
   H  0.230054992E+02  0.304428034E+01  0.111841551E+01
     4
 # iter = 51000  time[fs]=51.00000
   C -0.496227116E+01  0.217441989E+00  0.294683744E+00
   C  0.494325837E+01 -0.305585987E+00 -0.646248095E-01
   H -0.237056998E+02 -0.283909950E+01 -0.275496759E+01
   H  0.233612540E+02  0.309293947E+01  0.113660222E+01
     4
 # iter = 51500  time[fs]=51.50000
   C -0.504789990E+01  0.221812829E+00  0.299791947E+00
   C  0.502767045E+01 -0.311021408E+00 -0.661062941E-01
   H -0.240698188E+02 -0.288295502E+01 -0.279751856E+01
   H  0.237171632E+02  0.314162269E+01  0.115479776E+01
     4
 # iter = 52000  time[fs]=52.00000
   C -0.513365453E+01  0.226191392E+00  0.304905966E+00
   C  0.511220787E+01 -0.316464849E+00 -0.675926934E-01
   H -0.244340810E+02 -0.292683039E+01 -0.284008892E+01
   H  0.240732225E+02  0.319032931E+01  0.117300189E+01
     4
 # iter = 52500  time[fs]=52.50000
   C -0.521953090E+01  0.230577438E+00  0.310025619E+00
   C  0.519686647E+01 -0.321916062E+00 -0.690838525E-01
   H -0.247984824E+02 -0.297072504E+01 -0.288267812E+01
   H  0.244294273E+02  0.323905869E+01  0.119121436E+01
     4
 # iter = 53000  time[fs]=53.00000
   C -0.530552502E+01  0.234970739E+00  0.315150734E+00
   C  0.528164230E+01 -0.327374810E+00 -0.705796238E-01
   H -0.251630188E+02 -0.301463843E+01 -0.292528563E+01
   H  0.247857735E+02  0.328781017E+01  0.120943494E+01
     4
 # iter = 53500  time[fs]=53.50000
   C -0.539163310E+01  0.239371076E+00  0.320281145E+00
   C  0.536653158E+01 -0.332840869E+00 -0.720798661E-01
   H -0.255276864E+02 -0.305857004E+01 -0.296791095E+01
   H  0.251422572E+02  0.333658318E+01  0.122766342E+01
     4
 # iter = 54000  time[fs]=54.00000
   C -0.547785153E+01  0.243778238E+00  0.325416694E+00
   C  0.545153070E+01 -0.338314021E+00 -0.735844445E-01
   H -0.258924816E+02 -0.310251937E+01 -0.301055357E+01
   H  0.254988745E+02  0.338537711E+01  0.124589959E+01
     4
 # iter = 54500  time[fs]=54.50000
   C -0.556417686E+01  0.248192027E+00  0.330557231E+00
   C  0.553663622E+01 -0.343794061E+00 -0.750932301E-01
   H -0.262574008E+02 -0.314648595E+01 -0.305321303E+01
   H  0.258556217E+02  0.343419142E+01  0.126414324E+01
     4
 # iter = 55000  time[fs]=55.00000
   C -0.565060580E+01  0.252612251E+00  0.335702610E+00
   C  0.562184487E+01 -0.349280789E+00 -0.766060995E-01
   H -0.266224407E+02 -0.319046931E+01 -0.309588889E+01
   H  0.262124954E+02  0.348302557E+01  0.128239418E+01
     4
 # iter = 55500  time[fs]=55.50000
   C -0.573713520E+01  0.257038725E+00  0.340852693E+00
   C  0.570715351E+01 -0.354774017E+00 -0.781229343E-01
   H -0.269875979E+02 -0.323446902E+01 -0.313858071E+01
   H  0.265694920E+02  0.353187905E+01  0.130065222E+01
     4
 # iter = 56000  time[fs]=56.00000
   C -0.582376204E+01  0.261471273E+00  0.346007347E+00
   C  0.579255914E+01 -0.360273561E+00 -0.796436213E-01
   H -0.273528694E+02 -0.327848464E+01 -0.318128808E+01
   H  0.269266085E+02  0.358075136E+01  0.131891718E+01
     4
 # iter = 56500  time[fs]=56.50000
   C -0.591048344E+01  0.265909727E+00  0.351166444E+00
   C  0.587805888E+01 -0.365779249E+00 -0.811680520E-01
   H -0.277182522E+02 -0.332251578E+01 -0.322401059E+01
   H  0.272838416E+02  0.362964203E+01  0.133718889E+01
     4
 # iter = 57000  time[fs]=57.00000
   C -0.599729666E+01  0.270353924E+00  0.356329862E+00
   C  0.596365000E+01 -0.371290911E+00 -0.826961222E-01
   H -0.280837434E+02 -0.336656205E+01 -0.326674787E+01
   H  0.276411883E+02  0.367855059E+01  0.135546718E+01
     4
 # iter = 57500  time[fs]=57.50000
   C -0.608419903E+01  0.274803709E+00  0.361497485E+00
   C  0.604932985E+01 -0.376808387E+00 -0.842277320E-01
   H -0.284493402E+02 -0.341062305E+01 -0.330949954E+01
   H  0.279986458E+02  0.372747662E+01  0.137375189E+01
     4
 # iter = 58000  time[fs]=58.00000
   C -0.617118804E+01  0.279258932E+00  0.366669199E+00
   C  0.613509592E+01 -0.382331522E+00 -0.857627853E-01
   H -0.288150400E+02 -0.345469843E+01 -0.335226525E+01
   H  0.283562113E+02  0.377641967E+01  0.139204287E+01
     4
 # iter = 58500  time[fs]=58.50000
   C -0.625826126E+01  0.283719450E+00  0.371844896E+00
   C  0.622094578E+01 -0.387860168E+00 -0.873011901E-01
   H -0.291808402E+02 -0.349878785E+01 -0.339504465E+01
   H  0.287138821E+02  0.382537935E+01  0.141033997E+01
     4
 # iter = 59000  time[fs]=59.00000
   C -0.634541634E+01  0.288185123E+00  0.377024471E+00
   C  0.630687711E+01 -0.393394181E+00 -0.888428577E-01
   H -0.295467384E+02 -0.354289095E+01 -0.343783742E+01
   H  0.290716556E+02  0.387435526E+01  0.142864304E+01
     4
 # iter = 59500  time[fs]=59.50000
   C -0.643265107E+01  0.292655820E+00  0.382207825E+00
   C  0.639288770E+01 -0.398933425E+00 -0.903877029E-01
   H -0.299127320E+02 -0.358700743E+01 -0.348064324E+01
   H  0.294295293E+02  0.392334702E+01  0.144695194E+01
     4
 # iter = 60000  time[fs]=60.00000
   C -0.651996328E+01  0.297131412E+00  0.387394861E+00
   C  0.647897538E+01 -0.404477765E+00 -0.919356438E-01
   H -0.302788190E+02 -0.363113695E+01 -0.352346179E+01
   H  0.297875008E+02  0.397235425E+01  0.146526655E+01
     4
 # iter = 60500  time[fs]=60.50000
   C -0.660735091E+01  0.301611776E+00  0.392585487E+00
   C  0.656513812E+01 -0.410027076E+00 -0.934866014E-01
   H -0.306449969E+02 -0.367527923E+01 -0.356629279E+01
   H  0.301455679E+02  0.402137661E+01  0.148358673E+01
     4
 # iter = 61000  time[fs]=61.00000
   C -0.669481198E+01  0.306096793E+00  0.397779613E+00
   C  0.665137393E+01 -0.415581233E+00 -0.950404999E-01
   H -0.310112638E+02 -0.371943396E+01 -0.360913594E+01
   H  0.305037283E+02  0.407041375E+01  0.150191235E+01
     4
 # iter = 61500  time[fs]=61.50000
   C -0.678234458E+01  0.310586349E+00  0.402977152E+00
   C  0.673768091E+01 -0.421140119E+00 -0.965972659E-01
   H -0.313776175E+02 -0.376360086E+01 -0.365199098E+01
   H  0.308619797E+02  0.411946534E+01  0.152024329E+01
     4
 # iter = 62000  time[fs]=62.00000
   C -0.686994687E+01  0.315080334E+00  0.408178023E+00
   C  0.682405723E+01 -0.426703619E+00 -0.981568291E-01
   H -0.317440560E+02 -0.380777967E+01 -0.369485762E+01
   H  0.312203203E+02  0.416853106E+01  0.153857945E+01
     4
 # iter = 62500  time[fs]=62.50000
   C -0.695761708E+01  0.319578641E+00  0.413382144E+00
   C  0.691050113E+01 -0.432271622E+00 -0.997191214E-01
   H -0.321105774E+02 -0.385197011E+01 -0.373773562E+01
   H  0.315787478E+02  0.421761059E+01  0.155692069E+01
     4
 # iter = 63000  time[fs]=63.00000
   C -0.704535351E+01  0.324081167E+00  0.418589439E+00
   C  0.699701090E+01 -0.437844024E+00 -0.101284077E+00
   H -0.324771799E+02 -0.389617194E+01 -0.378062472E+01
   H  0.319372605E+02  0.426670364E+01  0.157526692E+01
     4
 # iter = 63500  time[fs]=63.50000
   C -0.713315452E+01  0.328587813E+00  0.423799832E+00
   C  0.708358493E+01 -0.443420720E+00 -0.102851633E+00
   H -0.328438616E+02 -0.394038490E+01 -0.382352469E+01
   H  0.322958564E+02  0.431580993E+01  0.159361803E+01
     4
 # iter = 64000  time[fs]=64.00000
   C -0.722101852E+01  0.333098484E+00  0.429013253E+00
   C  0.717022163E+01 -0.449001611E+00 -0.104421728E+00
   H -0.332106209E+02 -0.398460875E+01 -0.386643528E+01
   H  0.326545336E+02  0.436492915E+01  0.161197392E+01
     4
 # iter = 64500  time[fs]=64.50000
   C -0.730894398E+01  0.337613087E+00  0.434229631E+00
   C  0.725691947E+01 -0.454586602E+00 -0.105994303E+00
   H -0.335774560E+02 -0.402884327E+01 -0.390935627E+01
   H  0.330132905E+02  0.441406106E+01  0.163033448E+01
     4
 # iter = 65000  time[fs]=65.00000
   C -0.739692944E+01  0.342131532E+00  0.439448898E+00
   C  0.734367700E+01 -0.460175601E+00 -0.107569302E+00
   H -0.339443652E+02 -0.407308822E+01 -0.395228745E+01
   H  0.333721253E+02  0.446320537E+01  0.164869962E+01
     4
 # iter = 65500  time[fs]=65.50000
   C -0.748497347E+01  0.346653734E+00  0.444670991E+00
   C  0.743049279E+01 -0.465768516E+00 -0.109146668E+00
   H -0.343113471E+02 -0.411734340E+01 -0.399522859E+01
   H  0.337310364E+02  0.451236184E+01  0.166706924E+01
     4
 # iter = 66000  time[fs]=66.00000
   C -0.757307470E+01  0.351179609E+00  0.449895846E+00
   C  0.751736549E+01 -0.471365263E+00 -0.110726349E+00
   H -0.346784001E+02 -0.416160859E+01 -0.403817951E+01
   H  0.340900221E+02  0.456153022E+01  0.168544326E+01
     4
 # iter = 66500  time[fs]=66.50000
   C -0.766123181E+01  0.355709075E+00  0.455123402E+00
   C  0.760429377E+01 -0.476965756E+00 -0.112308294E+00
   H -0.350455227E+02 -0.420588358E+01 -0.408113998E+01
   H  0.344490810E+02  0.461071026E+01  0.170382159E+01
     4
 # iter = 67000  time[fs]=67.00000
   C -0.774944351E+01  0.360242055E+00  0.460353601E+00
   C  0.769127635E+01 -0.482569915E+00 -0.113892452E+00
   H -0.354127135E+02 -0.425016819E+01 -0.412410983E+01
   H  0.348082115E+02  0.465990174E+01  0.172220414E+01
     4
 # iter = 67500  time[fs]=67.50000
   C -0.783770856E+01  0.364778473E+00  0.465586386E+00
   C  0.777831201E+01 -0.488177661E+00 -0.115478775E+00
   H -0.357799711E+02 -0.429446221E+01 -0.416708886E+01
   H  0.351674122E+02  0.470910443E+01  0.174059083E+01
     4
 # iter = 68000  time[fs]=68.00000
   C -0.792602576E+01  0.369318256E+00  0.470821701E+00
   C  0.786539955E+01 -0.493788918E+00 -0.117067216E+00
   H -0.361472941E+02 -0.433876546E+01 -0.421007689E+01
   H  0.355266816E+02  0.475831810E+01  0.175898157E+01
     4
 # iter = 68500  time[fs]=68.50000
   C -0.801439397E+01  0.373861332E+00  0.476059493E+00
   C  0.795253781E+01 -0.499403613E+00 -0.118657731E+00
   H -0.365146812E+02 -0.438307776E+01 -0.425307374E+01
   H  0.358860184E+02  0.480754255E+01  0.177737630E+01
     4
 # iter = 69000  time[fs]=69.00000
   C -0.810281206E+01  0.378407632E+00  0.481299710E+00
   C  0.803972569E+01 -0.505021673E+00 -0.120250276E+00
   H -0.368821312E+02 -0.442739894E+01 -0.429607925E+01
   H  0.362454212E+02  0.485677757E+01  0.179577493E+01
     4
 # iter = 69500  time[fs]=69.50000
   C -0.819127893E+01  0.382957090E+00  0.486542302E+00
   C  0.812696209E+01 -0.510643029E+00 -0.121844807E+00
   H -0.372496428E+02 -0.447172882E+01 -0.433909325E+01
   H  0.366048889E+02  0.490602295E+01  0.181417739E+01
     4
 # iter = 70000  time[fs]=70.00000
   C -0.827979355E+01  0.387509642E+00  0.491787221E+00
   C  0.821424599E+01 -0.516267615E+00 -0.123441285E+00
   H -0.376172149E+02 -0.451606724E+01 -0.438211557E+01
   H  0.369644200E+02  0.495527851E+01  0.183258362E+01
     4
 # iter = 70500  time[fs]=70.50000
   C -0.836835490E+01  0.392065223E+00  0.497034418E+00
   C  0.830157635E+01 -0.521895364E+00 -0.125039668E+00
   H -0.379848462E+02 -0.456041404E+01 -0.442514605E+01
   H  0.373240134E+02  0.500454405E+01  0.185099353E+01
     4
 # iter = 71000  time[fs]=71.00000
   C -0.845696198E+01  0.396623774E+00  0.502283849E+00
   C  0.838895221E+01 -0.527526215E+00 -0.126639919E+00
   H -0.383525356E+02 -0.460476905E+01 -0.446818455E+01
   H  0.376836679E+02  0.505381938E+01  0.186940706E+01
     4
 # iter = 71500  time[fs]=71.50000
   C -0.854561385E+01  0.401185236E+00  0.507535469E+00
   C  0.847637261E+01 -0.533160104E+00 -0.128241999E+00
   H -0.387202821E+02 -0.464913214E+01 -0.451123092E+01
   H  0.380433824E+02  0.510310434E+01  0.188782415E+01
     4
 # iter = 72000  time[fs]=72.00000
   C -0.863430958E+01  0.405749550E+00  0.512789235E+00
   C  0.856383662E+01 -0.538796974E+00 -0.129845873E+00
   H -0.390880846E+02 -0.469350314E+01 -0.455428501E+01
   H  0.384031557E+02  0.515239873E+01  0.190624473E+01
     4
 # iter = 72500  time[fs]=72.50000
   C -0.872304826E+01  0.410316661E+00  0.518045105E+00
   C  0.865134336E+01 -0.544436765E+00 -0.131451505E+00
   H -0.394559419E+02 -0.473788192E+01 -0.459734668E+01
   H  0.387629868E+02  0.520170240E+01  0.192466874E+01
     4
 # iter = 73000  time[fs]=73.00000
   C -0.881182903E+01  0.414886515E+00  0.523303037E+00
   C  0.873889195E+01 -0.550079421E+00 -0.133058860E+00
   H -0.398238532E+02 -0.478226834E+01 -0.464041579E+01
   H  0.391228746E+02  0.525101517E+01  0.194309611E+01
     4
 # iter = 73500  time[fs]=73.50000
   C -0.890065104E+01  0.419459060E+00  0.528562994E+00
   C  0.882648156E+01 -0.555724888E+00 -0.134667906E+00
   H -0.401918175E+02 -0.482666226E+01 -0.468349221E+01
   H  0.394828180E+02  0.530033689E+01  0.196152680E+01
     4
 # iter = 74000  time[fs]=74.00000
   C -0.898951347E+01  0.424034244E+00  0.533824936E+00
   C  0.891411137E+01 -0.561373114E+00 -0.136278609E+00
   H -0.405598337E+02 -0.487106355E+01 -0.472657581E+01
   H  0.398428161E+02  0.534966740E+01  0.197996074E+01
     4
 # iter = 74500  time[fs]=74.50000
   C -0.907841553E+01  0.428612017E+00  0.539088825E+00
   C  0.900178058E+01 -0.567024045E+00 -0.137890939E+00
   H -0.409279010E+02 -0.491547207E+01 -0.476966647E+01
   H  0.402028679E+02  0.539900654E+01  0.199839787E+01
     4
 # iter = 75000  time[fs]=75.00000
   C -0.916735643E+01  0.433192332E+00  0.544354626E+00
   C  0.908948842E+01 -0.572677632E+00 -0.139504864E+00
   H -0.412960184E+02 -0.495988771E+01 -0.481276406E+01
   H  0.405629724E+02  0.544835417E+01  0.201683815E+01
     4
 # iter = 75500  time[fs]=75.50000
   C -0.925633544E+01  0.437775141E+00  0.549622304E+00
   C  0.917723415E+01 -0.578333826E+00 -0.141120355E+00
   H -0.416641851E+02 -0.500431034E+01 -0.485586846E+01
   H  0.409231288E+02  0.549771014E+01  0.203528151E+01
     4
 # iter = 76000  time[fs]=76.00000
   C -0.934535181E+01  0.442360398E+00  0.554891823E+00
   C  0.926501704E+01 -0.583992579E+00 -0.142737383E+00
   H -0.420324002E+02 -0.504873984E+01 -0.489897955E+01
   H  0.412833360E+02  0.554707432E+01  0.205372791E+01
     4
 # iter = 76500  time[fs]=76.50000
   C -0.943440483E+01  0.446948060E+00  0.560163151E+00
   C  0.935283638E+01 -0.589653845E+00 -0.144355920E+00
   H -0.424006629E+02 -0.509317609E+01 -0.494209723E+01
   H  0.416435933E+02  0.559644655E+01  0.207217729E+01
     4
 # iter = 77000  time[fs]=77.00000
   C -0.952349383E+01  0.451538082E+00  0.565436255E+00
   C  0.944069148E+01 -0.595317580E+00 -0.145975938E+00
   H -0.427689724E+02 -0.513761898E+01 -0.498522138E+01
   H  0.420038998E+02  0.564582672E+01  0.209062960E+01
     4
 # iter = 77500  time[fs]=77.50000
   C -0.961261812E+01  0.456130423E+00  0.570711103E+00
   C  0.952858168E+01 -0.600983739E+00 -0.147597411E+00
   H -0.431373278E+02 -0.518206840E+01 -0.502835189E+01
   H  0.423642547E+02  0.569521468E+01  0.210908481E+01
     4
 # iter = 78000  time[fs]=78.00000
   C -0.970177705E+01  0.460725042E+00  0.575987664E+00
   C  0.961650632E+01 -0.606652279E+00 -0.149220313E+00
   H -0.435057284E+02 -0.522652425E+01 -0.507148866E+01
   H  0.427246571E+02  0.574461031E+01  0.212754286E+01
     4
 # iter = 78500  time[fs]=78.50000
   C -0.979096998E+01  0.465321898E+00  0.581265909E+00
   C  0.970446478E+01 -0.612323159E+00 -0.150844617E+00
   H -0.438741735E+02 -0.527098641E+01 -0.511463159E+01
   H  0.430851062E+02  0.579401349E+01  0.214600370E+01
     4
 # iter = 79000  time[fs]=79.00000
   C -0.988019631E+01  0.469920953E+00  0.586545808E+00
   C  0.979245644E+01 -0.617996339E+00 -0.152470301E+00
   H -0.442426622E+02 -0.531545479E+01 -0.515778057E+01
   H  0.434456013E+02  0.584342409E+01  0.216446728E+01
     4
 # iter = 79500  time[fs]=79.50000
   C -0.996945542E+01  0.474522169E+00  0.591827333E+00
   C  0.988048070E+01 -0.623671779E+00 -0.154097339E+00
   H -0.446111939E+02 -0.535992928E+01 -0.520093550E+01
   H  0.438061417E+02  0.589284200E+01  0.218293358E+01
     4
 # iter = 80000  time[fs]=80.00000
   C -0.100587467E+02  0.479125508E+00  0.597110455E+00
   C  0.996853697E+01 -0.629349440E+00 -0.155725709E+00
   H -0.449797680E+02 -0.540440978E+01 -0.524409630E+01
   H  0.441667265E+02  0.594226709E+01  0.220140254E+01
