     4
 # iter = 25000  time[fs]=25.00000
   C -0.102071628E+01 -0.302088402E-01  0.468750244E-01
   C  0.994282533E+00  0.341940698E-01 -0.287113494E-01
   H -0.517426219E+01  0.748014980E+00 -0.703911242E+00
   H  0.528451086E+01 -0.692934387E+00  0.616862228E+00
     4
 # iter = 25500  time[fs]=25.50000
   C -0.107097780E+01 -0.352631217E-01  0.490702903E-01
   C  0.103694980E+01  0.365114834E-01 -0.328127583E-01
   H -0.551366116E+01  0.788974368E+00 -0.760367278E+00
   H  0.559125369E+01 -0.744821935E+00  0.647436343E+00
     4
 # iter = 26000  time[fs]=26.00000
   C -0.112518382E+01 -0.415112219E-01  0.503793924E-01
   C  0.108163240E+01  0.380503859E-01 -0.379699012E-01
   H -0.586402842E+01  0.825437929E+00 -0.823113729E+00
   H  0.589777890E+01 -0.802881596E+00  0.673267748E+00
     4
 # iter = 26500  time[fs]=26.50000
   C -0.117996719E+01 -0.458223109E-01  0.539114846E-01
   C  0.113079241E+01  0.415220358E-01 -0.414553913E-01
   H -0.620861958E+01  0.873381074E+00 -0.875962735E+00
   H  0.621964089E+01 -0.850944330E+00  0.710379610E+00
     4
 # iter = 27000  time[fs]=27.00000
   C -0.123494487E+01 -0.480333129E-01  0.598099314E-01
   C  0.118433043E+01  0.470537366E-01 -0.431257975E-01
   H -0.654609907E+01  0.933511624E+00 -0.918033686E+00
   H  0.655715833E+01 -0.888144689E+00  0.759507589E+00
     4
 # iter = 27500  time[fs]=27.50000
   C -0.129222864E+01 -0.504584909E-01  0.657425007E-01
   C  0.124001217E+01  0.526160557E-01 -0.449947264E-01
   H -0.688798988E+01  0.993790367E+00 -0.961224153E+00
   H  0.689793273E+01 -0.926393218E+00  0.808625216E+00
     4
 # iter = 28000  time[fs]=28.00000
   C -0.135326985E+01 -0.547333429E-01  0.700568297E-01
   C  0.129621369E+01  0.567711889E-01 -0.484849526E-01
   H -0.724237639E+01  0.104568822E+01 -0.101394129E+01
   H  0.723312593E+01 -0.974107389E+00  0.849215112E+00
     4
 # iter = 28500  time[fs]=28.50000
   C -0.141723104E+01 -0.601866422E-01  0.734081151E-01
   C  0.135333687E+01  0.600905770E-01 -0.530110234E-01
   H -0.760549528E+01  0.109257308E+01 -0.107270869E+01
   H  0.756585204E+01 -0.102781769E+01  0.884662498E+00
     4
 # iter = 29000  time[fs]=29.00000
   C -0.148232670E+01 -0.651826957E-01  0.774170245E-01
   C  0.141264023E+01  0.639862050E-01 -0.571478812E-01
   H -0.796865048E+01  0.114279202E+01 -0.112908344E+01
   H  0.790424362E+01 -0.107908608E+01  0.923333017E+00
     4
 # iter = 29500  time[fs]=29.50000
   C -0.154785282E+01 -0.691525740E-01  0.826386758E-01
   C  0.147447008E+01  0.689419963E-01 -0.603993340E-01
   H -0.832868289E+01  0.119920240E+01 -0.118012530E+01
   H  0.825096458E+01 -0.112497749E+01  0.968097359E+00
     4
 # iter = 30000  time[fs]=30.00000
   C -0.161447042E+01 -0.728790386E-01  0.882776916E-01
   C  0.153801107E+01  0.742657183E-01 -0.634461193E-01
   H -0.868943416E+01  0.125770250E+01 -0.122986462E+01
   H  0.860173493E+01 -0.116952824E+01  0.101486128E+01
     4
 # iter = 30500  time[fs]=30.50000
   C -0.168294421E+01 -0.772363555E-01  0.934482073E-01
   C  0.160238156E+01  0.791861931E-01 -0.670487322E-01
   H -0.905524268E+01  0.131372574E+01 -0.128280526E+01
   H  0.895182850E+01 -0.121724738E+01  0.105906402E+01
     4
 # iter = 31000  time[fs]=31.00000
   C -0.175318287E+01 -0.822316667E-01  0.981323475E-01
   C  0.166746654E+01  0.836879326E-01 -0.712128007E-01
   H -0.942599567E+01  0.136718097E+01 -0.133898229E+01
   H  0.930101551E+01 -0.126817332E+01  0.110062157E+01
     4
 # iter = 31500  time[fs]=31.50000
   C -0.182451920E+01 -0.872863465E-01  0.102898816E+00
   C  0.173367151E+01  0.882661401E-01 -0.754340320E-01
   H -0.979857703E+01  0.142100141E+01 -0.139541211E+01
   H  0.965210809E+01 -0.131932445E+01  0.114247510E+01
     4
 # iter = 32000  time[fs]=32.00000
   C -0.189651319E+01 -0.920402160E-01  0.108098668E+00
   C  0.180122137E+01  0.932264717E-01 -0.793983738E-01
   H -0.101710120E+02  0.147699856E+01 -0.145023817E+01
   H  0.100068088E+02 -0.136884632E+01  0.118644282E+01
     4
 # iter = 32500  time[fs]=32.50000
   C -0.196923946E+01 -0.966399429E-01  0.113576864E+00
   C  0.186990837E+01  0.984338920E-01 -0.832330969E-01
   H -0.105439523E+02  0.153437521E+01 -0.150421753E+01
   H  0.103642205E+02 -0.141749856E+01  0.123173218E+01
     4
 # iter = 33000  time[fs]=33.00000
   C -0.204293999E+01 -0.101392627E+00  0.119018614E+00
   C  0.193939274E+01  0.103614234E+00 -0.872051940E-01
   H -0.109188883E+02  0.159151079E+01 -0.155893473E+01
   H  0.107226316E+02 -0.146686822E+01  0.127672628E+01
     4
 # iter = 33500  time[fs]=33.50000
   C -0.211764337E+01 -0.106385788E+00  0.124329315E+00
   C  0.200953262E+01  0.108685018E+00 -0.913905270E-01
   H -0.112961874E+02  0.164792002E+01 -0.161484246E+01
   H  0.110814751E+02 -0.151740989E+01  0.132094357E+01
     4
 # iter = 34000  time[fs]=34.00000
   C -0.219316034E+01 -0.111483553E+00  0.129638301E+00
   C  0.208038670E+01  0.113758727E+00 -0.956705033E-01
   H -0.116750735E+02  0.170427212E+01 -0.167124188E+01
   H  0.114413467E+02 -0.156842599E+01  0.136505714E+01
     4
 # iter = 34500  time[fs]=34.50000
   C -0.226930972E+01 -0.116553242E+00  0.135072221E+00
   C  0.215201623E+01  0.118945502E+00 -0.999293411E-01
   H -0.120547944E+02  0.176122238E+01 -0.172745072E+01
   H  0.118028349E+02 -0.161923540E+01  0.140972582E+01
     4
 # iter = 35000  time[fs]=35.00000
   C -0.234604675E+01 -0.121594207E+00  0.140626160E+00
   C  0.222437241E+01  0.124240932E+00 -0.104166232E+00
   H -0.124352847E+02  0.181874777E+01 -0.178346750E+01
   H  0.121658554E+02 -0.166983787E+01  0.145492947E+01
     4
 # iter = 35500  time[fs]=35.50000
   C -0.242340282E+01 -0.126678029E+00  0.146223398E+00
   C  0.229734784E+01  0.129578086E+00 -0.108443278E+00
   H -0.128168573E+02  0.187645498E+01 -0.183966312E+01
   H  0.125299585E+02 -0.172060555E+01  0.150027724E+01
     4
 # iter = 36000  time[fs]=36.00000
   C -0.250137920E+01 -0.131842681E+00  0.151821210E+00
   C  0.237086829E+01  0.134919627E+00 -0.112793339E+00
   H -0.131996569E+02  0.193412589E+01 -0.189623521E+01
   H  0.128948746E+02 -0.177173711E+01  0.154555326E+01
     4
 # iter = 36500  time[fs]=36.50000
   C -0.257992247E+01 -0.137068318E+00  0.157435040E+00
   C  0.244491331E+01  0.140278864E+00 -0.117198959E+00
   H -0.135835341E+02  0.199184219E+01 -0.195308323E+01
   H  0.132606380E+02 -0.182313286E+01  0.159084144E+01
     4
 # iter = 37000  time[fs]=37.00000
   C -0.265896885E+01 -0.142321910E+00  0.163093836E+00
   C  0.251947704E+01  0.145680866E+00 -0.121631219E+00
   H -0.139682758E+02  0.204975507E+01 -0.201003862E+01
   H  0.136273565E+02 -0.187462499E+01  0.163629501E+01
     4
 # iter = 37500  time[fs]=37.50000
   C -0.273848058E+01 -0.147593917E+00  0.168803349E+00
   C  0.259453601E+01  0.151130511E+00 -0.126081665E+00
   H -0.143537932E+02  0.210789602E+01 -0.206705389E+01
   H  0.139950214E+02 -0.192616671E+01  0.168194730E+01
     4
 # iter = 38000  time[fs]=38.00000
   C -0.281844161E+01 -0.152894239E+00  0.174550160E+00
   C  0.267005233E+01  0.156615988E+00 -0.130558779E+00
   H -0.147401011E+02  0.216619761E+01 -0.212418171E+01
   H  0.143635281E+02 -0.197781136E+01  0.172773249E+01
     4
 # iter = 38500  time[fs]=38.50000
   C -0.289883644E+01 -0.158231264E+00  0.180322606E+00
   C  0.274599172E+01  0.162127019E+00 -0.135069741E+00
   H -0.151272093E+02  0.222460135E+01 -0.218146686E+01
   H  0.147327836E+02 -0.202960435E+01  0.177359360E+01
     4
 # iter = 39000  time[fs]=39.00000
   C -0.297964109E+01 -0.163603076E+00  0.186119553E+00
   C  0.282233093E+01  0.167662499E+00 -0.139612770E+00
   H -0.155150767E+02  0.228310295E+01 -0.223890094E+01
   H  0.151027518E+02 -0.208153783E+01  0.181952774E+01
     4
 # iter = 39500  time[fs]=39.50000
   C -0.306082880E+01 -0.169003267E+00  0.191944563E+00
   C  0.289905252E+01  0.173225413E+00 -0.144182181E+00
   H -0.159036417E+02  0.234172224E+01 -0.229645233E+01
   H  0.154734228E+02 -0.213358064E+01  0.186555604E+01
     4
 # iter = 40000  time[fs]=40.00000
   C -0.314237702E+01 -0.174428129E+00  0.197798689E+00
   C  0.297613837E+01  0.178816570E+00 -0.148774652E+00
   H -0.162928584E+02  0.240046602E+01 -0.235410324E+01
   H  0.158447758E+02 -0.218571547E+01  0.191168650E+01
     4
 # iter = 40500  time[fs]=40.50000
   C -0.322426811E+01 -0.179877502E+00  0.203679607E+00
   C  0.305356883E+01  0.184433839E+00 -0.153389955E+00
   H -0.166827013E+02  0.245932361E+01 -0.241185410E+01
   H  0.162167744E+02 -0.223794318E+01  0.195790956E+01
     4
 # iter = 41000  time[fs]=41.00000
   C -0.330648633E+01 -0.185351848E+00  0.209584531E+00
   C  0.313132510E+01  0.190074695E+00 -0.158028411E+00
   H -0.170731497E+02  0.251828184E+01 -0.246970852E+01
   H  0.165893813E+02 -0.229026775E+01  0.200421307E+01
     4
 # iter = 41500  time[fs]=41.50000
   C -0.338901587E+01 -0.190850422E+00  0.215512030E+00
   C  0.320939072E+01  0.195737793E+00 -0.162689295E+00
   H -0.174641781E+02  0.257733449E+01 -0.252766378E+01
   H  0.169625679E+02 -0.234268683E+01  0.205059177E+01
     4
 # iter = 42000  time[fs]=42.00000
   C -0.347184114E+01 -0.196371677E+00  0.221461610E+00
   C  0.328775112E+01  0.201422614E+00 -0.167371191E+00
   H -0.178557584E+02  0.263648009E+01 -0.258571298E+01
   H  0.173363115E+02 -0.239519384E+01  0.209704508E+01
     4
 # iter = 42500  time[fs]=42.50000
   C -0.355494773E+01 -0.201914251E+00  0.227432714E+00
   C  0.336639260E+01  0.207128581E+00 -0.172072851E+00
   H -0.182478649E+02  0.269571677E+01 -0.264385013E+01
   H  0.177105907E+02 -0.244778310E+01  0.214357196E+01
     4
 # iter = 43000  time[fs]=43.00000
   C -0.363832255E+01 -0.207477273E+00  0.233424414E+00
   C  0.344530205E+01  0.212854803E+00 -0.176793452E+00
   H -0.186404753E+02  0.275504071E+01 -0.270207170E+01
   H  0.180853830E+02 -0.250045136E+01  0.219016936E+01
     4
 # iter = 43500  time[fs]=43.50000
   C -0.372195353E+01 -0.213060071E+00  0.239435685E+00
   C  0.352446707E+01  0.218600306E+00 -0.181532357E+00
   H -0.190335697E+02  0.281444750E+01 -0.276037514E+01
   H  0.184606667E+02 -0.255319634E+01  0.223683361E+01
     4
 # iter = 44000  time[fs]=44.00000
   C -0.380582928E+01 -0.218661923E+00  0.245465653E+00
   C  0.360387611E+01  0.224364253E+00 -0.186288885E+00
   H -0.194271287E+02  0.287393348E+01 -0.281875759E+01
   H  0.188364216E+02 -0.260601543E+01  0.228356174E+01
     4
 # iter = 44500  time[fs]=44.50000
   C -0.388993904E+01 -0.224282044E+00  0.251513599E+00
   C  0.368351848E+01  0.230145942E+00 -0.191062303E+00
   H -0.198211337E+02  0.293349574E+01 -0.287721582E+01
   H  0.192126295E+02 -0.265890562E+01  0.233035146E+01
     4
 # iter = 45000  time[fs]=45.00000
   C -0.397427266E+01 -0.229919681E+00  0.257578856E+00
   C  0.376338414E+01  0.235944724E+00 -0.195851909E+00
   H -0.202155671E+02  0.299313159E+01 -0.293574672E+01
   H  0.195892730E+02 -0.271186402E+01  0.237720068E+01
     4
 # iter = 45500  time[fs]=45.50000
   C -0.405882067E+01 -0.235574154E+00  0.263660762E+00
   C  0.384346361E+01  0.241759954E+00 -0.200657071E+00
   H -0.206104123E+02  0.305283831E+01 -0.299434752E+01
   H  0.199663358E+02 -0.276488806E+01  0.242410726E+01
     4
 # iter = 46000  time[fs]=46.00000
   C -0.414357418E+01 -0.241244842E+00  0.269758670E+00
   C  0.392374800E+01  0.247591004E+00 -0.205477208E+00
   H -0.210056538E+02  0.311261323E+01 -0.305301573E+01
   H  0.203438021E+02 -0.281797542E+01  0.247106906E+01
     4
 # iter = 46500  time[fs]=46.50000
   C -0.422852481E+01 -0.246931154E+00  0.275871972E+00
   C  0.400422891E+01  0.253437284E+00 -0.210311768E+00
   H -0.214012771E+02  0.317245385E+01 -0.311174893E+01
   H  0.207216571E+02 -0.287112388E+01  0.251808407E+01
     4
 # iter = 47000  time[fs]=47.00000
   C -0.431366466E+01 -0.252632520E+00  0.282000102E+00
   C  0.408489845E+01  0.259298242E+00 -0.215160220E+00
   H -0.217972681E+02  0.323235783E+01 -0.317054483E+01
   H  0.210998870E+02 -0.292433130E+01  0.256515043E+01
     4
 # iter = 47500  time[fs]=47.50000
   C -0.439898628E+01 -0.258348397E+00  0.288142526E+00
   C  0.416574918E+01  0.265173355E+00 -0.220022058E+00
   H -0.221936139E+02  0.329232298E+01 -0.322940122E+01
   H  0.214784784E+02 -0.297759562E+01  0.261226640E+01
     4
 # iter = 48000  time[fs]=48.00000
   C -0.448448262E+01 -0.264078273E+00  0.294298734E+00
   C  0.424677408E+01  0.271062128E+00 -0.224896806E+00
   H -0.225903018E+02  0.335234720E+01 -0.328831601E+01
   H  0.218574188E+02 -0.303091490E+01  0.265943030E+01
     4
 # iter = 48500  time[fs]=48.50000
   C -0.457014705E+01 -0.269821663E+00  0.300468244E+00
   C  0.432796649E+01  0.276964087E+00 -0.229784012E+00
   H -0.229873200E+02  0.341242849E+01 -0.334728723E+01
   H  0.222366963E+02 -0.308428732E+01  0.270664053E+01
     4
 # iter = 49000  time[fs]=49.00000
   C -0.465597326E+01 -0.275578105E+00  0.306650594E+00
   C  0.440932014E+01  0.282878783E+00 -0.234683246E+00
   H -0.233846574E+02  0.347256497E+01 -0.340631302E+01
   H  0.226162995E+02 -0.313771113E+01  0.275389557E+01
     4
 # iter = 49500  time[fs]=49.50000
   C -0.474195531E+01 -0.281347159E+00  0.312845349E+00
   C  0.449082908E+01  0.288805787E+00 -0.239594102E+00
   H -0.237823031E+02  0.353275481E+01 -0.346539158E+01
   H  0.229962176E+02 -0.319118467E+01  0.280119398E+01
     4
 # iter = 50000  time[fs]=50.00000
   C -0.482808754E+01 -0.287128408E+00  0.319052092E+00
   C  0.457248767E+01  0.294744693E+00 -0.244516189E+00
   H -0.241802471E+02  0.359299631E+01 -0.352452123E+01
   H  0.233764404E+02 -0.324470635E+01  0.284853439E+01
     4
 # iter = 50500  time[fs]=50.50000
   C -0.491436461E+01 -0.292921454E+00  0.325270430E+00
   C  0.465429056E+01  0.300695113E+00 -0.249449138E+00
   H -0.245784797E+02  0.365328782E+01 -0.358370033E+01
   H  0.237569582E+02 -0.329827466E+01  0.289591547E+01
     4
 # iter = 51000  time[fs]=51.00000
   C -0.500078144E+01 -0.298725916E+00  0.331499984E+00
   C  0.473623270E+01  0.306656679E+00 -0.254392597E+00
   H -0.249769916E+02  0.371362779E+01 -0.364292735E+01
   H  0.241377615E+02 -0.335188817E+01  0.294333599E+01
     4
 # iter = 51500  time[fs]=51.50000
   C -0.508733319E+01 -0.304541433E+00  0.337740398E+00
   C  0.481830925E+01  0.312629037E+00 -0.259346230E+00
   H -0.253757741E+02  0.377401473E+01 -0.370220082E+01
   H  0.245188415E+02 -0.340554549E+01  0.299079473E+01
     4
 # iter = 52000  time[fs]=52.00000
   C -0.517401528E+01 -0.310367659E+00  0.343991326E+00
   C  0.490051564E+01  0.318611850E+00 -0.264309717E+00
   H -0.257748188E+02  0.383444721E+01 -0.376151932E+01
   H  0.249001897E+02 -0.345924532E+01  0.303829056E+01
     4
 # iter = 52500  time[fs]=52.50000
   C -0.526082335E+01 -0.316204265E+00  0.350252444E+00
   C  0.498284750E+01  0.324604798E+00 -0.269282751E+00
   H -0.261741177E+02  0.389492387E+01 -0.382088151E+01
   H  0.252817980E+02 -0.351298639E+01  0.308582239E+01
     4
 # iter = 53000  time[fs]=53.00000
   C -0.534775324E+01 -0.322050934E+00  0.356523439E+00
   C  0.506530071E+01  0.330607573E+00 -0.274265041E+00
   H -0.265736631E+02  0.395544342E+01 -0.388028611E+01
   H  0.256636587E+02 -0.356676750E+01  0.313338917E+01
     4
 # iter = 53500  time[fs]=53.50000
   C -0.543480098E+01 -0.327907366E+00  0.362804013E+00
   C  0.514787130E+01  0.336619882E+00 -0.279256306E+00
   H -0.269734477E+02  0.401600461E+01 -0.393973189E+01
   H  0.260457643E+02 -0.362058751E+01  0.318098989E+01
     4
 # iter = 54000  time[fs]=54.00000
   C -0.552196282E+01 -0.333773271E+00  0.369093879E+00
   C  0.523055550E+01  0.342641442E+00 -0.284256280E+00
   H -0.273734645E+02  0.407660624E+01 -0.399921766E+01
   H  0.264281078E+02 -0.367444531E+01  0.322862360E+01
     4
 # iter = 54500  time[fs]=54.50000
   C -0.560923513E+01 -0.339648375E+00  0.375392765E+00
   C  0.531334972E+01  0.348671987E+00 -0.289264708E+00
   H -0.277737069E+02  0.413724719E+01 -0.405874231E+01
   H  0.268106823E+02 -0.372833984E+01  0.327628938E+01
     4
 # iter = 55000  time[fs]=55.00000
   C -0.569661449E+01 -0.345532411E+00  0.381700410E+00
   C  0.539625054E+01  0.354711256E+00 -0.294281344E+00
   H -0.281741683E+02  0.419792635E+01 -0.411830475E+01
   H  0.271934814E+02 -0.378227009E+01  0.332398635E+01
     4
 # iter = 55500  time[fs]=55.50000
   C -0.578409761E+01 -0.351425128E+00  0.388016563E+00
   C  0.547925467E+01  0.360759004E+00 -0.299305953E+00
   H -0.285748428E+02  0.425864267E+01 -0.417790394E+01
   H  0.275764987E+02 -0.383623509E+01  0.337171366E+01
     4
 # iter = 56000  time[fs]=56.00000
   C -0.587168135E+01 -0.357326281E+00  0.394340984E+00
   C  0.556235899E+01  0.366814993E+00 -0.304338312E+00
   H -0.289757243E+02  0.431939516E+01 -0.423753889E+01
   H  0.279597284E+02 -0.389023390E+01  0.341947050E+01
     4
 # iter = 56500  time[fs]=56.50000
   C -0.595936271E+01 -0.363235637E+00  0.400673443E+00
   C  0.564556050E+01  0.372878995E+00 -0.309378204E+00
   H -0.293768072E+02  0.438018283E+01 -0.429720863E+01
   H  0.283431646E+02 -0.394426564E+01  0.346725608E+01
     4
 # iter = 57000  time[fs]=57.00000
   C -0.604713881E+01 -0.369152972E+00  0.407013719E+00
   C  0.572885633E+01  0.378950793E+00 -0.314425422E+00
   H -0.297780861E+02  0.444100477E+01 -0.435691226E+01
   H  0.287268019E+02 -0.399832943E+01  0.351506966E+01
     4
 # iter = 57500  time[fs]=57.50000
   C -0.613500690E+01 -0.375078072E+00  0.413361599E+00
   C  0.581224373E+01  0.385030177E+00 -0.319479768E+00
   H -0.301795558E+02  0.450186008E+01 -0.441664889E+01
   H  0.291106349E+02 -0.405242445E+01  0.356291052E+01
     4
 # iter = 58000  time[fs]=58.00000
   C -0.622296434E+01 -0.381010729E+00  0.419716880E+00
   C  0.589572008E+01  0.391116945E+00 -0.324541050E+00
   H -0.305812113E+02  0.456274791E+01 -0.447641768E+01
   H  0.294946585E+02 -0.410654990E+01  0.361077796E+01
     4
 # iter = 58500  time[fs]=58.50000
   C -0.631100861E+01 -0.386950745E+00  0.426079366E+00
   C  0.597928286E+01  0.397210904E+00 -0.329609086E+00
   H -0.309830477E+02  0.462366742E+01 -0.453621779E+01
   H  0.298788679E+02 -0.416070501E+01  0.365867131E+01
     4
 # iter = 59000  time[fs]=59.00000
   C -0.639913728E+01 -0.392897929E+00  0.432448868E+00
   C  0.606292965E+01  0.403311866E+00 -0.334683698E+00
   H -0.313850604E+02  0.468461782E+01 -0.459604846E+01
   H  0.302632583E+02 -0.421488905E+01  0.370658992E+01
     4
 # iter = 59500  time[fs]=59.50000
   C -0.648734803E+01 -0.398852097E+00  0.438825206E+00
   C  0.614665813E+01  0.409419653E+00 -0.339764717E+00
   H -0.317872450E+02  0.474559834E+01 -0.465590891E+01
   H  0.306478252E+02 -0.426910131E+01  0.375453319E+01
     4
 # iter = 60000  time[fs]=60.00000
   C -0.657563862E+01 -0.404813072E+00  0.445208206E+00
   C  0.623046607E+01  0.415534092E+00 -0.344851980E+00
   H -0.321895971E+02  0.480660826E+01 -0.471579843E+01
   H  0.310325641E+02 -0.432334109E+01  0.380250051E+01
     4
 # iter = 60500  time[fs]=60.50000
   C -0.666400690E+01 -0.410780683E+00  0.451597698E+00
   C  0.631435133E+01  0.421655017E+00 -0.349945329E+00
   H -0.325921126E+02  0.486764685E+01 -0.477571630E+01
   H  0.314174709E+02 -0.437760774E+01  0.385049131E+01
     4
 # iter = 61000  time[fs]=61.00000
   C -0.675245081E+01 -0.416754766E+00  0.457993522E+00
   C  0.639831186E+01  0.427782267E+00 -0.355044613E+00
   H -0.329947875E+02  0.492871343E+01 -0.483566185E+01
   H  0.318025416E+02 -0.443190062E+01  0.389850502E+01
     4
 # iter = 61500  time[fs]=61.50000
   C -0.684096837E+01 -0.422735163E+00  0.464395521E+00
   C  0.648234567E+01  0.433915687E+00 -0.360149685E+00
   H -0.333976180E+02  0.498980734E+01 -0.489563443E+01
   H  0.321877721E+02 -0.448621911E+01  0.394654112E+01
     4
 # iter = 62000  time[fs]=62.00000
   C -0.692955766E+01 -0.428721722E+00  0.470803546E+00
   C  0.656645087E+01  0.440055130E+00 -0.365260405E+00
   H -0.338006004E+02  0.505092794E+01 -0.495563340E+01
   H  0.325731587E+02 -0.454056261E+01  0.399459908E+01
     4
 # iter = 62500  time[fs]=62.50000
   C -0.701821686E+01 -0.434714294E+00  0.477217451E+00
   C  0.665062563E+01  0.446200450E+00 -0.370376638E+00
   H -0.342037311E+02  0.511207462E+01 -0.501565816E+01
   H  0.329586978E+02 -0.459493057E+01  0.404267840E+01
     4
 # iter = 63000  time[fs]=63.00000
   C -0.710694419E+01 -0.440712737E+00  0.483637097E+00
   C  0.673486818E+01  0.452351509E+00 -0.375498252E+00
   H -0.346070066E+02  0.517324677E+01 -0.507570811E+01
   H  0.333443858E+02 -0.464932241E+01  0.409077860E+01
     4
 # iter = 63500  time[fs]=63.50000
   C -0.719573796E+01 -0.446716915E+00  0.490062349E+00
   C  0.681917683E+01  0.458508174E+00 -0.380625120E+00
   H -0.350104236E+02  0.523444382E+01 -0.513578269E+01
   H  0.337302193E+02 -0.470373760E+01  0.413889922E+01
     4
 # iter = 64000  time[fs]=64.00000
   C -0.728459651E+01 -0.452726694E+00  0.496493076E+00
   C  0.690354993E+01  0.464670314E+00 -0.385757120E+00
   H -0.354139789E+02  0.529566522E+01 -0.519588134E+01
   H  0.341161950E+02 -0.475817564E+01  0.418703979E+01
     4
 # iter = 64500  time[fs]=64.50000
   C -0.737351826E+01 -0.458741947E+00  0.502929152E+00
   C  0.698798592E+01  0.470837805E+00 -0.390894135E+00
   H -0.358176694E+02  0.535691043E+01 -0.525600354E+01
   H  0.345023097E+02 -0.481263600E+01  0.423519989E+01
     4
 # iter = 65000  time[fs]=65.00000
   C -0.746250169E+01 -0.464762549E+00  0.509370456E+00
   C  0.707248326E+01  0.477010525E+00 -0.396036050E+00
   H -0.362214920E+02  0.541817893E+01 -0.531614876E+01
   H  0.348885605E+02 -0.486711821E+01  0.428337909E+01
     4
 # iter = 65500  time[fs]=65.50000
   C -0.755154533E+01 -0.470788381E+00  0.515816870E+00
   C  0.715704050E+01  0.483188358E+00 -0.401182755E+00
   H -0.366254438E+02  0.547947021E+01 -0.537631652E+01
   H  0.352749442E+02 -0.492162180E+01  0.433157697E+01
     4
 # iter = 66000  time[fs]=66.00000
   C -0.764064774E+01 -0.476819327E+00  0.522268280E+00
   C  0.724165621E+01  0.489371191E+00 -0.406334143E+00
   H -0.370295221E+02  0.554078378E+01 -0.543650632E+01
   H  0.356614580E+02 -0.497614632E+01  0.437979315E+01
     4
 # iter = 66500  time[fs]=66.50000
   C -0.772980757E+01 -0.482855275E+00  0.528724576E+00
   C  0.732632903E+01  0.495558914E+00 -0.411490111E+00
   H -0.374337240E+02  0.560211918E+01 -0.549671771E+01
   H  0.360480991E+02 -0.503069131E+01  0.442802724E+01
     4
 # iter = 67000  time[fs]=67.00000
   C -0.781902348E+01 -0.488896117E+00  0.535185652E+00
   C  0.741105763E+01  0.501751422E+00 -0.416650560E+00
   H -0.378380470E+02  0.566347595E+01 -0.555695022E+01
   H  0.364348648E+02 -0.508525637E+01  0.447627887E+01
     4
 # iter = 67500  time[fs]=67.50000
   C -0.790829419E+01 -0.494941747E+00  0.541651405E+00
   C  0.749584075E+01  0.507948611E+00 -0.421815393E+00
   H -0.382424885E+02  0.572485363E+01 -0.561720342E+01
   H  0.368217525E+02 -0.513984106E+01  0.452454767E+01
     4
 # iter = 68000  time[fs]=68.00000
   C -0.799761845E+01 -0.500992063E+00  0.548121734E+00
   C  0.758067713E+01  0.514150382E+00 -0.426984515E+00
   H -0.386470460E+02  0.578625181E+01 -0.567747689E+01
   H  0.372087597E+02 -0.519444500E+01  0.457283330E+01
     4
 # iter = 68500  time[fs]=68.50000
   C -0.808699508E+01 -0.507046967E+00  0.554596543E+00
   C  0.766556559E+01  0.520356639E+00 -0.432157837E+00
   H -0.390517171E+02  0.584767007E+01 -0.573777021E+01
   H  0.375958839E+02 -0.524906779E+01  0.462113541E+01
     4
 # iter = 69000  time[fs]=69.00000
   C -0.817642292E+01 -0.513106364E+00  0.561075739E+00
   C  0.775050498E+01  0.526567289E+00 -0.437335270E+00
   H -0.394564994E+02  0.590910800E+01 -0.579808298E+01
   H  0.379831226E+02 -0.530370905E+01  0.466945368E+01
     4
 # iter = 69500  time[fs]=69.50000
   C -0.826590083E+01 -0.519170160E+00  0.567559229E+00
   C  0.783549417E+01  0.532782241E+00 -0.442516730E+00
   H -0.398613908E+02  0.597056520E+01 -0.585841482E+01
   H  0.383704737E+02 -0.535836842E+01  0.471778778E+01
     4
 # iter = 70000  time[fs]=70.00000
   C -0.835542773E+01 -0.525238267E+00  0.574046927E+00
   C  0.792053209E+01  0.539001408E+00 -0.447702133E+00
   H -0.402663890E+02  0.603204131E+01 -0.591876535E+01
   H  0.387579348E+02 -0.541304555E+01  0.476613742E+01
     4
 # iter = 70500  time[fs]=70.50000
   C -0.844500257E+01 -0.531310596E+00  0.580538747E+00
   C  0.800561769E+01  0.545224704E+00 -0.452891400E+00
   H -0.406714919E+02  0.609353594E+01 -0.597913420E+01
   H  0.391455038E+02 -0.546774008E+01  0.481450227E+01
     4
 # iter = 71000  time[fs]=71.00000
   C -0.853462434E+01 -0.537387064E+00  0.587034605E+00
   C  0.809074994E+01  0.551452046E+00 -0.458084453E+00
   H -0.410766974E+02  0.615504875E+01 -0.603952103E+01
   H  0.395331785E+02 -0.552245169E+01  0.486288206E+01
     4
 # iter = 71500  time[fs]=71.50000
   C -0.862429204E+01 -0.543467587E+00  0.593534422E+00
   C  0.817592788E+01  0.557683356E+00 -0.463281216E+00
   H -0.414820036E+02  0.621657938E+01 -0.609992547E+01
   H  0.399209570E+02 -0.557718004E+01  0.491127650E+01
     4
 # iter = 72000  time[fs]=72.00000
   C -0.871400472E+01 -0.549552087E+00  0.600038120E+00
   C  0.826115053E+01  0.563918553E+00 -0.468481616E+00
   H -0.418874084E+02  0.627812749E+01 -0.616034720E+01
   H  0.403088371E+02 -0.563192482E+01  0.495968531E+01
     4
 # iter = 72500  time[fs]=72.50000
   C -0.880376145E+01 -0.555640486E+00  0.606545621E+00
   C  0.834641699E+01  0.570157564E+00 -0.473685582E+00
   H -0.422929100E+02  0.633969275E+01 -0.622078590E+01
   H  0.406968170E+02 -0.568668572E+01  0.500810822E+01
     4
 # iter = 73000  time[fs]=73.00000
   C -0.889356132E+01 -0.561732709E+00  0.613056853E+00
   C  0.843172636E+01  0.576400314E+00 -0.478893045E+00
   H -0.426985066E+02  0.640127485E+01 -0.628124124E+01
   H  0.410848949E+02 -0.574146245E+01  0.505654498E+01
     4
 # iter = 73500  time[fs]=73.50000
   C -0.898340347E+01 -0.567828682E+00  0.619571745E+00
   C  0.851707775E+01  0.582646733E+00 -0.484103938E+00
   H -0.431041964E+02  0.646287347E+01 -0.634171293E+01
   H  0.414730687E+02 -0.579625471E+01  0.510499532E+01
     4
 # iter = 74000  time[fs]=74.00000
   C -0.907328705E+01 -0.573928335E+00  0.626090226E+00
   C  0.860247034E+01  0.588896750E+00 -0.489318196E+00
   H -0.435099775E+02  0.652448831E+01 -0.640220065E+01
   H  0.418613369E+02 -0.585106221E+01  0.515345900E+01
     4
 # iter = 74500  time[fs]=74.50000
   C -0.916321124E+01 -0.580031599E+00  0.632612229E+00
   C  0.868790331E+01  0.595150298E+00 -0.494535755E+00
   H -0.439158485E+02  0.658611908E+01 -0.646270412E+01
   H  0.422496975E+02 -0.590588469E+01  0.520193578E+01
     4
 # iter = 75000  time[fs]=75.00000
   C -0.925317523E+01 -0.586138407E+00  0.639137688E+00
   C  0.877337584E+01  0.601407313E+00 -0.499756553E+00
   H -0.443218075E+02  0.664776548E+01 -0.652322306E+01
   H  0.426381491E+02 -0.596072188E+01  0.525042543E+01
     4
 # iter = 75500  time[fs]=75.50000
   C -0.934317825E+01 -0.592248693E+00  0.645666540E+00
   C  0.885888719E+01  0.607667729E+00 -0.504980531E+00
   H -0.447278530E+02  0.670942725E+01 -0.658375718E+01
   H  0.430266898E+02 -0.601557351E+01  0.529892771E+01
     4
 # iter = 76000  time[fs]=76.00000
   C -0.943321954E+01 -0.598362393E+00  0.652198721E+00
   C  0.894443658E+01  0.613931485E+00 -0.510207631E+00
   H -0.451339835E+02  0.677110410E+01 -0.664430623E+01
   H  0.434153182E+02 -0.607043932E+01  0.534744241E+01
     4
 # iter = 76500  time[fs]=76.50000
   C -0.952329839E+01 -0.604479446E+00  0.658734173E+00
   C  0.903002330E+01  0.620198520E+00 -0.515437795E+00
   H -0.455401974E+02  0.683279577E+01 -0.670486993E+01
   H  0.438040326E+02 -0.612531908E+01  0.539596931E+01
     4
 # iter = 77000  time[fs]=77.00000
   C -0.961341406E+01 -0.610599792E+00  0.665272834E+00
   C  0.911564664E+01  0.626468776E+00 -0.520670968E+00
   H -0.459464932E+02  0.689450202E+01 -0.676544804E+01
   H  0.441928316E+02 -0.618021254E+01  0.544450820E+01
     4
 # iter = 77500  time[fs]=77.50000
   C -0.970356588E+01 -0.616723373E+00  0.671814649E+00
   C  0.920130591E+01  0.632742196E+00 -0.525907097E+00
   H -0.463528696E+02  0.695622257E+01 -0.682604031E+01
   H  0.445817137E+02 -0.623511947E+01  0.549305887E+01
     4
 # iter = 78000  time[fs]=78.00000
   C -0.979375316E+01 -0.622850130E+00  0.678359562E+00
   C  0.928700043E+01  0.639018723E+00 -0.531146129E+00
   H -0.467593251E+02  0.701795720E+01 -0.688664648E+01
   H  0.449706774E+02 -0.629003963E+01  0.554162112E+01
     4
 # iter = 78500  time[fs]=78.50000
   C -0.988397525E+01 -0.628980008E+00  0.684907518E+00
   C  0.937272956E+01  0.645298303E+00 -0.536388014E+00
   H -0.471658584E+02  0.707970566E+01 -0.694726634E+01
   H  0.453597213E+02 -0.634497281E+01  0.559019476E+01
     4
 # iter = 79000  time[fs]=79.00000
   C -0.997423152E+01 -0.635112954E+00  0.691458463E+00
   C  0.945849265E+01  0.651580883E+00 -0.541632701E+00
   H -0.475724681E+02  0.714146772E+01 -0.700789965E+01
   H  0.457488442E+02 -0.639991878E+01  0.563877960E+01
     4
 # iter = 79500  time[fs]=79.50000
   C -0.100645213E+02 -0.641248915E+00  0.698012348E+00
   C  0.954428911E+01  0.657866413E+00 -0.546880142E+00
   H -0.479791529E+02  0.720324315E+01 -0.706854618E+01
   H  0.461380445E+02 -0.645487734E+01  0.568737546E+01
     4
 # iter = 80000  time[fs]=80.00000
   C -0.101548441E+02 -0.647387838E+00  0.704569120E+00
   C  0.963011831E+01  0.664154840E+00 -0.552130290E+00
   H -0.483859116E+02  0.726503174E+01 -0.712920571E+01
   H  0.465273211E+02 -0.650984827E+01  0.573598214E+01
