     4
 # iter = 25000  time[fs]=25.00000
   C -0.103590617E+01  0.212997156E-01  0.101184225E-02
   C  0.952859255E+00  0.458480256E-01 -0.133230435E-01
   H -0.528886579E+01 -0.274960977E+00 -0.690668752E+00
   H  0.526356805E+01 -0.394899459E+00  0.574342779E+00
     4
 # iter = 25500  time[fs]=25.50000
   C -0.108620190E+01  0.216024075E-01  0.263649601E-02
   C  0.991709240E+00  0.476267296E-01 -0.169528422E-01
   H -0.563164795E+01 -0.300371648E+00 -0.742091631E+00
   H  0.557032832E+01 -0.426343352E+00  0.602902998E+00
     4
 # iter = 26000  time[fs]=26.00000
   C -0.114020343E+01  0.211081932E-01  0.353497816E-02
   C  0.103224866E+01  0.483110566E-01 -0.218167874E-01
   H -0.598492079E+01 -0.331486756E+00 -0.799629430E+00
   H  0.587744628E+01 -0.463716837E+00  0.626772525E+00
     4
 # iter = 26500  time[fs]=26.50000
   C -0.119533705E+01  0.221491286E-01  0.603902698E-02
   C  0.107774243E+01  0.513993865E-01 -0.244094253E-01
   H -0.633200608E+01 -0.352187352E+00 -0.847115100E+00
   H  0.620041036E+01 -0.490873850E+00  0.661968252E+00
     4
 # iter = 27000  time[fs]=27.00000
   C -0.125125904E+01  0.248404174E-01  0.102627933E-01
   C  0.112813990E+01  0.570587945E-01 -0.245563219E-01
   H -0.667162393E+01 -0.361648940E+00 -0.883685144E+00
   H  0.653948063E+01 -0.506969369E+00  0.709220527E+00
     4
 # iter = 27500  time[fs]=27.50000
   C -0.130949125E+01  0.274467913E-01  0.144693816E-01
   C  0.118062637E+01  0.626755883E-01 -0.248636774E-01
   H -0.701534450E+01 -0.371814898E+00 -0.921251092E+00
   H  0.688220633E+01 -0.523932254E+00  0.756498265E+00
     4
 # iter = 28000  time[fs]=28.00000
   C -0.137106706E+01  0.287406481E-01  0.174290719E-01
   C  0.123316770E+01  0.663993815E-01 -0.271747404E-01
   H -0.737129135E+01 -0.391131877E+00 -0.968232074E+00
   H  0.721970509E+01 -0.550196025E+00  0.795280183E+00
     4
 # iter = 28500  time[fs]=28.50000
   C -0.143531618E+01  0.292183251E-01  0.196357210E-01
   C  0.128633828E+01  0.689712314E-01 -0.307418910E-01
   H -0.773573357E+01 -0.416159060E+00 -0.102116257E+01
   H  0.755505490E+01 -0.582304925E+00  0.828948351E+00
     4
 # iter = 29000  time[fs]=29.00000
   C -0.150086494E+01  0.300972103E-01  0.223040307E-01
   C  0.134181246E+01  0.722162381E-01 -0.337339172E-01
   H -0.810000213E+01 -0.438485173E+00 -0.107160936E+01
   H  0.789635811E+01 -0.611832863E+00  0.865865802E+00
     4
 # iter = 29500  time[fs]=29.50000
   C -0.156715082E+01  0.317981596E-01  0.258520939E-01
   C  0.140008185E+01  0.767623642E-01 -0.355170147E-01
   H -0.846096087E+01 -0.455197119E+00 -0.111664037E+01
   H  0.824625197E+01 -0.635855601E+00  0.908900858E+00
     4
 # iter = 30000  time[fs]=30.00000
   C -0.163463376E+01  0.337325834E-01  0.296885547E-01
   C  0.146013408E+01  0.817204020E-01 -0.369747937E-01
   H -0.882247109E+01 -0.470348246E+00 -0.116029263E+01
   H  0.860043246E+01 -0.658419305E+00  0.953957057E+00
     4
 # iter = 30500  time[fs]=30.50000
   C -0.170385424E+01  0.352438412E-01  0.331540406E-01
   C  0.152086689E+01  0.860991984E-01 -0.390931392E-01
   H -0.918888809E+01 -0.488462599E+00 -0.120707584E+01
   H  0.895415225E+01 -0.684041942E+00  0.996471660E+00
     4
 # iter = 31000  time[fs]=31.00000
   C -0.177471653E+01  0.363233549E-01  0.362373044E-01
   C  0.158216361E+01  0.898822124E-01 -0.418837113E-01
   H -0.956011387E+01 -0.509593567E+00 -0.125703053E+01
   H  0.930716329E+01 -0.712769718E+00  0.103635905E+01
     4
 # iter = 31500  time[fs]=31.50000
   C -0.184669758E+01  0.374004102E-01  0.393650521E-01
   C  0.164457604E+01  0.937114591E-01 -0.446999796E-01
   H -0.993304518E+01 -0.530774215E+00 -0.130717817E+01
   H  0.966226188E+01 -0.741627980E+00  0.107655907E+01
     4
 # iter = 32000  time[fs]=32.00000
   C -0.191944643E+01  0.387413718E-01  0.428011795E-01
   C  0.170842000E+01  0.979842330E-01 -0.471404433E-01
   H -0.103057184E+02 -0.550162834E+00 -0.135566667E+01
   H  0.100211365E+02 -0.768768531E+00  0.111888867E+01
     4
 # iter = 32500  time[fs]=32.50000
   C -0.199299845E+01  0.402342167E-01  0.464313164E-01
   C  0.177345045E+01  0.102529155E+00 -0.493725491E-01
   H -0.106787951E+02 -0.568529543E+00 -0.140325690E+01
   H  0.103828772E+02 -0.794956803E+00  0.116255416E+01
     4
 # iter = 33000  time[fs]=33.00000
   C -0.206751590E+01  0.416472780E-01  0.500215734E-01
   C  0.183924971E+01  0.106995196E+00 -0.517436618E-01
   H -0.110537739E+02 -0.587470528E+00 -0.145153674E+01
   H  0.107457612E+02 -0.821785144E+00  0.120593758E+01
     4
 # iter = 33500  time[fs]=33.50000
   C -0.214300336E+01  0.429130912E-01  0.535023867E-01
   C  0.190565348E+01  0.111278433E+00 -0.543543013E-01
   H -0.114310301E+02 -0.607449115E+00 -0.150096201E+01
   H  0.111092109E+02 -0.849712909E+00  0.124855643E+01
     4
 # iter = 34000  time[fs]=34.00000
   C -0.221930426E+01  0.441312284E-01  0.569713506E-01
   C  0.197275438E+01  0.115526290E+00 -0.570538924E-01
   H -0.118097944E+02 -0.627776205E+00 -0.155083676E+01
   H  0.114738131E+02 -0.878046852E+00  0.129108302E+01
     4
 # iter = 34500  time[fs]=34.50000
   C -0.229626946E+01  0.453990300E-01  0.605239458E-01
   C  0.204064684E+01  0.119883000E+00 -0.596952722E-01
   H -0.121893204E+02 -0.647778420E+00 -0.160048139E+01
   H  0.118401481E+02 -0.906109806E+00  0.133417545E+01
     4
 # iter = 35000  time[fs]=35.00000
   C -0.237385291E+01  0.467153536E-01  0.641572838E-01
   C  0.210928181E+01  0.124344874E+00 -0.622794048E-01
   H -0.125695484E+02 -0.667462296E+00 -0.164989676E+01
   H  0.122081239E+02 -0.933905166E+00  0.137781290E+01
     4
 # iter = 35500  time[fs]=35.50000
   C -0.245206650E+01  0.480252273E-01  0.678147553E-01
   C  0.217853344E+01  0.128827433E+00 -0.648882329E-01
   H -0.129507961E+02 -0.687206050E+00 -0.169945591E+01
   H  0.125772842E+02 -0.961808454E+00  0.142160390E+01
     4
 # iter = 36000  time[fs]=36.00000
   C -0.253090063E+01  0.492988949E-01  0.714650687E-01
   C  0.224831753E+01  0.133284250E+00 -0.675658223E-01
   H -0.133332124E+02 -0.707214004E+00 -0.174935842E+01
   H  0.129473529E+02 -0.990021436E+00  0.146533201E+01
     4
 # iter = 36500  time[fs]=36.50000
   C -0.261030575E+01  0.505498922E-01  0.751203204E-01
   C  0.231861827E+01  0.137734120E+00 -0.702911815E-01
   H -0.137166520E+02 -0.727391810E+00 -0.179950557E+01
   H  0.133183588E+02 -0.101844727E+01  0.150908063E+01
     4
 # iter = 37000  time[fs]=37.00000
   C -0.269022535E+01  0.518016963E-01  0.788026384E-01
   C  0.238943780E+01  0.142210896E+00 -0.730284083E-01
   H -0.141009053E+02 -0.747576626E+00 -0.184973050E+01
   H  0.136904046E+02 -0.104692078E+01  0.155300252E+01
     4
 # iter = 37500  time[fs]=37.50000
   C -0.277062308E+01  0.530603241E-01  0.825167752E-01
   C  0.246075472E+01  0.146722281E+00 -0.757678901E-01
   H -0.144858868E+02 -0.767726207E+00 -0.189998726E+01
   H  0.140634766E+02 -0.107539762E+01  0.159713057E+01
     4
 # iter = 38000  time[fs]=38.00000
   C -0.285147944E+01  0.543173521E-01  0.862531214E-01
   C  0.253252832E+01  0.151254359E+00 -0.785217598E-01
   H -0.148716144E+02 -0.787898055E+00 -0.195032993E+01
   H  0.144374660E+02 -0.110393338E+01  0.164139859E+01
     4
 # iter = 38500  time[fs]=38.50000
   C -0.293277594E+01  0.555655547E-01  0.900033391E-01
   C  0.260472189E+01  0.155795101E+00 -0.813003786E-01
   H -0.152581003E+02 -0.808141464E+00 -0.200080462E+01
   H  0.148122758E+02 -0.113257561E+01  0.168574920E+01
     4
 # iter = 39000  time[fs]=39.00000
   C -0.301448829E+01  0.568054696E-01  0.937669224E-01
   C  0.267731238E+01  0.160344233E+00 -0.841024622E-01
   H -0.156453061E+02 -0.828452200E+00 -0.205140415E+01
   H  0.151878660E+02 -0.116131840E+01  0.173017918E+01
     4
 # iter = 39500  time[fs]=39.50000
   C -0.309659059E+01  0.580410494E-01  0.975468438E-01
   C  0.275028369E+01  0.164906687E+00 -0.869216178E-01
   H -0.160331725E+02 -0.848802510E+00 -0.210209804E+01
   H  0.155642233E+02 -0.119013244E+01  0.177470935E+01
     4
 # iter = 40000  time[fs]=40.00000
   C -0.317906050E+01  0.592742849E-01  0.101344173E+00
   C  0.282361837E+01  0.169484514E+00 -0.897544279E-01
   H -0.164216557E+02 -0.869178223E+00 -0.215286956E+01
   H  0.159413237E+02 -0.121900211E+01  0.181934743E+01
     4
 # iter = 40500  time[fs]=40.50000
   C -0.326187980E+01  0.605045670E-01  0.105157435E+00
   C  0.289729656E+01  0.174075915E+00 -0.926014072E-01
   H -0.168107319E+02 -0.889583149E+00 -0.220372015E+01
   H  0.163191278E+02 -0.124792987E+01  0.186408355E+01
     4
 # iter = 41000  time[fs]=41.00000
   C -0.334503201E+01  0.617308674E-01  0.108984788E+00
   C  0.297129912E+01  0.178678521E+00 -0.954637224E-01
   H -0.172003823E+02 -0.910024023E+00 -0.225465432E+01
   H  0.166975956E+02 -0.127692120E+01  0.190890535E+01
     4
 # iter = 41500  time[fs]=41.50000
   C -0.342850092E+01  0.629531033E-01  0.112825382E+00
   C  0.304560956E+01  0.183291432E+00 -0.983411389E-01
   H -0.175905832E+02 -0.930501083E+00 -0.230567023E+01
   H  0.170766959E+02 -0.130597515E+01  0.195380730E+01
     4
 # iter = 42000  time[fs]=42.00000
   C -0.351227081E+01  0.641718310E-01  0.116679050E+00
   C  0.312021347E+01  0.187914762E+00 -0.101232480E+00
   H -0.179813079E+02 -0.951010178E+00 -0.235676178E+01
   H  0.174564036E+02 -0.133508648E+01  0.199878861E+01
     4
 # iter = 42500  time[fs]=42.50000
   C -0.359632711E+01  0.653875015E-01  0.120545562E+00
   C  0.319509732E+01  0.192548508E+00 -0.104136745E+00
   H -0.183725320E+02 -0.971547909E+00 -0.240792376E+01
   H  0.178366950E+02 -0.136425073E+01  0.204384805E+01
     4
 # iter = 43000  time[fs]=43.00000
   C -0.368065647E+01  0.666002371E-01  0.124424399E+00
   C  0.327024803E+01  0.197192215E+00 -0.107053444E+00
   H -0.187642347E+02 -0.992113162E+00 -0.245915333E+01
   H  0.182175456E+02 -0.139346582E+01  0.208898235E+01
     4
 # iter = 43500  time[fs]=43.50000
   C -0.376524656E+01  0.678100384E-01  0.128314953E+00
   C  0.334565318E+01  0.201845282E+00 -0.109982287E+00
   H -0.191563972E+02 -0.101270568E+01 -0.251044862E+01
   H  0.185989316E+02 -0.142273057E+01  0.213418768E+01
     4
 # iter = 44000  time[fs]=44.00000
   C -0.385008576E+01  0.690169742E-01  0.132216720E+00
   C  0.342130125E+01  0.206507249E+00 -0.112922894E+00
   H -0.195490013E+02 -0.103332476E+01 -0.256180741E+01
   H  0.189808311E+02 -0.145204340E+01  0.217946087E+01
     4
 # iter = 44500  time[fs]=44.50000
   C -0.393516310E+01  0.702211870E-01  0.136129301E+00
   C  0.349718159E+01  0.211177794E+00 -0.115874790E+00
   H -0.199420294E+02 -0.105396919E+01 -0.261322707E+01
   H  0.193632240E+02 -0.148140229E+01  0.222479950E+01
     4
 # iter = 45000  time[fs]=45.00000
   C -0.402046826E+01  0.714228204E-01  0.140052325E+00
   C  0.357328419E+01  0.215856632E+00 -0.118837510E+00
   H -0.203354650E+02 -0.107463778E+01 -0.266470504E+01
   H  0.197460914E+02 -0.151080527E+01  0.227020132E+01
     4
 # iter = 45500  time[fs]=45.50000
   C -0.410599161E+01  0.726219842E-01  0.143985416E+00
   C  0.364959963E+01  0.220543452E+00 -0.121810651E+00
   H -0.207292923E+02 -0.109532956E+01 -0.271623910E+01
   H  0.201294153E+02 -0.154025066E+01  0.231566404E+01
     4
 # iter = 46000  time[fs]=46.00000
   C -0.419172408E+01  0.738187678E-01  0.147928203E+00
   C  0.372611901E+01  0.225237941E+00 -0.124793854E+00
   H -0.211234968E+02 -0.111604375E+01 -0.276782724E+01
   H  0.205131787E+02 -0.156973694E+01  0.236118538E+01
     4
 # iter = 46500  time[fs]=46.50000
   C -0.427765713E+01  0.750132578E-01  0.151880336E+00
   C  0.380283397E+01  0.229939804E+00 -0.127786775E+00
   H -0.215180647E+02 -0.113677955E+01 -0.281946754E+01
   H  0.208973653E+02 -0.159926271E+01  0.240676322E+01
     4
 # iter = 47000  time[fs]=47.00000
   C -0.436378271E+01  0.762055428E-01  0.155841488E+00
   C  0.387973666E+01  0.234648772E+00 -0.130789075E+00
   H -0.219129829E+02 -0.115753620E+01 -0.287115814E+01
   H  0.212819598E+02 -0.162882655E+01  0.245239557E+01
     4
 # iter = 47500  time[fs]=47.50000
   C -0.445009324E+01  0.773957088E-01  0.159811350E+00
   C  0.395681964E+01  0.239364595E+00 -0.133800430E+00
   H -0.223082388E+02 -0.117831294E+01 -0.292289728E+01
   H  0.216669479E+02 -0.165842712E+01  0.249808057E+01
     4
 # iter = 48000  time[fs]=48.00000
   C -0.453658154E+01  0.785838356E-01  0.163789630E+00
   C  0.403407591E+01  0.244087031E+00 -0.136820534E+00
   H -0.227038207E+02 -0.119910907E+01 -0.297468326E+01
   H  0.220523158E+02 -0.168806317E+01  0.254381644E+01
     4
 # iter = 48500  time[fs]=48.50000
   C -0.462324085E+01  0.797699979E-01  0.167776044E+00
   C  0.411149886E+01  0.248815850E+00 -0.139849097E+00
   H -0.230997175E+02 -0.121992392E+01 -0.302651451E+01
   H  0.224380505E+02 -0.171773349E+01  0.258960148E+01
     4
 # iter = 49000  time[fs]=49.00000
   C -0.471006475E+01  0.809542663E-01  0.171770325E+00
   C  0.418908221E+01  0.253550834E+00 -0.142885842E+00
   H -0.234959184E+02 -0.124075688E+01 -0.307838952E+01
   H  0.228241395E+02 -0.174743696E+01  0.263543408E+01
     4
 # iter = 49500  time[fs]=49.50000
   C -0.479704718E+01  0.821367083E-01  0.175772217E+00
   C  0.426682004E+01  0.258291774E+00 -0.145930507E+00
   H -0.238924134E+02 -0.126160735E+01 -0.313030686E+01
   H  0.232105712E+02 -0.177717249E+01  0.268131269E+01
     4
 # iter = 50000  time[fs]=50.00000
   C -0.488418238E+01  0.833173881E-01  0.179781477E+00
   C  0.434470674E+01  0.263038474E+00 -0.148982838E+00
   H -0.242891928E+02 -0.128247475E+01 -0.318226517E+01
   H  0.235973344E+02 -0.180693906E+01  0.272723586E+01
     4
 # iter = 50500  time[fs]=50.50000
   C -0.497146492E+01  0.844963670E-01  0.183797872E+00
   C  0.442273698E+01  0.267790745E+00 -0.152042595E+00
   H -0.246862475E+02 -0.130335855E+01 -0.323426314E+01
   H  0.239844183E+02 -0.183673567E+01  0.277320218E+01
     4
 # iter = 51000  time[fs]=51.00000
   C -0.505888961E+01  0.856737030E-01  0.187821180E+00
   C  0.450090570E+01  0.272548409E+00 -0.155109549E+00
   H -0.250835688E+02 -0.132425822E+01 -0.328629953E+01
   H  0.243718127E+02 -0.186656141E+01  0.281921032E+01
     4
 # iter = 51500  time[fs]=51.50000
   C -0.514645154E+01  0.868494513E-01  0.191851189E+00
   C  0.457920810E+01  0.277311294E+00 -0.158183480E+00
   H -0.254811482E+02 -0.134517328E+01 -0.333837315E+01
   H  0.247595081E+02 -0.189641537E+01  0.286525901E+01
     4
 # iter = 52000  time[fs]=52.00000
   C -0.523414604E+01  0.880236646E-01  0.195887697E+00
   C  0.465763963E+01  0.282079238E+00 -0.161264179E+00
   H -0.258789779E+02 -0.136610325E+01 -0.339048289E+01
   H  0.251474951E+02 -0.192629669E+01  0.291134704E+01
     4
 # iter = 52500  time[fs]=52.50000
   C -0.532196866E+01  0.891963932E-01  0.199930509E+00
   C  0.473619593E+01  0.286852085E+00 -0.164351444E+00
   H -0.262770503E+02 -0.138704769E+01 -0.344262765E+01
   H  0.255357649E+02 -0.195620458E+01  0.295747325E+01
     4
 # iter = 53000  time[fs]=53.00000
   C -0.540991516E+01  0.903676849E-01  0.203979439E+00
   C  0.481487287E+01  0.291629687E+00 -0.167445084E+00
   H -0.266753581E+02 -0.140800615E+01 -0.349480641E+01
   H  0.259243091E+02 -0.198613824E+01  0.300363651E+01
     4
 # iter = 53500  time[fs]=53.50000
   C -0.549798153E+01  0.915375855E-01  0.208034310E+00
   C  0.489366653E+01  0.296411900E+00 -0.170544913E+00
   H -0.270738944E+02 -0.142897824E+01 -0.354701817E+01
   H  0.263131195E+02 -0.201609693E+01  0.304983578E+01
     4
 # iter = 54000  time[fs]=54.00000
   C -0.558616391E+01  0.927061388E-01  0.212094952E+00
   C  0.497257314E+01  0.301198590E+00 -0.173650755E+00
   H -0.274726525E+02 -0.144996357E+01 -0.359926200E+01
   H  0.267021884E+02 -0.204607993E+01  0.309607002E+01
     4
 # iter = 54500  time[fs]=54.50000
   C -0.567445864E+01  0.938733863E-01  0.216161200E+00
   C  0.505158913E+01  0.305989625E+00 -0.176762442E+00
   H -0.278716261E+02 -0.147096174E+01 -0.365153698E+01
   H  0.270915084E+02 -0.207608656E+01  0.314233826E+01
     4
 # iter = 55000  time[fs]=55.00000
   C -0.576286221E+01  0.950393681E-01  0.220232899E+00
   C  0.513071108E+01  0.310784882E+00 -0.179879810E+00
   H -0.282708091E+02 -0.149197240E+01 -0.370384224E+01
   H  0.274810725E+02 -0.210611617E+01  0.318863956E+01
     4
 # iter = 55500  time[fs]=55.50000
   C -0.585137129E+01  0.962041223E-01  0.224309898E+00
   C  0.520993573E+01  0.315584240E+00 -0.183002704E+00
   H -0.286701957E+02 -0.151299522E+01 -0.375617696E+01
   H  0.278708738E+02 -0.213616812E+01  0.323497303E+01
     4
 # iter = 56000  time[fs]=56.00000
   C -0.593998267E+01  0.973676854E-01  0.228392051E+00
   C  0.528925995E+01  0.320387586E+00 -0.186130974E+00
   H -0.290697802E+02 -0.153402984E+01 -0.380854034E+01
   H  0.282609058E+02 -0.216624181E+01  0.328133779E+01
     4
 # iter = 56500  time[fs]=56.50000
   C -0.602869330E+01  0.985300926E-01  0.232479222E+00
   C  0.536868077E+01  0.325194809E+00 -0.189264476E+00
   H -0.294695572E+02 -0.155507596E+01 -0.386093160E+01
   H  0.286511622E+02 -0.219633666E+01  0.332773303E+01
     4
 # iter = 57000  time[fs]=57.00000
   C -0.611750025E+01  0.996913773E-01  0.236571276E+00
   C  0.544819533E+01  0.330005804E+00 -0.192403071E+00
   H -0.298695218E+02 -0.157613327E+01 -0.391335001E+01
   H  0.290416371E+02 -0.222645212E+01  0.337415794E+01
     4
 # iter = 57500  time[fs]=57.50000
   C -0.620640072E+01  0.100851572E+00  0.240668084E+00
   C  0.552780089E+01  0.334820469E+00 -0.195546627E+00
   H -0.302696687E+02 -0.159720147E+01 -0.396579486E+01
   H  0.294323246E+02 -0.225658764E+01  0.342061176E+01
     4
 # iter = 58000  time[fs]=58.00000
   C -0.629539203E+01  0.102010707E+00  0.244769525E+00
   C  0.560749484E+01  0.339638707E+00 -0.198695015E+00
   H -0.306699934E+02 -0.161828029E+01 -0.401826547E+01
   H  0.298232191E+02 -0.228674271E+01  0.346709375E+01
     4
 # iter = 58500  time[fs]=58.50000
   C -0.638447161E+01  0.103168812E+00  0.248875478E+00
   C  0.568727467E+01  0.344460425E+00 -0.201848113E+00
   H -0.310704912E+02 -0.163936945E+01 -0.407076118E+01
   H  0.302143154E+02 -0.231691684E+01  0.351360320E+01
     4
 # iter = 59000  time[fs]=59.00000
   C -0.647363697E+01  0.104325915E+00  0.252985830E+00
   C  0.576713797E+01  0.349285532E+00 -0.205005801E+00
   H -0.314711576E+02 -0.166046868E+01 -0.412328136E+01
   H  0.306056083E+02 -0.234710954E+01  0.356013942E+01
     4
 # iter = 59500  time[fs]=59.50000
   C -0.656288577E+01  0.105482045E+00  0.257100470E+00
   C  0.584708243E+01  0.354113942E+00 -0.208167965E+00
   H -0.318719886E+02 -0.168157774E+01 -0.417582542E+01
   H  0.309970929E+02 -0.237732037E+01  0.360670177E+01
     4
 # iter = 60000  time[fs]=60.00000
   C -0.665221571E+01  0.106637227E+00  0.261219293E+00
   C  0.592710583E+01  0.358945571E+00 -0.211334496E+00
   H -0.322729799E+02 -0.170269639E+01 -0.422839275E+01
   H  0.313887643E+02 -0.240754886E+01  0.365328959E+01
     4
 # iter = 60500  time[fs]=60.50000
   C -0.674162463E+01  0.107791486E+00  0.265342195E+00
   C  0.600720604E+01  0.363780339E+00 -0.214505286E+00
   H -0.326741276E+02 -0.172382438E+01 -0.428098279E+01
   H  0.317806181E+02 -0.243779461E+01  0.369990229E+01
     4
 # iter = 61000  time[fs]=61.00000
   C -0.683111041E+01  0.108944847E+00  0.269469079E+00
   C  0.608738102E+01  0.368618168E+00 -0.217680233E+00
   H -0.330754280E+02 -0.174496150E+01 -0.433359501E+01
   H  0.321726497E+02 -0.246805719E+01  0.374653927E+01
     4
 # iter = 61500  time[fs]=61.50000
   C -0.692067105E+01  0.110097333E+00  0.273599849E+00
   C  0.616762880E+01  0.373458985E+00 -0.220859238E+00
   H -0.334768773E+02 -0.176610752E+01 -0.438622887E+01
   H  0.325648549E+02 -0.249833621E+01  0.379319996E+01
     4
 # iter = 62000  time[fs]=62.00000
   C -0.701030459E+01  0.111248966E+00  0.277734414E+00
   C  0.624794748E+01  0.378302717E+00 -0.224042206E+00
   H -0.338784721E+02 -0.178726224E+01 -0.443888387E+01
   H  0.329572296E+02 -0.252863128E+01  0.383988381E+01
     4
 # iter = 62500  time[fs]=62.50000
   C -0.710000917E+01  0.112399769E+00  0.281872683E+00
   C  0.632833525E+01  0.383149294E+00 -0.227229045E+00
   H -0.342802089E+02 -0.180842546E+01 -0.449155953E+01
   H  0.333497698E+02 -0.255894204E+01  0.388659029E+01
     4
 # iter = 63000  time[fs]=63.00000
   C -0.718978299E+01  0.113549762E+00  0.286014573E+00
   C  0.640879034E+01  0.387998650E+00 -0.230419665E+00
   H -0.346820844E+02 -0.182959697E+01 -0.454425536E+01
   H  0.337424717E+02 -0.258926812E+01  0.393331888E+01
     4
 # iter = 63500  time[fs]=63.50000
   C -0.727962432E+01  0.114698965E+00  0.290159999E+00
   C  0.648931107E+01  0.392850720E+00 -0.233613980E+00
   H -0.350840955E+02 -0.185077660E+01 -0.459697091E+01
   H  0.341353315E+02 -0.261960918E+01  0.398006910E+01
     4
 # iter = 64000  time[fs]=64.00000
   C -0.736953148E+01  0.115847398E+00  0.294308883E+00
   C  0.656989581E+01  0.397705441E+00 -0.236811907E+00
   H -0.354862391E+02 -0.187196414E+01 -0.464970573E+01
   H  0.345283457E+02 -0.264996489E+01  0.402684046E+01
     4
 # iter = 64500  time[fs]=64.50000
   C -0.745950286E+01  0.116995079E+00  0.298461145E+00
   C  0.665054300E+01  0.402562753E+00 -0.240013365E+00
   H -0.358885122E+02 -0.189315944E+01 -0.470245942E+01
   H  0.349215109E+02 -0.268033491E+01  0.407363249E+01
     4
 # iter = 65000  time[fs]=65.00000
   C -0.754953692E+01  0.118142026E+00  0.302616713E+00
   C  0.673125111E+01  0.407422598E+00 -0.243218277E+00
   H -0.362909120E+02 -0.191436232E+01 -0.475523154E+01
   H  0.353148235E+02 -0.271071895E+01  0.412044475E+01
     4
 # iter = 65500  time[fs]=65.50000
   C -0.763963215E+01  0.119288258E+00  0.306775512E+00
   C  0.681201868E+01  0.412284919E+00 -0.246426567E+00
   H -0.366934356E+02 -0.193557261E+01 -0.480802170E+01
   H  0.357082806E+02 -0.274111670E+01  0.416727680E+01
     4
 # iter = 66000  time[fs]=66.00000
   C -0.772978710E+01  0.120433790E+00  0.310937473E+00
   C  0.689284431E+01  0.417149661E+00 -0.249638162E+00
   H -0.370960803E+02 -0.195679016E+01 -0.486082952E+01
   H  0.361018788E+02 -0.277152786E+01  0.421412822E+01
     4
 # iter = 66500  time[fs]=66.50000
   C -0.782000037E+01  0.121578639E+00  0.315102528E+00
   C  0.697372664E+01  0.422016772E+00 -0.252852991E+00
   H -0.374988437E+02 -0.197801481E+01 -0.491365461E+01
   H  0.364956151E+02 -0.280195214E+01  0.426099861E+01
     4
 # iter = 67000  time[fs]=67.00000
   C -0.791027063E+01  0.122722820E+00  0.319270611E+00
   C  0.705466435E+01  0.426886201E+00 -0.256070986E+00
   H -0.379017231E+02 -0.199924640E+01 -0.496649662E+01
   H  0.368894867E+02 -0.283238928E+01  0.430788757E+01
     4
 # iter = 67500  time[fs]=67.50000
   C -0.800059656E+01  0.123866350E+00  0.323441659E+00
   C  0.713565617E+01  0.431757897E+00 -0.259292081E+00
   H -0.383047161E+02 -0.202048480E+01 -0.501935520E+01
   H  0.372834907E+02 -0.286283901E+01  0.435479471E+01
     4
 # iter = 68000  time[fs]=68.00000
   C -0.809097690E+01  0.125009243E+00  0.327615609E+00
   C  0.721670087E+01  0.436631814E+00 -0.262516210E+00
   H -0.387078204E+02 -0.204172986E+01 -0.507223000E+01
   H  0.376776242E+02 -0.289330107E+01  0.440171966E+01
     4
 # iter = 68500  time[fs]=68.50000
   C -0.818141044E+01  0.126151512E+00  0.331792402E+00
   C  0.729779726E+01  0.441507904E+00 -0.265743312E+00
   H -0.391110336E+02 -0.206298144E+01 -0.512512069E+01
   H  0.380718847E+02 -0.292377521E+01  0.444866207E+01
     4
 # iter = 69000  time[fs]=69.00000
   C -0.827189598E+01  0.127293172E+00  0.335971979E+00
   C  0.737894420E+01  0.446386123E+00 -0.268973327E+00
   H -0.395143535E+02 -0.208423943E+01 -0.517802695E+01
   H  0.384662696E+02 -0.295426118E+01  0.449562159E+01
     4
 # iter = 69500  time[fs]=69.50000
   C -0.836243240E+01  0.128434236E+00  0.340154284E+00
   C  0.746014057E+01  0.451266426E+00 -0.272206195E+00
   H -0.399177780E+02 -0.210550367E+01 -0.523094848E+01
   H  0.388607762E+02 -0.298475876E+01  0.454259786E+01
     4
 # iter = 70000  time[fs]=70.00000
   C -0.845301859E+01  0.129574717E+00  0.344339263E+00
   C  0.754138531E+01  0.456148772E+00 -0.275441859E+00
   H -0.403213050E+02 -0.212677406E+01 -0.528388497E+01
   H  0.392554023E+02 -0.301526770E+01  0.458959058E+01
     4
 # iter = 70500  time[fs]=70.50000
   C -0.854365347E+01  0.130714627E+00  0.348526863E+00
   C  0.762267735E+01  0.461033119E+00 -0.278680265E+00
   H -0.407249324E+02 -0.214805047E+01 -0.533683612E+01
   H  0.396501454E+02 -0.304578779E+01  0.463659941E+01
     4
 # iter = 71000  time[fs]=71.00000
   C -0.863433602E+01  0.131853979E+00  0.352717031E+00
   C  0.770401571E+01  0.465919428E+00 -0.281921358E+00
   H -0.411286584E+02 -0.216933277E+01 -0.538980166E+01
   H  0.400450031E+02 -0.307631882E+01  0.468362405E+01
     4
 # iter = 71500  time[fs]=71.50000
   C -0.872506522E+01  0.132992784E+00  0.356909717E+00
   C  0.778539939E+01  0.470807659E+00 -0.285165086E+00
   H -0.415324808E+02 -0.219062087E+01 -0.544278130E+01
   H  0.404399734E+02 -0.310686057E+01  0.473066420E+01
     4
 # iter = 72000  time[fs]=72.00000
   C -0.881584010E+01  0.134131054E+00  0.361104874E+00
   C  0.786682745E+01  0.475697775E+00 -0.288411399E+00
   H -0.419363980E+02 -0.221191465E+01 -0.549577478E+01
   H  0.408350540E+02 -0.313741284E+01  0.477771955E+01
     4
 # iter = 72500  time[fs]=72.50000
   C -0.890665972E+01  0.135268800E+00  0.365302454E+00
   C  0.794829898E+01  0.480589740E+00 -0.291660247E+00
   H -0.423404081E+02 -0.223321399E+01 -0.554878184E+01
   H  0.412302428E+02 -0.316797543E+01  0.482478984E+01
     4
 # iter = 73000  time[fs]=73.00000
   C -0.899752317E+01  0.136406032E+00  0.369502410E+00
   C  0.802981307E+01  0.485483518E+00 -0.294911582E+00
   H -0.427445093E+02 -0.225451880E+01 -0.560180222E+01
   H  0.416255378E+02 -0.319854815E+01  0.487187477E+01
     4
 # iter = 73500  time[fs]=73.50000
   C -0.908842955E+01  0.137542761E+00  0.373704699E+00
   C  0.811136887E+01  0.490379074E+00 -0.298165359E+00
   H -0.431486999E+02 -0.227582897E+01 -0.565483568E+01
   H  0.420209370E+02 -0.322913081E+01  0.491897408E+01
     4
 # iter = 74000  time[fs]=74.00000
   C -0.917937800E+01  0.138678996E+00  0.377909277E+00
   C  0.819296554E+01  0.495276375E+00 -0.301421531E+00
   H -0.435529783E+02 -0.229714441E+01 -0.570788198E+01
   H  0.424164384E+02 -0.325972323E+01  0.496608751E+01
     4
 # iter = 74500  time[fs]=74.50000
   C -0.927036769E+01  0.139814749E+00  0.382116101E+00
   C  0.827460227E+01  0.500175389E+00 -0.304680055E+00
   H -0.439573429E+02 -0.231846501E+01 -0.576094088E+01
   H  0.428120401E+02 -0.329032524E+01  0.501321481E+01
     4
 # iter = 75000  time[fs]=75.00000
   C -0.936139780E+01  0.140950028E+00  0.386325131E+00
   C  0.835627826E+01  0.505076084E+00 -0.307940887E+00
   H -0.443617920E+02 -0.233979069E+01 -0.581401215E+01
   H  0.432077404E+02 -0.332093665E+01  0.506035572E+01
     4
 # iter = 75500  time[fs]=75.50000
   C -0.945246755E+01  0.142084843E+00  0.390536326E+00
   C  0.843799274E+01  0.509978429E+00 -0.311203987E+00
   H -0.447663242E+02 -0.236112136E+01 -0.586709558E+01
   H  0.436035374E+02 -0.335155731E+01  0.510751000E+01
     4
 # iter = 76000  time[fs]=76.00000
   C -0.954357617E+01  0.143219201E+00  0.394749648E+00
   C  0.851974497E+01  0.514882393E+00 -0.314469312E+00
   H -0.451709380E+02 -0.238245691E+01 -0.592019095E+01
   H  0.439994294E+02 -0.338218705E+01  0.515467742E+01
     4
 # iter = 76500  time[fs]=76.50000
   C -0.963472292E+01  0.144353114E+00  0.398965058E+00
   C  0.860153423E+01  0.519787949E+00 -0.317736825E+00
   H -0.455756319E+02 -0.240379728E+01 -0.597329805E+01
   H  0.443954148E+02 -0.341282570E+01  0.520185775E+01
     4
 # iter = 77000  time[fs]=77.00000
   C -0.972590706E+01  0.145486588E+00  0.403182520E+00
   C  0.868335980E+01  0.524695066E+00 -0.321006486E+00
   H -0.459804045E+02 -0.242514237E+01 -0.602641667E+01
   H  0.447914918E+02 -0.344347313E+01  0.524905077E+01
     4
 # iter = 77500  time[fs]=77.50000
   C -0.981712790E+01  0.146619632E+00  0.407401998E+00
   C  0.876522102E+01  0.529603719E+00 -0.324278258E+00
   H -0.463852545E+02 -0.244649210E+01 -0.607954663E+01
   H  0.451876589E+02 -0.347412916E+01  0.529625625E+01
     4
 # iter = 78000  time[fs]=78.00000
   C -0.990838476E+01  0.147752254E+00  0.411623457E+00
   C  0.884711720E+01  0.534513879E+00 -0.327552104E+00
   H -0.467901804E+02 -0.246784639E+01 -0.613268772E+01
   H  0.455839145E+02 -0.350479367E+01  0.534347399E+01
     4
 # iter = 78500  time[fs]=78.50000
   C -0.999967696E+01  0.148884462E+00  0.415846862E+00
   C  0.892904771E+01  0.539425521E+00 -0.330827989E+00
   H -0.471951811E+02 -0.248920517E+01 -0.618583975E+01
   H  0.459802571E+02 -0.353546649E+01  0.539070378E+01
     4
 # iter = 79000  time[fs]=79.00000
   C -0.100910039E+02  0.150016263E+00  0.420072181E+00
   C  0.901101190E+01  0.544338618E+00 -0.334105878E+00
   H -0.476002552E+02 -0.251056835E+01 -0.623900254E+01
   H  0.463766853E+02 -0.356614750E+01  0.543794541E+01
     4
 # iter = 79500  time[fs]=79.50000
   C -0.101823648E+02  0.151147665E+00  0.424299381E+00
   C  0.909300918E+01  0.549253147E+00 -0.337385737E+00
   H -0.480054015E+02 -0.253193587E+01 -0.629217591E+01
   H  0.467731974E+02 -0.359683656E+01  0.548519870E+01
     4
 # iter = 80000  time[fs]=80.00000
   C -0.102737593E+02  0.152278675E+00  0.428528430E+00
   C  0.917503894E+01  0.554169082E+00 -0.340667533E+00
   H -0.484106187E+02 -0.255330766E+01 -0.634535969E+01
   H  0.471697923E+02 -0.362753353E+01  0.553246344E+01
