     4
 # iter = 25000  time[fs]=25.00000
   C -0.103028617E+01 -0.422413588E-01  0.240593011E-01
   C  0.939605266E+00 -0.341793719E-01  0.258025597E-01
   H -0.534122846E+01  0.478407801E+00 -0.215080374E+00
   H  0.522312092E+01  0.295873215E+00 -0.383893639E+00
     4
 # iter = 25500  time[fs]=25.50000
   C -0.107858722E+01 -0.463750311E-01  0.245169103E-01
   C  0.975417193E+00 -0.382102634E-01  0.267050020E-01
   H -0.568315111E+01  0.499607730E+00 -0.237153103E+00
   H  0.553023537E+01  0.305559572E+00 -0.415859536E+00
     4
 # iter = 26000  time[fs]=26.00000
   C -0.113051220E+01 -0.513156955E-01  0.242290813E-01
   C  0.101286617E+01 -0.434231927E-01  0.264970770E-01
   H -0.603544425E+01  0.515889958E+00 -0.264857517E+00
   H  0.583775374E+01  0.310222903E+00 -0.453733165E+00
     4
 # iter = 26500  time[fs]=26.50000
   C -0.118356272E+01 -0.547865286E-01  0.254650357E-01
   C  0.105516651E+01 -0.463779620E-01  0.286118114E-01
   H -0.638145439E+01  0.543281847E+00 -0.282083275E+00
   H  0.616115083E+01  0.325912299E+00 -0.481371146E+00
     4
 # iter = 27000  time[fs]=27.00000
   C -0.123741064E+01 -0.566713477E-01  0.283346285E-01
   C  0.110227892E+01 -0.469014710E-01  0.332160467E-01
   H -0.671991768E+01  0.582532672E+00 -0.288013392E+00
   H  0.650067691E+01  0.353387309E+00 -0.497930595E+00
     4
 # iter = 27500  time[fs]=27.50000
   C -0.129354332E+01 -0.586574493E-01  0.311452689E-01
   C  0.115145165E+01 -0.475478057E-01  0.377501888E-01
   H -0.706241410E+01  0.621636706E+00 -0.294597940E+00
   H  0.684387438E+01  0.380643341E+00 -0.515342133E+00
     4
 # iter = 28000  time[fs]=28.00000
   C -0.135297065E+01 -0.619381818E-01  0.326990721E-01
   C  0.120069617E+01 -0.501237557E-01  0.404027030E-01
   H -0.741707547E+01  0.652093629E+00 -0.310289183E+00
   H  0.718185567E+01  0.399182045E+00 -0.542040790E+00
     4
 # iter = 28500  time[fs]=28.50000
   C -0.141504154E+01 -0.660279595E-01  0.334776715E-01
   C  0.125057970E+01 -0.538965045E-01  0.419023617E-01
   H -0.778017945E+01  0.677296951E+00 -0.331650712E+00
   H  0.751769444E+01  0.412404791E+00 -0.574572137E+00
     4
 # iter = 29000  time[fs]=29.00000
   C -0.147841875E+01 -0.697391403E-01  0.346652716E-01
   C  0.130274657E+01 -0.570712510E-01  0.440404611E-01
   H -0.814306506E+01  0.705616352E+00 -0.350274847E+00
   H  0.785948951E+01  0.428691204E+00 -0.604511237E+00
     4
 # iter = 29500  time[fs]=29.50000
   C -0.154255445E+01 -0.726603138E-01  0.366703190E-01
   C  0.135768059E+01 -0.590274163E-01  0.474344597E-01
   H -0.850260254E+01  0.739928702E+00 -0.363251795E+00
   H  0.820987549E+01  0.450924459E+00 -0.628934830E+00
     4
 # iter = 30000  time[fs]=30.00000
   C -0.160789624E+01 -0.753636549E-01  0.389180834E-01
   C  0.141439022E+01 -0.606322954E-01  0.512142525E-01
   H -0.886265795E+01  0.776149076E+00 -0.374638052E+00
   H  0.856454658E+01  0.475021591E+00 -0.651889923E+00
     4
 # iter = 30500  time[fs]=30.50000
   C -0.167496981E+01 -0.784878257E-01  0.407676762E-01
   C  0.147179521E+01 -0.628535836E-01  0.544096258E-01
   H -0.922759049E+01  0.809725644E+00 -0.388960454E+00
   H  0.891875414E+01  0.496431949E+00 -0.677895222E+00
     4
 # iter = 31000  time[fs]=31.00000
   C -0.174368079E+01 -0.820403424E-01  0.422096185E-01
   C  0.152978119E+01 -0.657039248E-01  0.570056911E-01
   H -0.959730559E+01  0.840580336E+00 -0.406274660E+00
   H  0.927224905E+01  0.515080585E+00 -0.706997602E+00
     4
 # iter = 31500  time[fs]=31.50000
   C -0.181351838E+01 -0.856023055E-01  0.436610730E-01
   C  0.158888874E+01 -0.685507090E-01  0.596330500E-01
   H -0.996870313E+01  0.871658044E+00 -0.423615608E+00
   H  0.962782678E+01  0.533916771E+00 -0.736223016E+00
     4
 # iter = 32000  time[fs]=32.00000
   C -0.188413927E+01 -0.889136202E-01  0.453805986E-01
   C  0.164942692E+01 -0.710015531E-01  0.626822695E-01
   H -0.103398222E+02  0.904780727E+00 -0.439143294E+00
   H  0.998717514E+01  0.554765991E+00 -0.763723803E+00
     4
 # iter = 32500  time[fs]=32.50000
   C -0.195557644E+01 -0.920828728E-01  0.472582505E-01
   C  0.171115475E+01 -0.732218490E-01  0.659863029E-01
   H -0.107113266E+02  0.939160518E+00 -0.453629471E+00
   H  0.103493839E+02  0.576842296E+00 -0.790265863E+00
     4
 # iter = 33000  time[fs]=33.00000
   C -0.202798643E+01 -0.953352689E-01  0.490676146E-01
   C  0.177366190E+01 -0.755533507E-01  0.692018876E-01
   H -0.110847171E+02  0.973185258E+00 -0.468671828E+00
   H  0.107127297E+02  0.598534784E+00 -0.817441965E+00
     4
 # iter = 33500  time[fs]=33.50000
   C -0.210137221E+01 -0.987361203E-01  0.507422982E-01
   C  0.183678634E+01 -0.780957723E-01  0.722279340E-01
   H -0.114603706E+02  0.100637721E+01 -0.484734991E+00
   H  0.110766353E+02  0.619367343E+00 -0.845711851E+00
     4
 # iter = 34000  time[fs]=34.00000
   C -0.217557980E+01 -0.102188073E+00  0.523786833E-01
   C  0.190061793E+01 -0.807026136E-01  0.752096868E-01
   H -0.118375191E+02  0.103941244E+01 -0.501130979E+00
   H  0.114416869E+02  0.640018067E+00 -0.874382628E+00
     4
 # iter = 34500  time[fs]=34.50000
   C -0.225046247E+01 -0.105595989E+00  0.540710344E-01
   C  0.196524826E+01 -0.832306707E-01  0.782891995E-01
   H -0.122154177E+02  0.107295245E+01 -0.517187417E+00
   H  0.118084650E+02  0.661150355E+00 -0.902777452E+00
     4
 # iter = 35000  time[fs]=35.00000
   C -0.232597398E+01 -0.108960695E+00  0.558177334E-01
   C  0.203062830E+01 -0.856819093E-01  0.814634478E-01
   H -0.125940078E+02  0.110697988E+01 -0.532911789E+00
   H  0.121768776E+02  0.682748237E+00 -0.930900009E+00
     4
 # iter = 35500  time[fs]=35.50000
   C -0.240212461E+01 -0.112335488E+00  0.575647709E-01
   C  0.209663370E+01 -0.881376350E-01  0.846501502E-01
   H -0.129736082E+02  0.114110659E+01 -0.548683188E+00
   H  0.125464683E+02  0.704424685E+00 -0.959126085E+00
     4
 # iter = 36000  time[fs]=36.00000
   C -0.247890373E+01 -0.115749126E+00  0.592827403E-01
   C  0.216318097E+01 -0.906419696E-01  0.878042849E-01
   H -0.133543685E+02  0.117511919E+01 -0.564706728E+00
   H  0.129169613E+02  0.725967381E+00 -0.987657690E+00
     4
 # iter = 36500  time[fs]=36.50000
   C -0.255626187E+01 -0.119188217E+00  0.609844419E-01
   C  0.223025372E+01 -0.931752046E-01  0.909447276E-01
   H -0.137361445E+02  0.120910371E+01 -0.580888770E+00
   H  0.132883854E+02  0.747463474E+00 -0.101639821E+01
     4
 # iter = 37000  time[fs]=37.00000
   C -0.263414286E+01 -0.122629706E+00  0.626923919E-01
   C  0.229785319E+01 -0.957029665E-01  0.941050812E-01
   H -0.141187270E+02  0.124321533E+01 -0.597067115E+00
   H  0.136608433E+02  0.769069226E+00 -0.104518267E+01
     4
 # iter = 37500  time[fs]=37.50000
   C -0.271251021E+01 -0.126067562E+00  0.644121279E-01
   C  0.236595755E+01 -0.982166091E-01  0.972932762E-01
   H -0.145020314E+02  0.127748923E+01 -0.613200120E+00
   H  0.140343217E+02  0.790820753E+00 -0.107396692E+01
     4
 # iter = 38000  time[fs]=38.00000
   C -0.279134390E+01 -0.129509834E+00  0.661351466E-01
   C  0.243452612E+01 -0.100728762E+00  0.100496018E+00
   H -0.148860759E+02  0.131186137E+01 -0.629345840E+00
   H  0.144087117E+02  0.812654837E+00 -0.110280674E+01
     4
 # iter = 38500  time[fs]=38.50000
   C -0.287062498E+01 -0.132963420E+00  0.678541356E-01
   C  0.250352214E+01 -0.103250277E+00  0.103701836E+00
   H -0.152708734E+02  0.134627640E+01 -0.645554081E+00
   H  0.147839165E+02  0.834516894E+00 -0.113174982E+01
     4
 # iter = 39000  time[fs]=39.00000
   C -0.295032886E+01 -0.136427664E+00  0.695693656E-01
   C  0.257292231E+01 -0.105780548E+00  0.106910757E+00
   H -0.156563860E+02  0.138073295E+01 -0.661821079E+00
   H  0.151598962E+02  0.856406279E+00 -0.116079041E+01
     4
 # iter = 39500  time[fs]=39.50000
   C -0.303042948E+01 -0.139898596E+00  0.712844533E-01
   C  0.264271014E+01 -0.108313927E+00  0.110127892E+00
   H -0.160425546E+02  0.141525355E+01 -0.678119515E+00
   H  0.155366378E+02  0.878346221E+00 -0.118989936E+01
     4
 # iter = 40000  time[fs]=40.00000
   C -0.311090428E+01 -0.143374165E+00  0.730011215E-01
   C  0.271286789E+01 -0.110847645E+00  0.113355504E+00
   H -0.164293359E+02  0.144984753E+01 -0.694435621E+00
   H  0.159141174E+02  0.900346674E+00 -0.121906116E+01
     4
 # iter = 40500  time[fs]=40.50000
   C -0.319173474E+01 -0.146854860E+00  0.747185765E-01
   C  0.278337549E+01 -0.113382758E+00  0.116592067E+00
   H -0.168167065E+02  0.148450655E+01 -0.710773583E+00
   H  0.162922956E+02  0.922399889E+00 -0.124827840E+01
     4
 # iter = 41000  time[fs]=41.00000
   C -0.327290410E+01 -0.150341587E+00  0.764356308E-01
   C  0.285421358E+01 -0.115920930E+00  0.119835473E+00
   H -0.172046477E+02  0.151921964E+01 -0.727140485E+00
   H  0.166711327E+02  0.944495452E+00 -0.127755668E+01
     4
 # iter = 41500  time[fs]=41.50000
   C -0.335439592E+01 -0.153834337E+00  0.781520306E-01
   C  0.292536546E+01 -0.118462420E+00  0.123085047E+00
   H -0.175931362E+02  0.155398262E+01 -0.743536887E+00
   H  0.170505976E+02  0.966629685E+00 -0.130689517E+01
     4
 # iter = 42000  time[fs]=42.00000
   C -0.343619424E+01 -0.157332485E+00  0.798681570E-01
   C  0.299681648E+01 -0.121006541E+00  0.126341088E+00
   H -0.179821456E+02  0.158879594E+01 -0.759958946E+00
   H  0.174306653E+02  0.988803522E+00 -0.133628871E+01
     4
 # iter = 42500  time[fs]=42.50000
   C -0.351828427E+01 -0.160835513E+00  0.815842993E-01
   C  0.306855288E+01 -0.123552749E+00  0.129603770E+00
   H -0.183716517E+02  0.162365953E+01 -0.776403542E+00
   H  0.178113123E+02  0.101101735E+01 -0.136573295E+01
     4
 # iter = 43000  time[fs]=43.00000
   C -0.360065247E+01 -0.164343229E+00  0.833004365E-01
   C  0.314056137E+01 -0.126100981E+00  0.132872811E+00
   H -0.187616339E+02  0.165857125E+01 -0.792869830E+00
   H  0.181925141E+02  0.103326944E+01 -0.139522589E+01
     4
 # iter = 43500  time[fs]=43.50000
   C -0.368328628E+01 -0.167855562E+00  0.850164383E-01
   C  0.321282935E+01 -0.128651343E+00  0.136147777E+00
   H -0.191520735E+02  0.169352828E+01 -0.809357802E+00
   H  0.185742472E+02  0.105555738E+01 -0.142476644E+01
     4
 # iter = 44000  time[fs]=44.00000
   C -0.376617388E+01 -0.171372381E+00  0.867322496E-01
   C  0.328534510E+01 -0.131203838E+00  0.139428361E+00
   H -0.195429526E+02  0.172852845E+01 -0.825866982E+00
   H  0.189564897E+02  0.107787939E+01 -0.145435310E+01
     4
 # iter = 44500  time[fs]=44.50000
   C -0.384930413E+01 -0.174893486E+00  0.884478942E-01
   C  0.335809779E+01 -0.133758351E+00  0.142714383E+00
   H -0.199342538E+02  0.176357027E+01 -0.842396385E+00
   H  0.193392216E+02  0.110023429E+01 -0.148398393E+01
     4
 # iter = 45000  time[fs]=45.00000
   C -0.393266654E+01 -0.178418679E+00  0.901634044E-01
   C  0.343107723E+01 -0.136314762E+00  0.146005689E+00
   H -0.203259604E+02  0.179865235E+01 -0.858945018E+00
   H  0.197224243E+02  0.112262107E+01 -0.151365702E+01
     4
 # iter = 45500  time[fs]=45.50000
   C -0.401625128E+01 -0.181947800E+00  0.918787864E-01
   C  0.350427382E+01 -0.138872995E+00  0.149302095E+00
   H -0.207180572E+02  0.183377324E+01 -0.875512120E+00
   H  0.201060798E+02  0.114503857E+01 -0.154337075E+01
     4
 # iter = 46000  time[fs]=46.00000
   C -0.410004915E+01 -0.185480709E+00  0.935940321E-01
   C  0.357767853E+01 -0.141432997E+00  0.152603406E+00
   H -0.211105296E+02  0.186893145E+01 -0.892097073E+00
   H  0.204901711E+02  0.116748561E+01 -0.157312369E+01
     4
 # iter = 46500  time[fs]=46.50000
   C -0.418405143E+01 -0.189017273E+00  0.953091365E-01
   C  0.365128283E+01 -0.143994719E+00  0.155909437E+00
   H -0.215033639E+02  0.190412559E+01 -0.908699274E+00
   H  0.208746821E+02  0.118996106E+01 -0.160291448E+01
     4
 # iter = 47000  time[fs]=47.00000
   C -0.426824995E+01 -0.192557360E+00  0.970241019E-01
   C  0.372507872E+01 -0.146558101E+00  0.159220027E+00
   H -0.218965470E+02  0.193935440E+01 -0.925318108E+00
   H  0.212595978E+02  0.121246395E+01 -0.163274176E+01
     4
 # iter = 47500  time[fs]=47.50000
   C -0.435263697E+01 -0.196100842E+00  0.987389325E-01
   C  0.379905863E+01 -0.149123084E+00  0.162535021E+00
   H -0.222900667E+02  0.197461668E+01 -0.941952978E+00
   H  0.216449036E+02  0.123499331E+01 -0.166260426E+01
     4
 # iter = 48000  time[fs]=48.00000
   C -0.443720519E+01 -0.199647599E+00  0.100453631E+00
   C  0.387321542E+01 -0.151689615E+00  0.165854273E+00
   H -0.226839112E+02  0.200991129E+01 -0.958603326E+00
   H  0.220305861E+02  0.125754826E+01 -0.169250075E+01
     4
 # iter = 48500  time[fs]=48.50000
   C -0.452194771E+01 -0.203197519E+00  0.102168200E+00
   C  0.394754235E+01 -0.154257646E+00  0.169177641E+00
   H -0.230780694E+02  0.204523713E+01 -0.975268633E+00
   H  0.224166322E+02  0.128012792E+01 -0.172243010E+01
     4
 # iter = 49000  time[fs]=49.00000
   C -0.460685800E+01 -0.206750495E+00  0.103882641E+00
   C  0.402203303E+01 -0.156827128E+00  0.172504989E+00
   H -0.234725308E+02  0.208059318E+01 -0.991948405E+00
   H  0.228030298E+02  0.130273148E+01 -0.175239122E+01
     4
 # iter = 49500  time[fs]=49.50000
   C -0.469192988E+01 -0.210306425E+00  0.105596955E+00
   C  0.409668142E+01 -0.159398017E+00  0.175836190E+00
   H -0.238672852E+02  0.211597843E+01 -0.100864217E+01
   H  0.231897670E+02  0.132535816E+01 -0.178238308E+01
     4
 # iter = 50000  time[fs]=50.00000
   C -0.477715749E+01 -0.213865212E+00  0.107311147E+00
   C  0.417148179E+01 -0.161970269E+00  0.179171121E+00
   H -0.242623232E+02  0.215139196E+01 -0.102534947E+01
   H  0.235768328E+02  0.134800720E+01 -0.181240467E+01
     4
 # iter = 50500  time[fs]=50.50000
   C -0.486253528E+01 -0.217426764E+00  0.109025218E+00
   C  0.424642870E+01 -0.164543845E+00  0.182509665E+00
   H -0.246576357E+02  0.218683288E+01 -0.104206988E+01
   H  0.239642165E+02  0.137067792E+01 -0.184245507E+01
     4
 # iter = 51000  time[fs]=51.00000
   C -0.494805796E+01 -0.220990993E+00  0.110739171E+00
   C  0.432151701E+01 -0.167118703E+00  0.185851711E+00
   H -0.250532139E+02  0.222230032E+01 -0.105880300E+01
   H  0.243519082E+02  0.139336962E+01 -0.187253338E+01
     4
 # iter = 51500  time[fs]=51.50000
   C -0.503372054E+01 -0.224557814E+00  0.112453009E+00
   C  0.439674181E+01 -0.169694808E+00  0.189197153E+00
   H -0.254490497E+02  0.225779347E+01 -0.107554842E+01
   H  0.247398982E+02  0.141608167E+01 -0.190263873E+01
     4
 # iter = 52000  time[fs]=52.00000
   C -0.511951825E+01 -0.228127148E+00  0.114166734E+00
   C  0.447209844E+01 -0.172272122E+00  0.192545888E+00
   H -0.258451350E+02  0.229331156E+01 -0.109230578E+01
   H  0.251281772E+02  0.143881346E+01 -0.193277032E+01
     4
 # iter = 52500  time[fs]=52.50000
   C -0.520544655E+01 -0.231698917E+00  0.115880348E+00
   C  0.454758249E+01 -0.174850612E+00  0.195897819E+00
   H -0.262414624E+02  0.232885385E+01 -0.110907472E+01
   H  0.255167365E+02  0.146156438E+01 -0.196292736E+01
     4
 # iter = 53000  time[fs]=53.00000
   C -0.529150113E+01 -0.235273050E+00  0.117593855E+00
   C  0.462318972E+01 -0.177430244E+00  0.199252854E+00
   H -0.266380246E+02  0.236441961E+01 -0.112585490E+01
   H  0.259055678E+02  0.148433389E+01 -0.199310910E+01
     4
 # iter = 53500  time[fs]=53.50000
   C -0.537767788E+01 -0.238849475E+00  0.119307256E+00
   C  0.469891612E+01 -0.180010987E+00  0.202610902E+00
   H -0.270348147E+02  0.240000818E+01 -0.114264599E+01
   H  0.262946629E+02  0.150712145E+01 -0.202331482E+01
     4
 # iter = 54000  time[fs]=54.00000
   C -0.546397288E+01 -0.242428126E+00  0.121020554E+00
   C  0.477475787E+01 -0.182592811E+00  0.205971878E+00
   H -0.274318262E+02  0.243561890E+01 -0.115944768E+01
   H  0.266840143E+02  0.152992653E+01 -0.205354385E+01
     4
 # iter = 54500  time[fs]=54.50000
   C -0.555038238E+01 -0.246008939E+00  0.122733752E+00
   C  0.485071130E+01 -0.185175687E+00  0.209335700E+00
   H -0.278290527E+02  0.247125115E+01 -0.117625967E+01
   H  0.270736146E+02  0.155274864E+01 -0.208379553E+01
     4
 # iter = 55000  time[fs]=55.00000
   C -0.563690283E+01 -0.249591852E+00  0.124446852E+00
   C  0.492677293E+01 -0.187759586E+00  0.212702290E+00
   H -0.282264882E+02  0.250690433E+01 -0.119308168E+01
   H  0.274634567E+02  0.157558731E+01 -0.211406922E+01
     4
 # iter = 55500  time[fs]=55.50000
   C -0.572353081E+01 -0.253176806E+00  0.126159856E+00
   C  0.500293943E+01 -0.190344483E+00  0.216071571E+00
   H -0.286241268E+02  0.254257786E+01 -0.120991343E+01
   H  0.278535339E+02  0.159844210E+01 -0.214436432E+01
     4
 # iter = 56000  time[fs]=56.00000
   C -0.581026305E+01 -0.256763746E+00  0.127872766E+00
   C  0.507920761E+01 -0.192930351E+00  0.219443472E+00
   H -0.290219630E+02  0.257827120E+01 -0.122675465E+01
   H  0.282438398E+02  0.162131255E+01 -0.217468026E+01
     4
 # iter = 56500  time[fs]=56.50000
   C -0.589709645E+01 -0.260352617E+00  0.129585585E+00
   C  0.515557442E+01 -0.195517166E+00  0.222817922E+00
   H -0.294199914E+02  0.261398382E+01 -0.124360509E+01
   H  0.286343680E+02  0.164419826E+01 -0.220501648E+01
     4
 # iter = 57000  time[fs]=57.00000
   C -0.598402801E+01 -0.263943366E+00  0.131298315E+00
   C  0.523203695E+01 -0.198104903E+00  0.226194854E+00
   H -0.298182069E+02  0.264971520E+01 -0.126046451E+01
   H  0.290251127E+02  0.166709881E+01 -0.223537244E+01
     4
 # iter = 57500  time[fs]=57.50000
   C -0.607105487E+01 -0.267535944E+00  0.133010959E+00
   C  0.530859241E+01 -0.200693540E+00  0.229574205E+00
   H -0.302166046E+02  0.268546486E+01 -0.127733268E+01
   H  0.294160681E+02  0.169001383E+01 -0.226574763E+01
     4
 # iter = 58000  time[fs]=58.00000
   C -0.615817431E+01 -0.271130303E+00  0.134723517E+00
   C  0.538523813E+01 -0.203283055E+00  0.232955912E+00
   H -0.306151796E+02  0.272123234E+01 -0.129420936E+01
   H  0.298072288E+02  0.171294295E+01 -0.229614155E+01
     4
 # iter = 58500  time[fs]=58.50000
   C -0.624538369E+01 -0.274726397E+00  0.136435992E+00
   C  0.546197153E+01 -0.205873427E+00  0.236339914E+00
   H -0.310139276E+02  0.275701717E+01 -0.131109435E+01
   H  0.301985893E+02  0.173588580E+01 -0.232655373E+01
     4
 # iter = 59000  time[fs]=59.00000
   C -0.633268050E+01 -0.278324181E+00  0.138148387E+00
   C  0.553879017E+01 -0.208464634E+00  0.239726156E+00
   H -0.314128440E+02  0.279281893E+01 -0.132798742E+01
   H  0.305901447E+02  0.175884204E+01 -0.235698372E+01
     4
 # iter = 59500  time[fs]=59.50000
   C -0.642006233E+01 -0.281923612E+00  0.139860703E+00
   C  0.561569168E+01 -0.211056658E+00  0.243114581E+00
   H -0.318119246E+02  0.282863719E+01 -0.134488839E+01
   H  0.309818900E+02  0.178181133E+01 -0.238743107E+01
     4
 # iter = 60000  time[fs]=60.00000
   C -0.650752684E+01 -0.285524650E+00  0.141572942E+00
   C  0.569267379E+01 -0.213649478E+00  0.246505136E+00
   H -0.322111654E+02  0.286447155E+01 -0.136179706E+01
   H  0.313738204E+02  0.180479337E+01 -0.241789535E+01
     4
 # iter = 60500  time[fs]=60.50000
   C -0.659507182E+01 -0.289127254E+00  0.143285105E+00
   C  0.576973434E+01 -0.216243078E+00  0.249897770E+00
   H -0.326105624E+02  0.290032163E+01 -0.137871325E+01
   H  0.317659315E+02  0.182778784E+01 -0.244837616E+01
     4
 # iter = 61000  time[fs]=61.00000
   C -0.668269512E+01 -0.292731387E+00  0.144997195E+00
   C  0.584687123E+01 -0.218837438E+00  0.253292432E+00
   H -0.330101119E+02  0.293618704E+01 -0.139563676E+01
   H  0.321582188E+02  0.185079444E+01 -0.247887310E+01
     4
 # iter = 61500  time[fs]=61.50000
   C -0.677039468E+01 -0.296337011E+00  0.146709214E+00
   C  0.592408244E+01 -0.221432541E+00  0.256689076E+00
   H -0.334098102E+02  0.297206742E+01 -0.141256743E+01
   H  0.325506782E+02  0.187381289E+01 -0.250938580E+01
     4
 # iter = 62000  time[fs]=62.00000
   C -0.685816853E+01 -0.299944091E+00  0.148421162E+00
   C  0.600136605E+01 -0.224028372E+00  0.260087653E+00
   H -0.338096538E+02  0.300796243E+01 -0.142950510E+01
   H  0.329433054E+02  0.189684291E+01 -0.253991388E+01
     4
 # iter = 62500  time[fs]=62.50000
   C -0.694601475E+01 -0.303552593E+00  0.150133042E+00
   C  0.607872020E+01 -0.226624914E+00  0.263488121E+00
   H -0.342096393E+02  0.304387173E+01 -0.144644959E+01
   H  0.333360967E+02  0.191988423E+01 -0.257045698E+01
     4
 # iter = 63000  time[fs]=63.00000
   C -0.703393151E+01 -0.307162483E+00  0.151844855E+00
   C  0.615614308E+01 -0.229222151E+00  0.266890436E+00
   H -0.346097634E+02  0.307979499E+01 -0.146340076E+01
   H  0.337290481E+02  0.194293660E+01 -0.260101477E+01
     4
 # iter = 63500  time[fs]=63.50000
   C -0.712191703E+01 -0.310773730E+00  0.153556603E+00
   C  0.623363298E+01 -0.231820068E+00  0.270294555E+00
   H -0.350100230E+02  0.311573189E+01 -0.148035845E+01
   H  0.341221561E+02  0.196599977E+01 -0.263158692E+01
     4
 # iter = 64000  time[fs]=64.00000
   C -0.720996963E+01 -0.314386302E+00  0.155268287E+00
   C  0.631118824E+01 -0.234418652E+00  0.273700439E+00
   H -0.354104149E+02  0.315168214E+01 -0.149732252E+01
   H  0.345154170E+02  0.198907349E+01 -0.266217309E+01
     4
 # iter = 64500  time[fs]=64.50000
   C -0.729808765E+01 -0.318000170E+00  0.156979909E+00
   C  0.638880724E+01 -0.237017887E+00  0.277108048E+00
   H -0.358109363E+02  0.318764543E+01 -0.151429283E+01
   H  0.349088274E+02  0.201215753E+01 -0.269277300E+01
     4
 # iter = 65000  time[fs]=65.00000
   C -0.738626951E+01 -0.321615305E+00  0.158691471E+00
   C  0.646648845E+01 -0.239617760E+00  0.280517346E+00
   H -0.362115842E+02  0.322362148E+01 -0.153126923E+01
   H  0.353023840E+02  0.203525167E+01 -0.272338632E+01
     4
 # iter = 65500  time[fs]=65.50000
   C -0.747451367E+01 -0.325231678E+00  0.160402972E+00
   C  0.654423036E+01 -0.242218257E+00  0.283928294E+00
   H -0.366123559E+02  0.325961002E+01 -0.154825160E+01
   H  0.356960836E+02  0.205835569E+01 -0.275401278E+01
     4
 # iter = 66000  time[fs]=66.00000
   C -0.756281868E+01 -0.328849263E+00  0.162114416E+00
   C  0.662203154E+01 -0.244819367E+00  0.287340858E+00
   H -0.370132487E+02  0.329561078E+01 -0.156523981E+01
   H  0.360899231E+02  0.208146937E+01 -0.278465209E+01
     4
 # iter = 66500  time[fs]=66.50000
   C -0.765118309E+01 -0.332468034E+00  0.163825803E+00
   C  0.669989060E+01 -0.247421077E+00  0.290755003E+00
   H -0.374142601E+02  0.333162350E+01 -0.158223373E+01
   H  0.364838995E+02  0.210459251E+01 -0.281530398E+01
     4
 # iter = 67000  time[fs]=67.00000
   C -0.773960553E+01 -0.336087966E+00  0.165537134E+00
   C  0.677780620E+01 -0.250023373E+00  0.294170697E+00
   H -0.378153874E+02  0.336764793E+01 -0.159923325E+01
   H  0.368780099E+02  0.212772492E+01 -0.284596819E+01
     4
 # iter = 67500  time[fs]=67.50000
   C -0.782808467E+01 -0.339709033E+00  0.167248411E+00
   C  0.685577703E+01 -0.252626246E+00  0.297587907E+00
   H -0.382166283E+02  0.340368383E+01 -0.161623824E+01
   H  0.372722514E+02  0.215086640E+01 -0.287664445E+01
     4
 # iter = 68000  time[fs]=68.00000
   C -0.791661923E+01 -0.343331211E+00  0.168959634E+00
   C  0.693380184E+01 -0.255229683E+00  0.301006601E+00
   H -0.386179804E+02  0.343973096E+01 -0.163324861E+01
   H  0.376666213E+02  0.217401676E+01 -0.290733254E+01
     4
 # iter = 68500  time[fs]=68.50000
   C -0.800520796E+01 -0.346954479E+00  0.170670806E+00
   C  0.701187943E+01 -0.257833674E+00  0.304426750E+00
   H -0.390194414E+02  0.347578909E+01 -0.165026423E+01
   H  0.380611169E+02  0.219717583E+01 -0.293803219E+01
     4
 # iter = 69000  time[fs]=69.00000
   C -0.809384966E+01 -0.350578813E+00  0.172381927E+00
   C  0.709000861E+01 -0.260438207E+00  0.307848324E+00
   H -0.394210092E+02  0.351185801E+01 -0.166728500E+01
   H  0.384557358E+02  0.222034342E+01 -0.296874319E+01
     4
 # iter = 69500  time[fs]=69.50000
   C -0.818254316E+01 -0.354204193E+00  0.174092998E+00
   C  0.716818824E+01 -0.263043272E+00  0.311271295E+00
   H -0.398226814E+02  0.354793749E+01 -0.168431082E+01
   H  0.388504753E+02  0.224351938E+01 -0.299946530E+01
     4
 # iter = 70000  time[fs]=70.00000
   C -0.827128734E+01 -0.357830596E+00  0.175804021E+00
   C  0.724641724E+01 -0.265648860E+00  0.314695634E+00
   H -0.402244562E+02  0.358402733E+01 -0.170134159E+01
   H  0.392453332E+02  0.226670353E+01 -0.303019830E+01
     4
 # iter = 70500  time[fs]=70.50000
   C -0.836008111E+01 -0.361458002E+00  0.177514996E+00
   C  0.732469453E+01 -0.268254960E+00  0.318121316E+00
   H -0.406263314E+02  0.362012733E+01 -0.171837721E+01
   H  0.396403069E+02  0.228989571E+01 -0.306094199E+01
     4
 # iter = 71000  time[fs]=71.00000
   C -0.844892340E+01 -0.365086392E+00  0.179225924E+00
   C  0.740301908E+01 -0.270861564E+00  0.321548314E+00
   H -0.410283050E+02  0.365623728E+01 -0.173541759E+01
   H  0.400353943E+02  0.231309577E+01 -0.309169615E+01
     4
 # iter = 71500  time[fs]=71.50000
   C -0.853781320E+01 -0.368715747E+00  0.180936807E+00
   C  0.748138990E+01 -0.273468660E+00  0.324976602E+00
   H -0.414303752E+02  0.369235701E+01 -0.175246263E+01
   H  0.404305932E+02  0.233630356E+01 -0.312246059E+01
     4
 # iter = 72000  time[fs]=72.00000
   C -0.862674952E+01 -0.372346047E+00  0.182647645E+00
   C  0.755980602E+01 -0.276076241E+00  0.328406156E+00
   H -0.418325401E+02  0.372848632E+01 -0.176951225E+01
   H  0.408259013E+02  0.235951892E+01 -0.315323511E+01
     4
 # iter = 72500  time[fs]=72.50000
   C -0.871573138E+01 -0.375977275E+00  0.184358440E+00
   C  0.763826649E+01 -0.278684298E+00  0.331836953E+00
   H -0.422347980E+02  0.376462503E+01 -0.178656636E+01
   H  0.412213167E+02  0.238274173E+01 -0.318401951E+01
     4
 # iter = 73000  time[fs]=73.00000
   C -0.880475786E+01 -0.379609413E+00  0.186069191E+00
   C  0.771677041E+01 -0.281292823E+00  0.335268968E+00
   H -0.426371469E+02  0.380077298E+01 -0.180362488E+01
   H  0.416168372E+02  0.240597183E+01 -0.321481363E+01
     4
 # iter = 73500  time[fs]=73.50000
   C -0.889382805E+01 -0.383242443E+00  0.187779901E+00
   C  0.779531690E+01 -0.283901806E+00  0.338702179E+00
   H -0.430395853E+02  0.383692998E+01 -0.182068773E+01
   H  0.420124609E+02  0.242920910E+01 -0.324561726E+01
     4
 # iter = 74000  time[fs]=74.00000
   C -0.898294107E+01 -0.386876350E+00  0.189490570E+00
   C  0.787390509E+01 -0.286511240E+00  0.342136565E+00
   H -0.434421116E+02  0.387309587E+01 -0.183775482E+01
   H  0.424081860E+02  0.245245340E+01 -0.327643025E+01
     4
 # iter = 74500  time[fs]=74.50000
   C -0.907209606E+01 -0.390511117E+00  0.191201198E+00
   C  0.795253415E+01 -0.289121116E+00  0.345572103E+00
   H -0.438447239E+02  0.390927049E+01 -0.185482608E+01
   H  0.428040104E+02  0.247570460E+01 -0.330725242E+01
     4
 # iter = 75000  time[fs]=75.00000
   C -0.916129221E+01 -0.394146728E+00  0.192911787E+00
   C  0.803120329E+01 -0.291731428E+00  0.349008774E+00
   H -0.442474209E+02  0.394545368E+01 -0.187190143E+01
   H  0.431999324E+02  0.249896258E+01 -0.333808361E+01
     4
 # iter = 75500  time[fs]=75.50000
   C -0.925052871E+01 -0.397783168E+00  0.194622338E+00
   C  0.810991171E+01 -0.294342168E+00  0.352446555E+00
   H -0.446502010E+02  0.398164529E+01 -0.188898080E+01
   H  0.435959503E+02  0.252222723E+01 -0.336892365E+01
     4
 # iter = 76000  time[fs]=76.00000
   C -0.933980477E+01 -0.401420422E+00  0.196332850E+00
   C  0.818865864E+01 -0.296953329E+00  0.355885429E+00
   H -0.450530627E+02  0.401784518E+01 -0.190606413E+01
   H  0.439920623E+02  0.254549841E+01 -0.339977239E+01
     4
 # iter = 76500  time[fs]=76.50000
   C -0.942911964E+01 -0.405058475E+00  0.198043326E+00
   C  0.826744336E+01 -0.299564902E+00  0.359325376E+00
   H -0.454560045E+02  0.405405319E+01 -0.192315133E+01
   H  0.443882668E+02  0.256877602E+01 -0.343062968E+01
     4
 # iter = 77000  time[fs]=77.00000
   C -0.951847257E+01 -0.408697314E+00  0.199753765E+00
   C  0.834626514E+01 -0.302176882E+00  0.362766376E+00
   H -0.458590251E+02  0.409026919E+01 -0.194024234E+01
   H  0.447845621E+02  0.259205995E+01 -0.346149536E+01
     4
 # iter = 77500  time[fs]=77.50000
   C -0.960786285E+01 -0.412336924E+00  0.201464168E+00
   C  0.842512329E+01 -0.304789262E+00  0.366208412E+00
   H -0.462621231E+02  0.412649304E+01 -0.195733711E+01
   H  0.451809466E+02  0.261535008E+01 -0.349236930E+01
     4
 # iter = 78000  time[fs]=78.00000
   C -0.969728979E+01 -0.415977293E+00  0.203174536E+00
   C  0.850401711E+01 -0.307402035E+00  0.369651466E+00
   H -0.466652971E+02  0.416272460E+01 -0.197443555E+01
   H  0.455774188E+02  0.263864631E+01 -0.352325136E+01
     4
 # iter = 78500  time[fs]=78.50000
   C -0.978675270E+01 -0.419618406E+00  0.204884870E+00
   C  0.858294595E+01 -0.310015194E+00  0.373095521E+00
   H -0.470685458E+02  0.419896374E+01 -0.199153762E+01
   H  0.459739772E+02  0.266194854E+01 -0.355414138E+01
     4
 # iter = 79000  time[fs]=79.00000
   C -0.987625092E+01 -0.423260252E+00  0.206595171E+00
   C  0.866190917E+01 -0.312628734E+00  0.376540559E+00
   H -0.474718680E+02  0.423521034E+01 -0.200864324E+01
   H  0.463706203E+02  0.268525667E+01 -0.358503925E+01
     4
 # iter = 79500  time[fs]=79.50000
   C -0.996578381E+01 -0.426902817E+00  0.208305438E+00
   C  0.874090614E+01 -0.315242648E+00  0.379986565E+00
   H -0.478752625E+02  0.427146428E+01 -0.202575237E+01
   H  0.467673467E+02  0.270857059E+01 -0.361594483E+01
     4
 # iter = 80000  time[fs]=80.00000
   C -0.100553507E+02 -0.430546091E+00  0.210015674E+00
   C  0.881993625E+01 -0.317856931E+00  0.383433521E+00
   H -0.482787279E+02  0.430772542E+01 -0.204286494E+01
   H  0.471641550E+02  0.273189022E+01 -0.364685799E+01
