     4
 # iter = 25000  time[fs]=25.00000
   C -0.106309910E+01  0.287682965E-01  0.229101541E-02
   C  0.962445635E+00 -0.141011749E-02  0.971330272E-02
   H -0.530721002E+01 -0.818860803E+00 -0.516178546E+00
   H  0.525973270E+01  0.575749792E+00 -0.244141980E+00
     4
 # iter = 25500  time[fs]=25.50000
   C -0.111597609E+01  0.304369180E-01  0.303197883E-02
   C  0.100177876E+01 -0.459546556E-02  0.101960295E-01
   H -0.564771554E+01 -0.879237499E+00 -0.555150128E+00
   H  0.556767205E+01  0.604569051E+00 -0.266839479E+00
     4
 # iter = 26000  time[fs]=26.00000
   C -0.117209203E+01  0.310219320E-01  0.264425537E-02
   C  0.104238027E+01 -0.865128284E-02  0.987457349E-02
   H -0.599621148E+01 -0.945465645E+00 -0.599788178E+00
   H  0.587285941E+01  0.628299469E+00 -0.295065286E+00
     4
 # iter = 26500  time[fs]=26.50000
   C -0.122787637E+01  0.339154056E-01  0.452152896E-02
   C  0.108652987E+01 -0.111190054E-01  0.112039346E-01
   H -0.633631266E+01 -0.100140732E+01 -0.633975973E+00
   H  0.619111469E+01  0.663003829E+00 -0.312712055E+00
     4
 # iter = 27000  time[fs]=27.00000
   C -0.128300053E+01  0.392830382E-01  0.883118513E-02
   C  0.113418854E+01 -0.118759775E-01  0.143032105E-01
   H -0.666698061E+01 -0.104622469E+01 -0.656892853E+00
   H  0.652299050E+01  0.709449710E+00 -0.318972569E+00
     4
 # iter = 27500  time[fs]=27.50000
   C -0.133984414E+01  0.445972975E-01  0.130474010E-01
   C  0.118338340E+01 -0.127494625E-01  0.173416432E-01
   H -0.699998541E+01 -0.109185177E+01 -0.680486850E+00
   H  0.685629490E+01  0.755636446E+00 -0.325812050E+00
     4
 # iter = 28000  time[fs]=28.00000
   C -0.140006166E+01  0.480691684E-01  0.153829471E-01
   C  0.123268939E+01 -0.150318162E-01  0.190235627E-01
   H -0.734362383E+01 -0.114672704E+01 -0.713208555E+00
   H  0.718236887E+01  0.793069211E+00 -0.341694872E+00
     4
 # iter = 28500  time[fs]=28.50000
   C -0.146281070E+01  0.504184353E-01  0.165594734E-01
   C  0.128250907E+01 -0.181987905E-01  0.198701298E-01
   H -0.769431975E+01 -0.120740164E+01 -0.751619992E+00
   H  0.750448035E+01  0.825153939E+00 -0.363189558E+00
     4
 # iter = 29000  time[fs]=29.00000
   C -0.152621086E+01  0.534141563E-01  0.183479120E-01
   C  0.133401554E+01 -0.209663545E-01  0.211624852E-01
   H -0.804354127E+01 -0.126545682E+01 -0.787312080E+00
   H  0.783089547E+01  0.860274938E+00 -0.381889940E+00
     4
 # iter = 29500  time[fs]=29.50000
   C -0.158955192E+01  0.576658485E-01  0.213595896E-01
   C  0.138755321E+01 -0.228899571E-01  0.233424490E-01
   H -0.838827079E+01 -0.131797300E+01 -0.817373621E+00
   H  0.816439625E+01  0.901319044E+00 -0.394889732E+00
     4
 # iter = 30000  time[fs]=30.00000
   C -0.165360272E+01  0.623136597E-01  0.247363719E-01
   C  0.144241260E+01 -0.245889014E-01  0.257881380E-01
   H -0.873247170E+01 -0.136899797E+01 -0.845859642E+00
   H  0.850080798E+01  0.944205855E+00 -0.406251768E+00
     4
 # iter = 30500  time[fs]=30.50000
   C -0.171923965E+01  0.663988118E-01  0.275211206E-01
   C  0.149782107E+01 -0.267542353E-01  0.278060875E-01
   H -0.908058891E+01 -0.142305094E+01 -0.877295716E+00
   H  0.883549805E+01  0.984386767E+00 -0.420508961E+00
     4
 # iter = 31000  time[fs]=31.00000
   C -0.178640315E+01  0.699060959E-01  0.297001981E-01
   C  0.155369636E+01 -0.293940533E-01  0.293859560E-01
   H -0.943260475E+01 -0.148018102E+01 -0.911736666E+00
   H  0.916831945E+01  0.102178880E+01 -0.437720455E+00
     4
 # iter = 31500  time[fs]=31.50000
   C -0.185440294E+01  0.734578509E-01  0.318974418E-01
   C  0.161042430E+01 -0.320550302E-01  0.309789809E-01
   H -0.978548812E+01 -0.153741740E+01 -0.946216877E+00
   H  0.950215787E+01  0.105936313E+01 -0.454922834E+00
     4
 # iter = 32000  time[fs]=32.00000
   C -0.192279207E+01  0.774393158E-01  0.344995046E-01
   C  0.166822515E+01 -0.344555971E-01  0.328647863E-01
   H -0.101373398E+02 -0.159291483E+01 -0.978895731E+00
   H  0.983878170E+01  0.109893689E+01 -0.470277927E+00
     4
 # iter = 32500  time[fs]=32.50000
   C -0.199168000E+01  0.816849591E-01  0.373421810E-01
   C  0.172692595E+01 -0.367130215E-01  0.349242908E-01
   H -0.104888782E+02 -0.164744014E+01 -0.101054421E+01
   H  0.101773531E+02  0.113972556E+01 -0.484560277E+00
     4
 # iter = 33000  time[fs]=33.00000
   C -0.206135521E+01  0.858552062E-01  0.400871395E-01
   C  0.178623265E+01 -0.390707049E-01  0.369124034E-01
   H -0.108416534E+02 -0.170258652E+01 -0.104275925E+01
   H  0.105162142E+02  0.118011940E+01 -0.499370508E+00
     4
 # iter = 33500  time[fs]=33.50000
   C -0.213187145E+01  0.898497016E-01  0.426351926E-01
   C  0.184602863E+01 -0.415990243E-01  0.387571753E-01
   H -0.111960866E+02 -0.175881462E+01 -0.107600490E+01
   H  0.108548462E+02  0.121964335E+01 -0.515175443E+00
     4
 # iter = 34000  time[fs]=34.00000
   C -0.220304317E+01  0.938114202E-01  0.451304116E-01
   C  0.190637724E+01 -0.441923461E-01  0.405627788E-01
   H -0.115514504E+02 -0.181543293E+01 -0.110959274E+01
   H  0.111938885E+02  0.125897645E+01 -0.531288564E+00
     4
 # iter = 34500  time[fs]=34.50000
   C -0.227469155E+01  0.978802018E-01  0.477136642E-01
   C  0.196734300E+01 -0.467474270E-01  0.424310966E-01
   H -0.119070365E+02 -0.187176587E+01 -0.114285001E+01
   H  0.115339694E+02  0.129878296E+01 -0.547038799E+00
     4
 # iter = 35000  time[fs]=35.00000
   C -0.234678429E+01  0.102052606E+00  0.503824720E-01
   C  0.202888989E+01 -0.492648562E-01  0.443602717E-01
   H -0.122628196E+02 -0.192781788E+01 -0.117578377E+01
   H  0.118750408E+02  0.133904765E+01 -0.562435102E+00
     4
 # iter = 35500  time[fs]=35.50000
   C -0.241937032E+01  0.106246926E+00  0.530560294E-01
   C  0.209092799E+01 -0.518019897E-01  0.462917660E-01
   H -0.126191487E+02 -0.198396527E+01 -0.120877266E+01
   H  0.122166860E+02  0.137938419E+01 -0.577858081E+00
     4
 # iter = 36000  time[fs]=36.00000
   C -0.249246437E+01  0.110418281E+00  0.556902971E-01
   C  0.215339659E+01 -0.543896377E-01  0.481936667E-01
   H -0.129762013E+02 -0.204041057E+01 -0.124202140E+01
   H  0.125586655E+02  0.141958085E+01 -0.593514164E+00
     4
 # iter = 36500  time[fs]=36.50000
   C -0.256602042E+01  0.114584921E+00  0.583043174E-01
   C  0.221628290E+01 -0.570130110E-01  0.500797340E-01
   H -0.133338585E+02 -0.209705782E+01 -0.127543604E+01
   H  0.129010416E+02  0.145972532E+01 -0.609310793E+00
     4
 # iter = 37000  time[fs]=37.00000
   C -0.263998005E+01  0.118779666E+00  0.609316486E-01
   C  0.227958675E+01 -0.596468711E-01  0.519742452E-01
   H -0.136919346E+02 -0.215374266E+01 -0.130885407E+01
   H  0.132439473E+02  0.149997434E+01 -0.625086721E+00
     4
 # iter = 37500  time[fs]=37.50000
   C -0.271431211E+01  0.123009993E+00  0.635804637E-01
   C  0.234329147E+01 -0.622844085E-01  0.538831108E-01
   H -0.140503663E+02 -0.221042145E+01 -0.134223356E+01
   H  0.135873976E+02  0.154036447E+01 -0.640801230E+00
     4
 # iter = 38000  time[fs]=38.00000
   C -0.278900820E+01  0.127262434E+00  0.662379456E-01
   C  0.240736690E+01 -0.649340591E-01  0.557970542E-01
   H -0.144091916E+02 -0.226715037E+01 -0.137563228E+01
   H  0.139313094E+02  0.158083288E+01 -0.656513274E+00
     4
 # iter = 38500  time[fs]=38.50000
   C -0.286405969E+01  0.131525340E+00  0.688930559E-01
   C  0.247178573E+01 -0.676030191E-01  0.577080912E-01
   H -0.147684419E+02 -0.232397748E+01 -0.140909976E+01
   H  0.142756098E+02  0.162132536E+01 -0.672273485E+00
     4
 # iter = 39000  time[fs]=39.00000
   C -0.293944803E+01  0.135798434E+00  0.715460931E-01
   C  0.253653026E+01 -0.702903247E-01  0.596164471E-01
   H -0.151280960E+02 -0.238089740E+01 -0.144263201E+01
   H  0.146202810E+02  0.166184158E+01 -0.688078842E+00
     4
 # iter = 39500  time[fs]=39.50000
   C -0.301515099E+01  0.140086478E+00  0.742023572E-01
   C  0.260158767E+01 -0.729914337E-01  0.615259714E-01
   H -0.154881106E+02 -0.243788132E+01 -0.147620147E+01
   H  0.149653306E+02  0.170240505E+01 -0.703902704E+00
     4
 # iter = 40000  time[fs]=40.00000
   C -0.309115034E+01  0.144391435E+00  0.768643193E-01
   C  0.266694429E+01 -0.757038914E-01  0.634384680E-01
   H -0.158484569E+02 -0.249491405E+01 -0.150979417E+01
   H  0.153107535E+02  0.174302602E+01 -0.719731936E+00
     4
 # iter = 40500  time[fs]=40.50000
   C -0.316743269E+01  0.148711537E+00  0.795306902E-01
   C  0.273258477E+01 -0.784280015E-01  0.653530213E-01
   H -0.162091251E+02 -0.255199846E+01 -0.154341407E+01
   H  0.156565281E+02  0.178369696E+01 -0.735571320E+00
     4
 # iter = 41000  time[fs]=41.00000
   C -0.324398624E+01  0.153044461E+00  0.821995944E-01
   C  0.279849433E+01 -0.811645271E-01  0.672682930E-01
   H -0.165701092E+02 -0.260914040E+01 -0.157706809E+01
   H  0.160026312E+02  0.182440769E+01 -0.751428498E+00
     4
 # iter = 41500  time[fs]=41.50000
   C -0.332079868E+01  0.157389304E+00  0.848705555E-01
   C  0.286466009E+01 -0.839132510E-01  0.691839583E-01
   H -0.169313975E+02 -0.266633926E+01 -0.161075658E+01
   H  0.163490469E+02  0.186515474E+01 -0.767304550E+00
     4
 # iter = 42000  time[fs]=42.00000
   C -0.339785760E+01  0.161746141E+00  0.875440480E-01
   C  0.293107068E+01 -0.866732978E-01  0.711003817E-01
   H -0.172929748E+02 -0.272359012E+01 -0.164447554E+01
   H  0.166957648E+02  0.190593922E+01 -0.783196111E+00
     4
 # iter = 42500  time[fs]=42.50000
   C -0.347515146E+01  0.166114936E+00  0.902204127E-01
   C  0.299771537E+01 -0.894439172E-01  0.730178317E-01
   H -0.176548270E+02 -0.278088882E+01 -0.167822168E+01
   H  0.170427745E+02  0.194676169E+01 -0.799100512E+00
     4
 # iter = 43000  time[fs]=43.00000
   C -0.355266990E+01  0.170495211E+00  0.928995294E-01
   C  0.306458381E+01 -0.922247193E-01  0.749362432E-01
   H -0.180169431E+02 -0.283823355E+01 -0.171199401E+01
   H  0.173900642E+02  0.198762058E+01 -0.815017331E+00
     4
 # iter = 43500  time[fs]=43.50000
   C -0.363040339E+01  0.174886348E+00  0.955811175E-01
   C  0.313166615E+01 -0.950154551E-01  0.768554353E-01
   H -0.183793137E+02 -0.289562339E+01 -0.174579237E+01
   H  0.177376221E+02  0.202851363E+01 -0.830946956E+00
     4
 # iter = 44000  time[fs]=44.00000
   C -0.370834284E+01  0.179287862E+00  0.982650115E-01
   C  0.319895322E+01 -0.978158156E-01  0.787753105E-01
   H -0.187419292E+02 -0.295305700E+01 -0.177961613E+01
   H  0.180854375E+02  0.206943918E+01 -0.846889284E+00
     4
 # iter = 44500  time[fs]=44.50000
   C -0.378647961E+01  0.183699407E+00  0.100951167E+00
   C  0.326643650E+01 -0.100625426E+00  0.806958591E-01
   H -0.191047802E+02 -0.301053258E+01 -0.181346419E+01
   H  0.184335007E+02  0.211039618E+01 -0.862843679E+00
     4
 # iter = 45000  time[fs]=45.00000
   C -0.386480556E+01  0.188120667E+00  0.103639556E+00
   C  0.333410794E+01 -0.103443919E+00  0.826170821E-01
   H -0.194678576E+02 -0.306804836E+01 -0.184733543E+01
   H  0.187818027E+02  0.215138372E+01 -0.878809478E+00
     4
 # iter = 45500  time[fs]=45.50000
   C -0.394331305E+01  0.192551306E+00  0.106330112E+00
   C  0.340195997E+01 -0.106270976E+00  0.845389544E-01
   H -0.198311532E+02 -0.312560286E+01 -0.188122895E+01
   H  0.191303350E+02  0.219240075E+01 -0.894786228E+00
     4
 # iter = 46000  time[fs]=46.00000
   C -0.402199491E+01  0.196990981E+00  0.109022753E+00
   C  0.346998540E+01 -0.109106308E+00  0.864614370E-01
   H -0.201946590E+02 -0.318319476E+01 -0.191514404E+01
   H  0.194790890E+02  0.223344619E+01 -0.910773605E+00
     4
 # iter = 46500  time[fs]=46.50000
   C -0.410084434E+01  0.201439372E+00  0.111717402E+00
   C  0.353817748E+01 -0.111949637E+00  0.883844959E-01
   H -0.205583677E+02 -0.324082280E+01 -0.194907997E+01
   H  0.198280571E+02  0.227451900E+01 -0.926771283E+00
     4
 # iter = 47000  time[fs]=47.00000
   C -0.417985493E+01  0.205896184E+00  0.114413996E+00
   C  0.360652982E+01 -0.114800692E+00  0.903081062E-01
   H -0.209222723E+02 -0.329848574E+01 -0.198303602E+01
   H  0.201772317E+02  0.231561828E+01 -0.942778906E+00
     4
 # iter = 47500  time[fs]=47.50000
   C -0.425902061E+01  0.210361136E+00  0.117112478E+00
   C  0.367503638E+01 -0.117659212E+00  0.922322469E-01
   H -0.212863660E+02 -0.335618239E+01 -0.201701150E+01
   H  0.205266058E+02  0.235674315E+01 -0.958796125E+00
     4
 # iter = 48000  time[fs]=48.00000
   C -0.433833564E+01  0.214833963E+00  0.119812791E+00
   C  0.374369144E+01 -0.120524952E+00  0.941568966E-01
   H -0.216506424E+02 -0.341391161E+01 -0.205100576E+01
   H  0.208761728E+02  0.239789279E+01 -0.974822617E+00
     4
 # iter = 48500  time[fs]=48.50000
   C -0.441779456E+01  0.219314406E+00  0.122514879E+00
   C  0.381248958E+01 -0.123397678E+00  0.960820341E-01
   H -0.220150955E+02 -0.347167236E+01 -0.208501818E+01
   H  0.212259263E+02  0.243906640E+01 -0.990858082E+00
     4
 # iter = 49000  time[fs]=49.00000
   C -0.449739222E+01  0.223802221E+00  0.125218687E+00
   C  0.388142568E+01 -0.126277166E+00  0.980076394E-01
   H -0.223797195E+02 -0.352946363E+01 -0.211904817E+01
   H  0.215758602E+02  0.248026321E+01 -0.100690224E+01
     4
 # iter = 49500  time[fs]=49.50000
   C -0.457712372E+01  0.228297174E+00  0.127924166E+00
   C  0.395049485E+01 -0.129163205E+00  0.999336940E-01
   H -0.227445090E+02 -0.358728445E+01 -0.215309519E+01
   H  0.219259688E+02  0.252148251E+01 -0.102295481E+01
     4
 # iter = 50000  time[fs]=50.00000
   C -0.465698442E+01  0.232799043E+00  0.130631266E+00
   C  0.401969246E+01 -0.132055589E+00  0.101860181E+00
   H -0.231094588E+02 -0.364513389E+01 -0.218715870E+01
   H  0.222762465E+02  0.256272359E+01 -0.103901553E+01
     4
 # iter = 50500  time[fs]=50.50000
   C -0.473696989E+01  0.237307615E+00  0.133339941E+00
   C  0.408901413E+01 -0.134954124E+00  0.103787083E+00
   H -0.234745637E+02 -0.370301109E+01 -0.222123818E+01
   H  0.226266881E+02  0.260398581E+01 -0.105508416E+01
     4
 # iter = 51000  time[fs]=51.00000
   C -0.481707592E+01  0.241822686E+00  0.136050145E+00
   C  0.415845566E+01 -0.137858625E+00  0.105714386E+00
   H -0.238398192E+02 -0.376091521E+01 -0.225533316E+01
   H  0.229772887E+02  0.264526853E+01 -0.107116046E+01
     4
 # iter = 51500  time[fs]=51.50000
   C -0.489729852E+01  0.246344062E+00  0.138761836E+00
   C  0.422801307E+01 -0.140768912E+00  0.107642075E+00
   H -0.242052206E+02 -0.381884544E+01 -0.228944318E+01
   H  0.233280434E+02  0.268657115E+01 -0.108724419E+01
     4
 # iter = 52000  time[fs]=52.00000
   C -0.497763387E+01  0.250871557E+00  0.141474973E+00
   C  0.429768258E+01 -0.143684816E+00  0.109570137E+00
   H -0.245707636E+02 -0.387680103E+01 -0.232356779E+01
   H  0.236789476E+02  0.272789309E+01 -0.110333515E+01
     4
 # iter = 52500  time[fs]=52.50000
   C -0.505807834E+01  0.255404991E+00  0.144189516E+00
   C  0.436746056E+01 -0.146606172E+00  0.111498557E+00
   H -0.249364441E+02 -0.393478123E+01 -0.235770656E+01
   H  0.240299970E+02  0.276923381E+01 -0.111943312E+01
     4
 # iter = 53000  time[fs]=53.00000
   C -0.513862847E+01  0.259944195E+00  0.146905426E+00
   C  0.443734356E+01 -0.149532825E+00  0.113427324E+00
   H -0.253022580E+02 -0.399278536E+01 -0.239185910E+01
   H  0.243811875E+02  0.281059278E+01 -0.113553791E+01
     4
 # iter = 53500  time[fs]=53.50000
   C -0.521928094E+01  0.264489004E+00  0.149622668E+00
   C  0.450732830E+01 -0.152464624E+00  0.115356427E+00
   H -0.256682017E+02 -0.405081272E+01 -0.242602501E+01
   H  0.247325149E+02  0.285196948E+01 -0.115164932E+01
     4
 # iter = 54000  time[fs]=54.00000
   C -0.530003259E+01  0.269039261E+00  0.152341206E+00
   C  0.457741163E+01 -0.155401425E+00  0.117285854E+00
   H -0.260342714E+02 -0.410886270E+01 -0.246020392E+01
   H  0.250839755E+02  0.289336344E+01 -0.116776717E+01
     4
 # iter = 54500  time[fs]=54.50000
   C -0.538088041E+01  0.273594814E+00  0.155061006E+00
   C  0.464759055E+01 -0.158343090E+00  0.119215594E+00
   H -0.264004636E+02 -0.416693466E+01 -0.249439548E+01
   H  0.254355656E+02  0.293477419E+01 -0.118389129E+01
     4
 # iter = 55000  time[fs]=55.00000
   C -0.546182151E+01  0.278155520E+00  0.157782037E+00
   C  0.471786218E+01 -0.161289486E+00  0.121145638E+00
   H -0.267667750E+02 -0.422502801E+01 -0.252859935E+01
   H  0.257872816E+02  0.297620128E+01 -0.120002151E+01
     4
 # iter = 55500  time[fs]=55.50000
   C -0.554285313E+01  0.282721240E+00  0.160504265E+00
   C  0.478822378E+01 -0.164240486E+00  0.123075976E+00
   H -0.271332024E+02 -0.428314218E+01 -0.256281518E+01
   H  0.261391202E+02  0.301764428E+01 -0.121615765E+01
     4
 # iter = 56000  time[fs]=56.00000
   C -0.562397261E+01  0.287291838E+00  0.163227662E+00
   C  0.485867272E+01 -0.167195967E+00  0.125006599E+00
   H -0.274997426E+02 -0.434127664E+01 -0.259704268E+01
   H  0.264910781E+02  0.305910278E+01 -0.123229958E+01
     4
 # iter = 56500  time[fs]=56.50000
   C -0.570517743E+01  0.291867187E+00  0.165952198E+00
   C  0.492920647E+01 -0.170155811E+00  0.126937498E+00
   H -0.278663928E+02 -0.439943085E+01 -0.263128154E+01
   H  0.268431522E+02  0.310057638E+01 -0.124844714E+01
     4
 # iter = 57000  time[fs]=57.00000
   C -0.578646516E+01  0.296447163E+00  0.168677846E+00
   C  0.499982261E+01 -0.173119904E+00  0.128868665E+00
   H -0.282331501E+02 -0.445760430E+01 -0.266553146E+01
   H  0.271953395E+02  0.314206469E+01 -0.126460019E+01
     4
 # iter = 57500  time[fs]=57.50000
   C -0.586783347E+01  0.301031647E+00  0.171404577E+00
   C  0.507051884E+01 -0.176088138E+00  0.130800093E+00
   H -0.286000117E+02 -0.451579652E+01 -0.269979216E+01
   H  0.275476370E+02  0.318356736E+01 -0.128075858E+01
     4
 # iter = 58000  time[fs]=58.00000
   C -0.594928012E+01  0.305620525E+00  0.174132367E+00
   C  0.514129293E+01 -0.179060407E+00  0.132731773E+00
   H -0.289669749E+02 -0.457400703E+01 -0.273406338E+01
   H  0.279000421E+02  0.322508403E+01 -0.129692219E+01
     4
 # iter = 58500  time[fs]=58.50000
   C -0.603080297E+01  0.310213686E+00  0.176861189E+00
   C  0.521214275E+01 -0.182036610E+00  0.134663699E+00
   H -0.293340373E+02 -0.463223539E+01 -0.276834485E+01
   H  0.282525519E+02  0.326661435E+01 -0.131309088E+01
     4
 # iter = 59000  time[fs]=59.00000
   C -0.611239996E+01  0.314811023E+00  0.179591020E+00
   C  0.528306624E+01 -0.185016650E+00  0.136595863E+00
   H -0.297011964E+02 -0.469048115E+01 -0.280263632E+01
   H  0.286051640E+02  0.330815800E+01 -0.132926454E+01
     4
 # iter = 59500  time[fs]=59.50000
   C -0.619406911E+01  0.319412434E+00  0.182321836E+00
   C  0.535406144E+01 -0.188000432E+00  0.138528259E+00
   H -0.300684499E+02 -0.474874390E+01 -0.283693756E+01
   H  0.289578759E+02  0.334971465E+01 -0.134544304E+01
     4
 # iter = 60000  time[fs]=60.00000
   C -0.627580851E+01  0.324017821E+00  0.185053615E+00
   C  0.542512646E+01 -0.190987866E+00  0.140460881E+00
   H -0.304357954E+02 -0.480702324E+01 -0.287124833E+01
   H  0.293106850E+02  0.339128401E+01 -0.136162627E+01
     4
 # iter = 60500  time[fs]=60.50000
   C -0.635761633E+01  0.328627087E+00  0.187786334E+00
   C  0.549625946E+01 -0.193978863E+00  0.142393723E+00
   H -0.308032308E+02 -0.486531878E+01 -0.290556840E+01
   H  0.296635893E+02  0.343286578E+01 -0.137781412E+01
     4
 # iter = 61000  time[fs]=61.00000
   C -0.643949082E+01  0.333240141E+00  0.190519973E+00
   C  0.556745871E+01 -0.196973340E+00  0.144326778E+00
   H -0.311707539E+02 -0.492363013E+01 -0.293989755E+01
   H  0.300165863E+02  0.347445966E+01 -0.139400648E+01
     4
 # iter = 61500  time[fs]=61.50000
   C -0.652143027E+01  0.337856894E+00  0.193254510E+00
   C  0.563872251E+01 -0.199971215E+00  0.146260042E+00
   H -0.315383627E+02 -0.498195695E+01 -0.297423559E+01
   H  0.303696740E+02  0.351606540E+01 -0.141020325E+01
     4
 # iter = 62000  time[fs]=62.00000
   C -0.660343305E+01  0.342477259E+00  0.195989927E+00
   C  0.571004924E+01 -0.202972409E+00  0.148193508E+00
   H -0.319060553E+02 -0.504029887E+01 -0.300858230E+01
   H  0.307228502E+02  0.355768271E+01 -0.142640432E+01
     4
 # iter = 62500  time[fs]=62.50000
   C -0.668549759E+01  0.347101155E+00  0.198726203E+00
   C  0.578143733E+01 -0.205976846E+00  0.150127173E+00
   H -0.322738297E+02 -0.509865556E+01 -0.304293749E+01
   H  0.310761130E+02  0.359931135E+01 -0.144260960E+01
     4
 # iter = 63000  time[fs]=63.00000
   C -0.676762237E+01  0.351728500E+00  0.201463321E+00
   C  0.585288528E+01 -0.208984452E+00  0.152061030E+00
   H -0.326416841E+02 -0.515702669E+01 -0.307730097E+01
   H  0.314294604E+02  0.364095106E+01 -0.145881901E+01
     4
 # iter = 63500  time[fs]=63.50000
   C -0.684980593E+01  0.356359217E+00  0.204201261E+00
   C  0.592439163E+01 -0.211995155E+00  0.153995075E+00
   H -0.330096167E+02 -0.521541194E+01 -0.311167257E+01
   H  0.317828906E+02  0.368260161E+01 -0.147503244E+01
     4
 # iter = 64000  time[fs]=64.00000
   C -0.693204685E+01  0.360993232E+00  0.206940008E+00
   C  0.599595497E+01 -0.215008888E+00  0.155929303E+00
   H -0.333776258E+02 -0.527381101E+01 -0.314605209E+01
   H  0.321364016E+02  0.372426275E+01 -0.149124981E+01
     4
 # iter = 64500  time[fs]=64.50000
   C -0.701434377E+01  0.365630471E+00  0.209679544E+00
   C  0.606757395E+01 -0.218025583E+00  0.157863711E+00
   H -0.337457097E+02 -0.533222359E+01 -0.318043937E+01
   H  0.324899919E+02  0.376593427E+01 -0.150747103E+01
     4
 # iter = 65000  time[fs]=65.00000
   C -0.709669538E+01  0.370270864E+00  0.212419852E+00
   C  0.613924727E+01 -0.221045176E+00  0.159798294E+00
   H -0.341138668E+02 -0.539064941E+01 -0.321483425E+01
   H  0.328436595E+02  0.380761594E+01 -0.152369603E+01
     4
 # iter = 65500  time[fs]=65.50000
   C -0.717910040E+01  0.374914343E+00  0.215160918E+00
   C  0.621097366E+01 -0.224067605E+00  0.161733047E+00
   H -0.344820956E+02 -0.544908819E+01 -0.324923657E+01
   H  0.331974030E+02  0.384930756E+01 -0.153992472E+01
     4
 # iter = 66000  time[fs]=66.00000
   C -0.726155762E+01  0.379560843E+00  0.217902724E+00
   C  0.628275189E+01 -0.227092808E+00  0.163667967E+00
   H -0.348503945E+02 -0.550753965E+01 -0.328364617E+01
   H  0.335512207E+02  0.389100891E+01 -0.155615704E+01
     4
 # iter = 66500  time[fs]=66.50000
   C -0.734406583E+01  0.384210299E+00  0.220645257E+00
   C  0.635458079E+01 -0.230120728E+00  0.165603050E+00
   H -0.352187621E+02 -0.556600353E+01 -0.331806289E+01
   H  0.339051111E+02  0.393271981E+01 -0.157239289E+01
     4
 # iter = 67000  time[fs]=67.00000
   C -0.742662389E+01  0.388862650E+00  0.223388502E+00
   C  0.642645922E+01 -0.233151306E+00  0.167538292E+00
   H -0.355871969E+02 -0.562447958E+01 -0.335248660E+01
   H  0.342590726E+02  0.397444005E+01 -0.158863221E+01
     4
 # iter = 67500  time[fs]=67.50000
   C -0.750923070E+01  0.393517836E+00  0.226132444E+00
   C  0.649838607E+01 -0.236184490E+00  0.169473690E+00
   H -0.359556977E+02 -0.568296755E+01 -0.338691715E+01
   H  0.346131039E+02  0.401616945E+01 -0.160487494E+01
     4
 # iter = 68000  time[fs]=68.00000
   C -0.759188517E+01  0.398175797E+00  0.228877071E+00
   C  0.657036027E+01 -0.239220223E+00  0.171409240E+00
   H -0.363242629E+02 -0.574146721E+01 -0.342135440E+01
   H  0.349672034E+02  0.405790782E+01 -0.162112100E+01
     4
 # iter = 68500  time[fs]=68.50000
   C -0.767458628E+01  0.402836480E+00  0.231622369E+00
   C  0.664238080E+01 -0.242258456E+00  0.173344940E+00
   H -0.366928914E+02 -0.579997833E+01 -0.345579823E+01
   H  0.353213699E+02  0.409965500E+01 -0.163737032E+01
     4
 # iter = 69000  time[fs]=69.00000
   C -0.775733301E+01  0.407499827E+00  0.234368324E+00
   C  0.671444665E+01 -0.245299138E+00  0.175280785E+00
   H -0.370615819E+02 -0.585850067E+01 -0.349024850E+01
   H  0.356756020E+02  0.414141081E+01 -0.165362285E+01
     4
 # iter = 69500  time[fs]=69.50000
   C -0.784012438E+01  0.412165786E+00  0.237114925E+00
   C  0.678655685E+01 -0.248342219E+00  0.177216773E+00
   H -0.374303332E+02 -0.591703403E+01 -0.352470509E+01
   H  0.360298984E+02  0.418317509E+01 -0.166987852E+01
     4
 # iter = 70000  time[fs]=70.00000
   C -0.792295946E+01  0.416834307E+00  0.239862159E+00
   C  0.685871046E+01 -0.251387653E+00  0.179152900E+00
   H -0.377991441E+02 -0.597557818E+01 -0.355916787E+01
   H  0.363842579E+02  0.422494767E+01 -0.168613727E+01
     4
 # iter = 70500  time[fs]=70.50000
   C -0.800583732E+01  0.421505337E+00  0.242610015E+00
   C  0.693090658E+01 -0.254435394E+00  0.181089165E+00
   H -0.381680134E+02 -0.603413294E+01 -0.359363673E+01
   H  0.367386792E+02  0.426672839E+01 -0.170239904E+01
     4
 # iter = 71000  time[fs]=71.00000
   C -0.808875709E+01  0.426178830E+00  0.245358481E+00
   C  0.700314431E+01 -0.257485396E+00  0.183025563E+00
   H -0.385369401E+02 -0.609269808E+01 -0.362811155E+01
   H  0.370931612E+02  0.430851711E+01 -0.171866378E+01
     4
 # iter = 71500  time[fs]=71.50000
   C -0.817171789E+01  0.430854737E+00  0.248107545E+00
   C  0.707542281E+01 -0.260537617E+00  0.184962093E+00
   H -0.389059230E+02 -0.615127343E+01 -0.366259221E+01
   H  0.374477028E+02  0.435031367E+01 -0.173493143E+01
     4
 # iter = 72000  time[fs]=72.00000
   C -0.825471890E+01  0.435533012E+00  0.250857197E+00
   C  0.714774125E+01 -0.263592013E+00  0.186898751E+00
   H -0.392749610E+02 -0.620985879E+01 -0.369707863E+01
   H  0.378023027E+02  0.439211793E+01 -0.175120193E+01
     4
 # iter = 72500  time[fs]=72.50000
   C -0.833775930E+01  0.440213612E+00  0.253607427E+00
   C  0.722009882E+01 -0.266648545E+00  0.188835535E+00
   H -0.396440533E+02 -0.626845397E+01 -0.373157067E+01
   H  0.381569600E+02  0.443392976E+01 -0.176747523E+01
     4
 # iter = 73000  time[fs]=73.00000
   C -0.842083831E+01  0.444896492E+00  0.256358223E+00
   C  0.729249473E+01 -0.269707172E+00  0.190772443E+00
   H -0.400131986E+02 -0.632705881E+01 -0.376606825E+01
   H  0.385116736E+02  0.447574901E+01 -0.178375129E+01
     4
 # iter = 73500  time[fs]=73.50000
   C -0.850395516E+01  0.449581611E+00  0.259109576E+00
   C  0.736492823E+01 -0.272767855E+00  0.192709472E+00
   H -0.403823962E+02 -0.638567312E+01 -0.380057126E+01
   H  0.388664424E+02  0.451757555E+01 -0.180003005E+01
     4
 # iter = 74000  time[fs]=74.00000
   C -0.858710912E+01  0.454268926E+00  0.261861475E+00
   C  0.743739859E+01 -0.275830556E+00  0.194646620E+00
   H -0.407516451E+02 -0.644429673E+01 -0.383507961E+01
   H  0.392212655E+02  0.455940925E+01 -0.181631147E+01
     4
 # iter = 74500  time[fs]=74.50000
   C -0.867029946E+01  0.458958399E+00  0.264613913E+00
   C  0.750990508E+01 -0.278895240E+00  0.196583885E+00
   H -0.411209442E+02 -0.650292949E+01 -0.386959320E+01
   H  0.395761419E+02  0.460124999E+01 -0.183259549E+01
     4
 # iter = 75000  time[fs]=75.00000
   C -0.875352548E+01  0.463649990E+00  0.267366878E+00
   C  0.758244701E+01 -0.281961869E+00  0.198521264E+00
   H -0.414902928E+02 -0.656157123E+01 -0.390411194E+01
   H  0.399310706E+02  0.464309764E+01 -0.184888208E+01
     4
 # iter = 75500  time[fs]=75.50000
   C -0.883678651E+01  0.468343662E+00  0.270120363E+00
   C  0.765502371E+01 -0.285030410E+00  0.200458755E+00
   H -0.418596900E+02 -0.662022179E+01 -0.393863573E+01
   H  0.402860507E+02  0.468495209E+01 -0.186517118E+01
     4
 # iter = 76000  time[fs]=76.00000
   C -0.892008188E+01  0.473039377E+00  0.272874358E+00
   C  0.772763452E+01 -0.288100828E+00  0.202396357E+00
   H -0.422291349E+02 -0.667888103E+01 -0.397316450E+01
   H  0.406410814E+02  0.472681321E+01 -0.188146276E+01
     4
 # iter = 76500  time[fs]=76.50000
   C -0.900341094E+01  0.477737099E+00  0.275628854E+00
   C  0.780027880E+01 -0.291173090E+00  0.204334066E+00
   H -0.425986266E+02 -0.673754879E+01 -0.400769815E+01
   H  0.409961617E+02  0.476868090E+01 -0.189775677E+01
     4
 # iter = 77000  time[fs]=77.00000
   C -0.908677309E+01  0.482436794E+00  0.278383844E+00
   C  0.787295592E+01 -0.294247164E+00  0.206271882E+00
   H -0.429681645E+02 -0.679622493E+01 -0.404223661E+01
   H  0.413512908E+02  0.481055505E+01 -0.191405317E+01
     4
 # iter = 77500  time[fs]=77.50000
   C -0.917016769E+01  0.487138428E+00  0.281139319E+00
   C  0.794566529E+01 -0.297323019E+00  0.208209802E+00
   H -0.433377477E+02 -0.685490931E+01 -0.407677979E+01
   H  0.417064679E+02  0.485243554E+01 -0.193035192E+01
     4
 # iter = 78000  time[fs]=78.00000
   C -0.925359417E+01  0.491841966E+00  0.283895270E+00
   C  0.801840631E+01 -0.300400624E+00  0.210147825E+00
   H -0.437073754E+02 -0.691360179E+01 -0.411132761E+01
   H  0.420616921E+02  0.489432227E+01 -0.194665298E+01
     4
 # iter = 78500  time[fs]=78.50000
   C -0.933705195E+01  0.496547378E+00  0.286651691E+00
   C  0.809117842E+01 -0.303479949E+00  0.212085948E+00
   H -0.440770468E+02 -0.697230224E+01 -0.414587999E+01
   H  0.424169627E+02  0.493621514E+01 -0.196295631E+01
     4
 # iter = 79000  time[fs]=79.00000
   C -0.942054047E+01  0.501254631E+00  0.289408574E+00
   C  0.816398105E+01 -0.306560966E+00  0.214024170E+00
   H -0.444467614E+02 -0.703101053E+01 -0.418043687E+01
   H  0.427722789E+02  0.497811405E+01 -0.197926188E+01
     4
 # iter = 79500  time[fs]=79.50000
   C -0.950405918E+01  0.505963694E+00  0.292165911E+00
   C  0.823681367E+01 -0.309643646E+00  0.215962489E+00
   H -0.448165183E+02 -0.708972652E+01 -0.421499817E+01
   H  0.431276400E+02  0.502001890E+01 -0.199556965E+01
     4
 # iter = 80000  time[fs]=80.00000
   C -0.958760754E+01  0.510674537E+00  0.294923695E+00
   C  0.830967573E+01 -0.312727961E+00  0.217900904E+00
   H -0.451863169E+02 -0.714845010E+01 -0.424956381E+01
   H  0.434830452E+02  0.506192960E+01 -0.201187958E+01
