     4
 # iter = 25000  time[fs]=25.00000
   C -0.971923405E+00 -0.249176580E-01  0.588826273E-02
   C  0.987516162E+00  0.765283188E-01  0.334536936E-01
   H -0.524497225E+01 -0.262100034E+00 -0.365472632E+00
   H  0.533515112E+01  0.278021202E+00 -0.222098335E+00
     4
 # iter = 25500  time[fs]=25.50000
   C -0.101742065E+01 -0.265787521E-01  0.624476414E-02
   C  0.102807871E+01  0.776092854E-01  0.339592003E-01
   H -0.558744663E+01 -0.287271605E+00 -0.396316270E+00
   H  0.564598668E+01  0.285024087E+00 -0.245051569E+00
     4
 # iter = 26000  time[fs]=26.00000
   C -0.106698236E+01 -0.293892755E-01  0.559398867E-02
   C  0.107076661E+01  0.778948304E-01  0.335800805E-01
   H -0.594087891E+01 -0.318156345E+00 -0.432991608E+00
   H  0.595684010E+01  0.286869013E+00 -0.273679602E+00
     4
 # iter = 26500  time[fs]=26.50000
   C -0.111739445E+01 -0.303693381E-01  0.690240662E-02
   C  0.111816649E+01  0.802130050E-01  0.351521254E-01
   H -0.628853371E+01 -0.338642083E+00 -0.459371462E+00
   H  0.628324023E+01  0.299621142E+00 -0.291864128E+00
     4
 # iter = 27000  time[fs]=27.00000
   C -0.116827476E+01 -0.293586994E-01  0.103181520E-01
   C  0.117018054E+01  0.846903389E-01  0.388090366E-01
   H -0.662907950E+01 -0.347903555E+00 -0.474618695E+00
   H  0.662548237E+01  0.324053144E+00 -0.298785131E+00
     4
 # iter = 27500  time[fs]=27.50000
   C -0.122160956E+01 -0.285509862E-01  0.136367213E-01
   C  0.122447409E+01  0.891985088E-01  0.424290505E-01
   H -0.697403866E+01 -0.357877270E+00 -0.490660347E+00
   H  0.697114650E+01  0.348171229E+00 -0.306394070E+00
     4
 # iter = 28000  time[fs]=28.00000
   C -0.127875794E+01 -0.294959867E-01  0.152985704E-01
   C  0.127934897E+01  0.922292137E-01  0.445099129E-01
   H -0.733149547E+01 -0.377004841E+00 -0.515929959E+00
   H  0.731137640E+01  0.363486301E+00 -0.323143600E+00
     4
 # iter = 28500  time[fs]=28.50000
   C -0.133890592E+01 -0.315533035E-01  0.159353578E-01
   C  0.133522532E+01  0.943770254E-01  0.456517791E-01
   H -0.769769027E+01 -0.401846187E+00 -0.546980271E+00
   H  0.764927196E+01  0.373407891E+00 -0.345593510E+00
     4
 # iter = 29000  time[fs]=29.00000
   C -0.140034006E+01 -0.331671190E-01  0.170950879E-01
   C  0.139341875E+01  0.971166061E-01  0.473344047E-01
   H -0.806393191E+01 -0.423993241E+00 -0.575396883E+00
   H  0.799295414E+01  0.386322779E+00 -0.365330707E+00
     4
 # iter = 29500  time[fs]=29.50000
   C -0.146237516E+01 -0.337953709E-01  0.193128462E-01
   C  0.145428976E+01  0.100952316E+00  0.500667271E-01
   H -0.842706353E+01 -0.440533668E+00 -0.598262042E+00
   H  0.834507639E+01  0.405120274E+00 -0.379442511E+00
     4
 # iter = 30000  time[fs]=30.00000
   C -0.152562356E+01 -0.341802862E-01  0.218401772E-01
   C  0.151698301E+01  0.105158548E+00  0.531272291E-01
   H -0.879092583E+01 -0.455518444E+00 -0.619622113E+00
   H  0.870134894E+01  0.425722653E+00 -0.391985598E+00
     4
 # iter = 30500  time[fs]=30.50000
   C -0.159079732E+01 -0.351513541E-01  0.238420245E-01
   C  0.158057365E+01  0.108927525E+00  0.557118035E-01
   H -0.915985584E+01 -0.473469079E+00 -0.643994581E+00
   H  0.905703695E+01  0.443583869E+00 -0.407487258E+00
     4
 # iter = 31000  time[fs]=31.00000
   C -0.165779660E+01 -0.367147351E-01  0.253072452E-01
   C  0.164493894E+01  0.112242418E+00  0.578069257E-01
   H -0.953374131E+01 -0.494438514E+00 -0.671428788E+00
   H  0.941190331E+01  0.458633130E+00 -0.426001754E+00
     4
 # iter = 31500  time[fs]=31.50000
   C -0.172597575E+01 -0.383204443E-01  0.267813579E-01
   C  0.171050082E+01  0.115620947E+00  0.599332938E-01
   H -0.990946781E+01 -0.515460802E+00 -0.698955551E+00
   H  0.976875390E+01  0.473823465E+00 -0.444561434E+00
     4
 # iter = 32000  time[fs]=32.00000
   C -0.179490599E+01 -0.396261684E-01  0.286026688E-01
   C  0.177749238E+01  0.119382720E+00  0.624131885E-01
   H -0.102850615E+02 -0.534694756E+00 -0.724730798E+00
   H  0.101292857E+02  0.490983693E+00 -0.461324358E+00
     4
 # iter = 32500  time[fs]=32.50000
   C -0.186464829E+01 -0.407711544E-01  0.306283284E-01
   C  0.184569415E+01  0.123386433E+00  0.651077061E-01
   H -0.106611740E+02 -0.552909889E+00 -0.749521480E+00
   H  0.104925963E+02  0.509330812E+00 -0.477061645E+00
     4
 # iter = 33000  time[fs]=33.00000
   C -0.193542347E+01 -0.420471440E-01  0.325633516E-01
   C  0.191474864E+01  0.127345348E+00  0.677322613E-01
   H -0.110392945E+02 -0.571701429E+00 -0.774920535E+00
   H  0.108569694E+02  0.527256552E+00 -0.493370791E+00
     4
 # iter = 33500  time[fs]=33.50000
   C -0.200725053E+01 -0.435373999E-01  0.343215481E-01
   C  0.198450564E+01  0.131173369E+00  0.702027035E-01
   H -0.114197904E+02 -0.591532284E+00 -0.801388794E+00
   H  0.112218339E+02  0.544287208E+00 -0.510715766E+00
     4
 # iter = 34000  time[fs]=34.00000
   C -0.207994224E+01 -0.451130659E-01  0.360291269E-01
   C  0.205502488E+01  0.134988458E+00  0.726387480E-01
   H -0.118018858E+02 -0.611713471E+00 -0.828235393E+00
   H  0.115877817E+02  0.561103074E+00 -0.528407456E+00
     4
 # iter = 34500  time[fs]=34.50000
   C -0.215331978E+01 -0.466483709E-01  0.378094611E-01
   C  0.212636897E+01  0.138906170E+00  0.751575377E-01
   H -0.121848284E+02 -0.631571743E+00 -0.854785369E+00
   H  0.119553980E+02  0.578369551E+00 -0.545772437E+00
     4
 # iter = 35000  time[fs]=35.00000
   C -0.222733451E+01 -0.481429863E-01  0.396607018E-01
   C  0.219848545E+01  0.142922249E+00  0.777562527E-01
   H -0.125685529E+02 -0.651113489E+00 -0.881043550E+00
   H  0.123245953E+02  0.596072486E+00 -0.562817527E+00
     4
 # iter = 35500  time[fs]=35.50000
   C -0.230201064E+01 -0.496652168E-01  0.415125640E-01
   C  0.227126073E+01  0.146967053E+00  0.803665513E-01
   H -0.129533718E+02 -0.670716624E+00 -0.907386430E+00
   H  0.126949211E+02  0.613826501E+00 -0.579921376E+00
     4
 # iter = 36000  time[fs]=36.00000
   C -0.237734428E+01 -0.512514625E-01  0.433268421E-01
   C  0.234461599E+01  0.151001919E+00  0.829509536E-01
   H -0.133394291E+02 -0.690585258E+00 -0.934016815E+00
   H  0.130661032E+02  0.631420798E+00 -0.597288614E+00
     4
 # iter = 36500  time[fs]=36.50000
   C -0.245328006E+01 -0.528832148E-01  0.451203960E-01
   C  0.241852884E+01  0.155041183E+00  0.855248732E-01
   H -0.137265756E+02 -0.710624978E+00 -0.960839095E+00
   H  0.134381735E+02  0.648943928E+00 -0.614825016E+00
     4
 # iter = 37000  time[fs]=37.00000
   C -0.252975316E+01 -0.545294494E-01  0.469227414E-01
   C  0.249299224E+01  0.159111492E+00  0.881159357E-01
   H -0.141145978E+02 -0.730672916E+00 -0.987689297E+00
   H  0.138112376E+02  0.666553449E+00 -0.632367802E+00
     4
 # iter = 37500  time[fs]=37.50000
   C -0.260672382E+01 -0.561814556E-01  0.487412057E-01
   C  0.256798078E+01  0.163218360E+00  0.907305536E-01
   H -0.145034069E+02 -0.750686760E+00 -0.101452409E+01
   H  0.141852848E+02  0.684286665E+00 -0.649874837E+00
     4
 # iter = 38000  time[fs]=38.00000
   C -0.268417326E+01 -0.578489835E-01  0.505647684E-01
   C  0.264345409E+01  0.167349843E+00  0.933576016E-01
   H -0.148930171E+02 -0.770723904E+00 -0.104139993E+01
   H  0.145602087E+02  0.702081464E+00 -0.667403772E+00
     4
 # iter = 38500  time[fs]=38.50000
   C -0.276208347E+01 -0.595403464E-01  0.523839472E-01
   C  0.271937563E+01  0.171495590E+00  0.959874808E-01
   H -0.152834381E+02 -0.790833550E+00 -0.106836515E+01
   H  0.149359145E+02  0.719884281E+00 -0.685004026E+00
     4
 # iter = 39000  time[fs]=39.00000
   C -0.284042873E+01 -0.612540626E-01  0.541991463E-01
   C  0.279572048E+01  0.175654840E+00  0.986201194E-01
   H -0.156746285E+02 -0.811011399E+00 -0.109541463E+01
   H  0.153123646E+02  0.737695421E+00 -0.702671452E+00
     4
 # iter = 39500  time[fs]=39.50000
   C -0.291918083E+01 -0.629843768E-01  0.560151262E-01
   C  0.287246982E+01  0.179831106E+00  0.101259663E+00
   H -0.160665265E+02 -0.831229650E+00 -0.112251983E+01
   H  0.156895475E+02  0.755538998E+00 -0.720378359E+00
     4
 # iter = 40000  time[fs]=40.00000
   C -0.299831583E+01 -0.647280903E-01  0.578341654E-01
   C  0.294960421E+01  0.184025605E+00  0.103907915E+00
   H -0.164590860E+02 -0.851474084E+00 -0.114966582E+01
   H  0.160674411E+02  0.773425791E+00 -0.738110636E+00
     4
 # iter = 40500  time[fs]=40.50000
   C -0.307781465E+01 -0.664853652E-01  0.596552493E-01
   C  0.302710265E+01  0.188236475E+00  0.106563552E+00
   H -0.168522811E+02 -0.871748460E+00 -0.117685571E+01
   H  0.164460076E+02  0.791348819E+00 -0.755872153E+00
     4
 # iter = 41000  time[fs]=41.00000
   C -0.315766018E+01 -0.682569467E-01  0.614768422E-01
   C  0.310494508E+01  0.192461425E+00  0.109224779E+00
   H -0.172460909E+02 -0.892059462E+00 -0.120409558E+01
   H  0.168252086E+02  0.809298387E+00 -0.773669701E+00
     4
 # iter = 41500  time[fs]=41.50000
   C -0.323783539E+01 -0.700424216E-01  0.632986223E-01
   C  0.318311390E+01  0.196699390E+00  0.111890993E+00
   H -0.176404897E+02 -0.912407286E+00 -0.123138504E+01
   H  0.172050143E+02  0.827271492E+00 -0.791503562E+00
     4
 # iter = 42000  time[fs]=42.00000
   C -0.331832366E+01 -0.718406047E-01  0.651210911E-01
   C  0.326159354E+01  0.200950152E+00  0.114562402E+00
   H -0.180354493E+02 -0.932787746E+00 -0.125871937E+01
   H  0.175854011E+02  0.845269699E+00 -0.809369625E+00
     4
 # iter = 42500  time[fs]=42.50000
   C -0.339910955E+01 -0.736504806E-01  0.669446268E-01
   C  0.334036938E+01  0.205213428E+00  0.117239118E+00
   H -0.184309435E+02 -0.953197405E+00 -0.128609464E+01
   H  0.179663464E+02  0.863293984E+00 -0.827264521E+00
     4
 # iter = 43000  time[fs]=43.00000
   C -0.348017906E+01 -0.754714851E-01  0.687691992E-01
   C  0.341942743E+01  0.209488588E+00  0.119920880E+00
   H -0.188269501E+02 -0.973635118E+00 -0.131350922E+01
   H  0.183478269E+02  0.881343183E+00 -0.845187166E+00
     4
 # iter = 43500  time[fs]=43.50000
   C -0.356151925E+01 -0.773032384E-01  0.705946325E-01
   C  0.349875446E+01  0.213774907E+00  0.122607307E+00
   H -0.192234487E+02 -0.994100602E+00 -0.134096239E+01
   H  0.187298200E+02  0.899415412E+00 -0.863137333E+00
     4
 # iter = 44000  time[fs]=44.00000
   C -0.364311792E+01 -0.791453008E-01  0.724208466E-01
   C  0.357833820E+01  0.218071791E+00  0.125298121E+00
   H -0.196204199E+02 -0.101459311E+01 -0.136845299E+01
   H  0.191123047E+02  0.917509368E+00 -0.881114332E+00
     4
 # iter = 44500  time[fs]=44.50000
   C -0.372496356E+01 -0.809971639E-01  0.742478631E-01
   C  0.365816725E+01  0.222378779E+00  0.127993160E+00
   H -0.200178448E+02 -0.103511143E+01 -0.139597939E+01
   H  0.194952619E+02  0.935624361E+00 -0.899116978E+00
     4
 # iter = 45000  time[fs]=45.00000
   C -0.380704534E+01 -0.828583405E-01  0.760757125E-01
   C  0.373823090E+01  0.226695450E+00  0.130692280E+00
   H -0.204157055E+02 -0.105565432E+01 -0.142354000E+01
   H  0.198786737E+02  0.953759800E+00 -0.917144090E+00
     4
 # iter = 45500  time[fs]=45.50000
   C -0.388935316E+01 -0.847284063E-01  0.779043905E-01
   C  0.381851912E+01  0.231021380E+00  0.133395319E+00
   H -0.208139854E+02 -0.107622081E+01 -0.145113348E+01
   H  0.202625228E+02  0.971914954E+00 -0.935194725E+00
     4
 # iter = 46000  time[fs]=46.00000
   C -0.397187751E+01 -0.866069826E-01  0.797338727E-01
   C  0.389902242E+01  0.235356155E+00  0.136102103E+00
   H -0.212126689E+02 -0.109681008E+01 -0.147875868E+01
   H  0.206467931E+02  0.990089030E+00 -0.953268094E+00
     4
 # iter = 46500  time[fs]=46.50000
   C -0.405460946E+01 -0.884937108E-01  0.815641384E-01
   C  0.397973191E+01  0.239699387E+00  0.138812475E+00
   H -0.216117410E+02 -0.111742133E+01 -0.150641450E+01
   H  0.210314689E+02  0.100828129E+01 -0.971363432E+00
     4
 # iter = 47000  time[fs]=47.00000
   C -0.413754060E+01 -0.903882457E-01  0.833951755E-01
   C  0.406063919E+01  0.244050720E+00  0.141526292E+00
   H -0.220111878E+02 -0.113805377E+01 -0.153409982E+01
   H  0.214165359E+02  0.102649109E+01 -0.989479969E+00
     4
 # iter = 47500  time[fs]=47.50000
   C -0.422066297E+01 -0.922902604E-01  0.852269739E-01
   C  0.414173638E+01  0.248409823E+00  0.144243423E+00
   H -0.224109958E+02 -0.115870662E+01 -0.156181361E+01
   H  0.218019802E+02  0.104471783E+01 -0.100761696E+01
     4
 # iter = 48000  time[fs]=48.00000
   C -0.430396909E+01 -0.941994488E-01  0.870595219E-01
   C  0.422301602E+01  0.252776381E+00  0.146963743E+00
   H -0.228111526E+02 -0.117937917E+01 -0.158955486E+01
   H  0.221877886E+02  0.106296092E+01 -0.102577371E+01
     4
 # iter = 48500  time[fs]=48.50000
   C -0.438745188E+01 -0.961155238E-01  0.888928057E-01
   C  0.430447107E+01  0.257150096E+00  0.149687133E+00
   H -0.232116459E+02 -0.120007075E+01 -0.161732265E+01
   H  0.225739489E+02  0.108121981E+01 -0.104394956E+01
     4
 # iter = 49000  time[fs]=49.00000
   C -0.447110465E+01 -0.980382150E-01  0.907268116E-01
   C  0.438609487E+01  0.261530688E+00  0.152413477E+00
   H -0.236124646E+02 -0.122078071E+01 -0.164511610E+01
   H  0.229604491E+02  0.109949395E+01 -0.106214388E+01
     4
 # iter = 49500  time[fs]=49.50000
   C -0.455492107E+01 -0.999672663E-01  0.925615266E-01
   C  0.446788114E+01  0.265917890E+00  0.155142670E+00
   H -0.240135977E+02 -0.124150844E+01 -0.167293437E+01
   H  0.233472781E+02  0.111778285E+01 -0.108035610E+01
     4
 # iter = 50000  time[fs]=50.00000
   C -0.463889514E+01 -0.101902436E+00  0.943969379E-01
   C  0.454982390E+01  0.270311454E+00  0.157874610E+00
   H -0.244150349E+02 -0.126225337E+01 -0.170077663E+01
   H  0.237344251E+02  0.113608603E+01 -0.109858563E+01
     4
 # iter = 50500  time[fs]=50.50000
   C -0.472302118E+01 -0.103843494E+00  0.962330326E-01
   C  0.463191751E+01  0.274711141E+00  0.160609202E+00
   H -0.248167665E+02 -0.128301493E+01 -0.172864215E+01
   H  0.241218799E+02  0.115440303E+01 -0.111683193E+01
     4
 # iter = 51000  time[fs]=51.00000
   C -0.480729380E+01 -0.105790225E+00  0.980697982E-01
   C  0.471415660E+01  0.279116727E+00  0.163346354E+00
   H -0.252187830E+02 -0.130379260E+01 -0.175653017E+01
   H  0.245096328E+02  0.117273341E+01 -0.113509449E+01
     4
 # iter = 51500  time[fs]=51.50000
   C -0.489170788E+01 -0.107742422E+00  0.999072221E-01
   C  0.479653608E+01  0.283528000E+00  0.166085979E+00
   H -0.256210756E+02 -0.132458588E+01 -0.178444001E+01
   H  0.248976746E+02  0.119107677E+01 -0.115337282E+01
     4
 # iter = 52000  time[fs]=52.00000
   C -0.497625855E+01 -0.109699891E+00  0.101745292E+00
   C  0.487905111E+01  0.287944758E+00  0.168827996E+00
   H -0.260236358E+02 -0.134539428E+01 -0.181237101E+01
   H  0.252859964E+02  0.120943269E+01 -0.117166644E+01
     4
 # iter = 52500  time[fs]=52.50000
   C -0.506094120E+01 -0.111662448E+00  0.103583995E+00
   C  0.496169710E+01  0.292366809E+00  0.171572326E+00
   H -0.264264553E+02 -0.136621736E+01 -0.184032252E+01
   H  0.256745898E+02  0.122780081E+01 -0.118997491E+01
     4
 # iter = 53000  time[fs]=53.00000
   C -0.514575140E+01 -0.113629915E+00  0.105423321E+00
   C  0.504446968E+01  0.296793971E+00  0.174318894E+00
   H -0.268295266E+02 -0.138705466E+01 -0.186829394E+01
   H  0.260634466E+02  0.124618075E+01 -0.120829779E+01
     4
 # iter = 53500  time[fs]=53.50000
   C -0.523068498E+01 -0.115602127E+00  0.107263256E+00
   C  0.512736467E+01  0.301226072E+00  0.177067630E+00
   H -0.272328420E+02 -0.140790577E+01 -0.189628470E+01
   H  0.264525592E+02  0.126457218E+01 -0.122663467E+01
     4
 # iter = 54000  time[fs]=54.00000
   C -0.531573794E+01 -0.117578924E+00  0.109103791E+00
   C  0.521037810E+01  0.305662946E+00  0.179818466E+00
   H -0.276363946E+02 -0.142877029E+01 -0.192429422E+01
   H  0.268419201E+02  0.128297477E+01 -0.124498515E+01
     4
 # iter = 54500  time[fs]=54.50000
   C -0.540090647E+01 -0.119560155E+00  0.110944912E+00
   C  0.529350619E+01  0.310104436E+00  0.182571336E+00
   H -0.280401776E+02 -0.144964783E+01 -0.195232200E+01
   H  0.272315223E+02  0.130138818E+01 -0.126334886E+01
     4
 # iter = 55000  time[fs]=55.00000
   C -0.548618693E+01 -0.121545676E+00  0.112786610E+00
   C  0.537674532E+01  0.314550393E+00  0.185326180E+00
   H -0.284441843E+02 -0.147053804E+01 -0.198036750E+01
   H  0.276213590E+02  0.131981213E+01 -0.128172543E+01
     4
 # iter = 55500  time[fs]=55.50000
   C -0.557157585E+01 -0.123535349E+00  0.114628873E+00
   C  0.546009205E+01  0.319000675E+00  0.188082938E+00
   H -0.288484086E+02 -0.149144055E+01 -0.200843025E+01
   H  0.280114237E+02  0.133824631E+01 -0.130011451E+01
     4
 # iter = 56000  time[fs]=56.00000
   C -0.565706992E+01 -0.125529042E+00  0.116471691E+00
   C  0.554354308E+01  0.323455145E+00  0.190841554E+00
   H -0.292528445E+02 -0.151235502E+01 -0.203650977E+01
   H  0.284017100E+02  0.135669045E+01 -0.131851577E+01
     4
 # iter = 56500  time[fs]=56.50000
   C -0.574266596E+01 -0.127526632E+00  0.118315053E+00
   C  0.562709525E+01  0.327913674E+00  0.193601974E+00
   H -0.296574862E+02 -0.153328113E+01 -0.206460562E+01
   H  0.287922121E+02  0.137514427E+01 -0.133692889E+01
     4
 # iter = 57000  time[fs]=57.00000
   C -0.582836094E+01 -0.129527998E+00  0.120158949E+00
   C  0.571074556E+01  0.332376138E+00  0.196364147E+00
   H -0.300623282E+02 -0.155421858E+01 -0.209271736E+01
   H  0.291829242E+02  0.139360753E+01 -0.135535355E+01
     4
 # iter = 57500  time[fs]=57.50000
   C -0.591415196E+01 -0.131533026E+00  0.122003370E+00
   C  0.579449113E+01  0.336842417E+00  0.199128022E+00
   H -0.304673652E+02 -0.157516706E+01 -0.212084457E+01
   H  0.295738407E+02  0.141207997E+01 -0.137378947E+01
     4
 # iter = 58000  time[fs]=58.00000
   C -0.600003623E+01 -0.133541606E+00  0.123848305E+00
   C  0.587832917E+01  0.341312399E+00  0.201893552E+00
   H -0.308725921E+02 -0.159612628E+01 -0.214898686E+01
   H  0.299649563E+02  0.143056135E+01 -0.139223634E+01
     4
 # iter = 58500  time[fs]=58.50000
   C -0.608601110E+01 -0.135553634E+00  0.125693745E+00
   C  0.596225706E+01  0.345785974E+00  0.204660693E+00
   H -0.312780040E+02 -0.161709596E+01 -0.217714384E+01
   H  0.303562660E+02  0.144905145E+01 -0.141069391E+01
     4
 # iter = 59000  time[fs]=59.00000
   C -0.617207399E+01 -0.137569009E+00  0.127539681E+00
   C  0.604627225E+01  0.350263040E+00  0.207429399E+00
   H -0.316835961E+02 -0.163807585E+01 -0.220531514E+01
   H  0.307477647E+02  0.146755003E+01 -0.142916189E+01
     4
 # iter = 59500  time[fs]=59.50000
   C -0.625822247E+01 -0.139587635E+00  0.129386103E+00
   C  0.613037230E+01  0.354743495E+00  0.210199630E+00
   H -0.320893641E+02 -0.165906567E+01 -0.223350040E+01
   H  0.311394477E+02  0.148605690E+01 -0.144764005E+01
     4
 # iter = 60000  time[fs]=60.00000
   C -0.634445418E+01 -0.141609421E+00  0.131233004E+00
   C  0.621455488E+01  0.359227244E+00  0.212971344E+00
   H -0.324953033E+02 -0.168006520E+01 -0.226169929E+01
   H  0.315313105E+02  0.150457184E+01 -0.146612812E+01
     4
 # iter = 60500  time[fs]=60.50000
   C -0.643076686E+01 -0.143634278E+00  0.133080373E+00
   C  0.629881775E+01  0.363714197E+00  0.215744504E+00
   H -0.329014098E+02 -0.170107418E+01 -0.228991146E+01
   H  0.319233487E+02  0.152309466E+01 -0.148462587E+01
     4
 # iter = 61000  time[fs]=61.00000
   C -0.651715834E+01 -0.145662121E+00  0.134928203E+00
   C  0.638315875E+01  0.368204264E+00  0.218519072E+00
   H -0.333076793E+02 -0.172209239E+01 -0.231813660E+01
   H  0.323155580E+02  0.154162516E+01 -0.150313308E+01
     4
 # iter = 61500  time[fs]=61.50000
   C -0.660362653E+01 -0.147692868E+00  0.136776485E+00
   C  0.646757580E+01  0.372697361E+00  0.221295012E+00
   H -0.337141080E+02 -0.174311961E+01 -0.234637441E+01
   H  0.327079344E+02  0.156016317E+01 -0.152164952E+01
     4
 # iter = 62000  time[fs]=62.00000
   C -0.669016942E+01 -0.149726443E+00  0.138625212E+00
   C  0.655206692E+01  0.377193407E+00  0.224072290E+00
   H -0.341206921E+02 -0.176415563E+01 -0.237462458E+01
   H  0.331004738E+02  0.157870851E+01 -0.154017498E+01
     4
 # iter = 62500  time[fs]=62.50000
   C -0.677678509E+01 -0.151762768E+00  0.140474375E+00
   C  0.663663018E+01  0.381692323E+00  0.226850872E+00
   H -0.345274280E+02 -0.178520023E+01 -0.240288683E+01
   H  0.334931725E+02  0.159726100E+01 -0.155870925E+01
     4
 # iter = 63000  time[fs]=63.00000
   C -0.686347167E+01 -0.153801772E+00  0.142323966E+00
   C  0.672126375E+01  0.386194036E+00  0.229630727E+00
   H -0.349343121E+02 -0.180625323E+01 -0.243116088E+01
   H  0.338860269E+02  0.161582048E+01 -0.157725213E+01
     4
 # iter = 63500  time[fs]=63.50000
   C -0.695022738E+01 -0.155843386E+00  0.144173979E+00
   C  0.680596583E+01  0.390698472E+00  0.232411823E+00
   H -0.353413410E+02 -0.182731442E+01 -0.245944647E+01
   H  0.342790332E+02  0.163438679E+01 -0.159580343E+01
     4
 # iter = 64000  time[fs]=64.00000
   C -0.703705049E+01 -0.157887543E+00  0.146024406E+00
   C  0.689073473E+01  0.395205562E+00  0.235194131E+00
   H -0.357485115E+02 -0.184838362E+01 -0.248774333E+01
   H  0.346721882E+02  0.165295977E+01 -0.161436297E+01
     4
 # iter = 64500  time[fs]=64.50000
   C -0.712393933E+01 -0.159934178E+00  0.147875239E+00
   C  0.697556880E+01  0.399715238E+00  0.237977623E+00
   H -0.361558204E+02 -0.186946066E+01 -0.251605121E+01
   H  0.350654885E+02  0.167153929E+01 -0.163293055E+01
     4
 # iter = 65000  time[fs]=65.00000
   C -0.721089231E+01 -0.161983228E+00  0.149726472E+00
   C  0.706046643E+01  0.404227438E+00  0.240762270E+00
   H -0.365632646E+02 -0.189054535E+01 -0.254436988E+01
   H  0.354589308E+02  0.169012518E+01 -0.165150602E+01
     4
 # iter = 65500  time[fs]=65.50000
   C -0.729790788E+01 -0.164034635E+00  0.151578097E+00
   C  0.714542610E+01  0.408742097E+00  0.243548046E+00
   H -0.369708411E+02 -0.191163754E+01 -0.257269909E+01
   H  0.358525121E+02  0.170871732E+01 -0.167008920E+01
     4
 # iter = 66000  time[fs]=66.00000
   C -0.738498454E+01 -0.166088341E+00  0.153430108E+00
   C  0.723044632E+01  0.413259157E+00  0.246334924E+00
   H -0.373785470E+02 -0.193273706E+01 -0.260103863E+01
   H  0.362462294E+02  0.172731557E+01 -0.168867992E+01
     4
 # iter = 66500  time[fs]=66.50000
   C -0.747212086E+01 -0.168144289E+00  0.155282499E+00
   C  0.731552567E+01  0.417778559E+00  0.249122881E+00
   H -0.377863797E+02 -0.195384374E+01 -0.262938827E+01
   H  0.366400797E+02  0.174591980E+01 -0.170727803E+01
     4
 # iter = 67000  time[fs]=67.00000
   C -0.755931545E+01 -0.170202427E+00  0.157135263E+00
   C  0.740066276E+01  0.422300248E+00  0.251911891E+00
   H -0.381943363E+02 -0.197495745E+01 -0.265774780E+01
   H  0.370340602E+02  0.176452987E+01 -0.172588337E+01
     4
 # iter = 67500  time[fs]=67.50000
   C -0.764656695E+01 -0.172262702E+00  0.158988394E+00
   C  0.748585627E+01  0.426824169E+00  0.254701933E+00
   H -0.386024143E+02 -0.199607803E+01 -0.268611702E+01
   H  0.374281683E+02  0.178314568E+01 -0.174449580E+01
     4
 # iter = 68000  time[fs]=68.00000
   C -0.773387408E+01 -0.174325065E+00  0.160841886E+00
   C  0.757110489E+01  0.431350271E+00  0.257492982E+00
   H -0.390106111E+02 -0.201720534E+01 -0.271449572E+01
   H  0.378224011E+02  0.180176709E+01 -0.176311516E+01
     4
 # iter = 68500  time[fs]=68.50000
   C -0.782123557E+01 -0.176389466E+00  0.162695733E+00
   C  0.765640739E+01  0.435878504E+00  0.260285017E+00
   H -0.394189243E+02 -0.203833924E+01 -0.274288370E+01
   H  0.382167563E+02  0.182039400E+01 -0.178174133E+01
     4
 # iter = 69000  time[fs]=69.00000
   C -0.790865022E+01 -0.178455860E+00  0.164549928E+00
   C  0.774176256E+01  0.440408818E+00  0.263078017E+00
   H -0.398273516E+02 -0.205947960E+01 -0.277128080E+01
   H  0.386112312E+02  0.183902630E+01 -0.180037417E+01
     4
 # iter = 69500  time[fs]=69.50000
   C -0.799611684E+01 -0.180524200E+00  0.166404467E+00
   C  0.782716924E+01  0.444941167E+00  0.265871962E+00
   H -0.402358905E+02 -0.208062628E+01 -0.279968681E+01
   H  0.390058236E+02  0.185766386E+01 -0.181901353E+01
     4
 # iter = 70000  time[fs]=70.00000
   C -0.808363430E+01 -0.182594444E+00  0.168259343E+00
   C  0.791262629E+01  0.449475505E+00  0.268666831E+00
   H -0.406445389E+02 -0.210177917E+01 -0.282810157E+01
   H  0.394005309E+02  0.187630660E+01 -0.183765930E+01
     4
 # iter = 70500  time[fs]=70.50000
   C -0.817120150E+01 -0.184666550E+00  0.170114552E+00
   C  0.799813262E+01  0.454011789E+00  0.271462606E+00
   H -0.410532947E+02 -0.212293813E+01 -0.285652490E+01
   H  0.397953510E+02  0.189495440E+01 -0.185631136E+01
     4
 # iter = 71000  time[fs]=71.00000
   C -0.825881737E+01 -0.186740475E+00  0.171970088E+00
   C  0.808368718E+01  0.458549975E+00  0.274259268E+00
   H -0.414621556E+02 -0.214410305E+01 -0.288495664E+01
   H  0.401902817E+02  0.191360717E+01 -0.187496957E+01
     4
 # iter = 71500  time[fs]=71.50000
   C -0.834648088E+01 -0.188816182E+00  0.173825945E+00
   C  0.816928894E+01  0.463090023E+00  0.277056799E+00
   H -0.418711196E+02 -0.216527381E+01 -0.291339662E+01
   H  0.405853207E+02  0.193226481E+01 -0.189363382E+01
     4
 # iter = 72000  time[fs]=72.00000
   C -0.843419102E+01 -0.190893630E+00  0.175682120E+00
   C  0.825493691E+01  0.467631893E+00  0.279855181E+00
   H -0.422801849E+02 -0.218645030E+01 -0.294184468E+01
   H  0.409804661E+02  0.195092723E+01 -0.191230401E+01
     4
 # iter = 72500  time[fs]=72.50000
   C -0.852194684E+01 -0.192972784E+00  0.177538605E+00
   C  0.834063012E+01  0.472175546E+00  0.282654397E+00
   H -0.426893493E+02 -0.220763241E+01 -0.297030068E+01
   H  0.413757158E+02  0.196959434E+01 -0.193098001E+01
     4
 # iter = 73000  time[fs]=73.00000
   C -0.860974738E+01 -0.195053607E+00  0.179395398E+00
   C  0.842636764E+01  0.476720944E+00  0.285454431E+00
   H -0.430986111E+02 -0.222882003E+01 -0.299876447E+01
   H  0.417710678E+02  0.198826604E+01 -0.194966172E+01
     4
 # iter = 73500  time[fs]=73.50000
   C -0.869759173E+01 -0.197136065E+00  0.181252493E+00
   C  0.851214857E+01  0.481268052E+00  0.288255267E+00
   H -0.435079685E+02 -0.225001307E+01 -0.302723590E+01
   H  0.421665203E+02  0.200694226E+01 -0.196834903E+01
     4
 # iter = 74000  time[fs]=74.00000
   C -0.878547901E+01 -0.199220123E+00  0.183109885E+00
   C  0.859797203E+01  0.485816833E+00  0.291056889E+00
   H -0.439174196E+02 -0.227121142E+01 -0.305571483E+01
   H  0.425620712E+02  0.202562291E+01 -0.198704185E+01
     4
 # iter = 74500  time[fs]=74.50000
   C -0.887340836E+01 -0.201305749E+00  0.184967571E+00
   C  0.868383716E+01  0.490367255E+00  0.293859282E+00
   H -0.443269627E+02 -0.229241498E+01 -0.308420112E+01
   H  0.429577190E+02  0.204430791E+01 -0.200574008E+01
     4
 # iter = 75000  time[fs]=75.00000
   C -0.896137894E+01 -0.203392910E+00  0.186825544E+00
   C  0.876974314E+01  0.494919283E+00  0.296662432E+00
   H -0.447365962E+02 -0.231362366E+01 -0.311269465E+01
   H  0.433534617E+02  0.206299717E+01 -0.202444361E+01
     4
 # iter = 75500  time[fs]=75.50000
   C -0.904938994E+01 -0.205481577E+00  0.188683802E+00
   C  0.885568916E+01  0.499472886E+00  0.299466323E+00
   H -0.451463183E+02 -0.233483737E+01 -0.314119528E+01
   H  0.437492977E+02  0.208169063E+01 -0.204315235E+01
     4
 # iter = 76000  time[fs]=76.00000
   C -0.913744059E+01 -0.207571719E+00  0.190542340E+00
   C  0.894167445E+01  0.504028032E+00  0.302270943E+00
   H -0.455561277E+02 -0.235605602E+01 -0.316970288E+01
   H  0.441452254E+02  0.210038821E+01 -0.206186622E+01
     4
 # iter = 76500  time[fs]=76.50000
   C -0.922553010E+01 -0.209663307E+00  0.192401153E+00
   C  0.902769824E+01  0.508584691E+00  0.305076278E+00
   H -0.459660226E+02 -0.237727951E+01 -0.319821734E+01
   H  0.445412430E+02  0.211908983E+01 -0.208058512E+01
     4
 # iter = 77000  time[fs]=77.00000
   C -0.931365775E+01 -0.211756313E+00  0.194260238E+00
   C  0.911375980E+01  0.513142834E+00  0.307882315E+00
   H -0.463760015E+02 -0.239850777E+01 -0.322673853E+01
   H  0.449373490E+02  0.213779542E+01 -0.209930897E+01
     4
 # iter = 77500  time[fs]=77.50000
   C -0.940182280E+01 -0.213850708E+00  0.196119590E+00
   C  0.919985841E+01  0.517702431E+00  0.310689041E+00
   H -0.467860631E+02 -0.241974071E+01 -0.325526633E+01
   H  0.453335419E+02  0.215650492E+01 -0.211803767E+01
     4
 # iter = 78000  time[fs]=78.00000
   C -0.949002456E+01 -0.215946468E+00  0.197979206E+00
   C  0.928599338E+01  0.522263456E+00  0.313496443E+00
   H -0.471962059E+02 -0.244097825E+01 -0.328380065E+01
   H  0.457298201E+02  0.217521826E+01 -0.213677116E+01
     4
 # iter = 78500  time[fs]=78.50000
   C -0.957826234E+01 -0.218043565E+00  0.199839082E+00
   C  0.937216403E+01  0.526825882E+00  0.316304510E+00
   H -0.476064284E+02 -0.246222031E+01 -0.331234135E+01
   H  0.461261823E+02  0.219393536E+01 -0.215550934E+01
     4
 # iter = 79000  time[fs]=79.00000
   C -0.966653548E+01 -0.220141975E+00  0.201699214E+00
   C  0.945836969E+01  0.531389681E+00  0.319113229E+00
   H -0.480167294E+02 -0.248346681E+01 -0.334088834E+01
   H  0.465226269E+02  0.221265618E+01 -0.217425214E+01
     4
 # iter = 79500  time[fs]=79.50000
   C -0.975484333E+01 -0.222241672E+00  0.203559598E+00
   C  0.954460974E+01  0.535954828E+00  0.321922590E+00
   H -0.484271075E+02 -0.250471769E+01 -0.336944151E+01
   H  0.469191526E+02  0.223138064E+01 -0.219299949E+01
     4
 # iter = 80000  time[fs]=80.00000
   C -0.984318526E+01 -0.224342634E+00  0.205420232E+00
   C  0.963088354E+01  0.540521299E+00  0.324732580E+00
   H -0.488375614E+02 -0.252597286E+01 -0.339800076E+01
   H  0.473157581E+02  0.225010868E+01 -0.221175131E+01
