     4
 # iter = 25000  time[fs]=25.00000
   C -0.975925503E+00  0.439306464E-01  0.285122013E-01
   C  0.100822500E+01  0.444549817E-01 -0.482318157E-01
   H -0.525575378E+01 -0.278974912E+00 -0.674593155E+00
   H  0.528756076E+01 -0.458397868E+00  0.689680805E+00
     4
 # iter = 25500  time[fs]=25.50000
   C -0.102257667E+01  0.447489184E-01  0.302103721E-01
   C  0.105039912E+01  0.461765948E-01 -0.534484319E-01
   H -0.559391203E+01 -0.305122058E+00 -0.727037846E+00
   H  0.559473815E+01 -0.494710273E+00  0.725784149E+00
     4
 # iter = 26000  time[fs]=26.00000
   C -0.107320049E+01  0.446437467E-01  0.311141784E-01
   C  0.109458460E+01  0.469418738E-01 -0.598290947E-01
   H -0.594281374E+01 -0.337014997E+00 -0.785650162E+00
   H  0.590192906E+01 -0.536985084E+00  0.757290517E+00
     4
 # iter = 26500  time[fs]=26.50000
   C -0.112470543E+01  0.464515790E-01  0.340541913E-01
   C  0.114350684E+01  0.497284538E-01 -0.643826267E-01
   H -0.628575187E+01 -0.358531485E+00 -0.834259692E+00
   H  0.622466325E+01 -0.569073567E+00  0.800208489E+00
     4
 # iter = 27000  time[fs]=27.00000
   C -0.117671530E+01  0.503091102E-01  0.391610718E-01
   C  0.119707694E+01  0.546806145E-01 -0.669515672E-01
   H -0.662142228E+01 -0.368843051E+00 -0.871998819E+00
   H  0.656323624E+01 -0.590128433E+00  0.855260444E+00
     4
 # iter = 27500  time[fs]=27.50000
   C -0.123112478E+01  0.540994450E-01  0.443118699E-01
   C  0.125286055E+01  0.595775447E-01 -0.697440286E-01
   H -0.696137434E+01 -0.379888520E+00 -0.910774344E+00
   H  0.690522776E+01 -0.612076587E+00  0.910407723E+00
     4
 # iter = 28000  time[fs]=28.00000
   C -0.128922928E+01  0.563243789E-01  0.480022711E-01
   C  0.130909030E+01  0.628473452E-01 -0.743201037E-01
   H -0.731371391E+01 -0.400110829E+00 -0.959001441E+00
   H  0.724178133E+01 -0.643349717E+00  0.957122518E+00
     4
 # iter = 28500  time[fs]=28.50000
   C -0.135024366E+01  0.575859361E-01  0.508281801E-01
   C  0.136621930E+01  0.651216841E-01 -0.800373613E-01
   H -0.767469511E+01 -0.426066963E+00 -0.101321206E+01
   H  0.757599671E+01 -0.680490309E+00  0.998781583E+00
     4
 # iter = 29000  time[fs]=29.00000
   C -0.141252209E+01  0.593646992E-01  0.542642041E-01
   C  0.142563881E+01  0.679539396E-01 -0.853325427E-01
   H -0.803563607E+01 -0.449344251E+00 -0.106497121E+01
   H  0.791599485E+01 -0.715070634E+00  0.104374347E+01
     4
 # iter = 29500  time[fs]=29.50000
   C -0.147540461E+01  0.621711041E-01  0.588150876E-01
   C  0.148773787E+01  0.718793804E-01 -0.896611780E-01
   H -0.839338921E+01 -0.467027988E+00 -0.111134484E+01
   H  0.826442914E+01 -0.744164977E+00  0.109487243E+01
     4
 # iter = 30000  time[fs]=30.00000
   C -0.153947503E+01  0.652860593E-01  0.637563798E-01
   C  0.155162993E+01  0.761430303E-01 -0.937696567E-01
   H -0.875180547E+01 -0.483169524E+00 -0.115636762E+01
   H  0.861700976E+01 -0.771818182E+00  0.114806820E+01
     4
 # iter = 30500  time[fs]=30.50000
   C -0.160541312E+01  0.679077846E-01  0.682812571E-01
   C  0.161635470E+01  0.799030907E-01 -0.984918409E-01
   H -0.911523102E+01 -0.502291055E+00 -0.120454707E+01
   H  0.896900181E+01 -0.802547014E+00  0.119876464E+01
     4
 # iter = 31000  time[fs]=31.00000
   C -0.167312120E+01  0.700242057E-01  0.723728980E-01
   C  0.168179207E+01  0.831463797E-01 -0.103833641E+00
   H -0.948355998E+01 -0.524444677E+00 -0.125592206E+01
   H  0.932016812E+01 -0.836396572E+00  0.124687312E+01
     4
 # iter = 31500  time[fs]=31.50000
   C -0.174197894E+01  0.721568420E-01  0.765483715E-01
   C  0.174839224E+01  0.864196049E-01 -0.109241686E+00
   H -0.985368223E+01 -0.546662575E+00 -0.130751284E+01
   H  0.967331452E+01 -0.870391191E+00  0.129533081E+01
     4
 # iter = 32000  time[fs]=32.00000
   C -0.181157405E+01  0.746288450E-01  0.811266836E-01
   C  0.181640672E+01  0.900613180E-01 -0.114371294E+00
   H -0.102236280E+02 -0.567102178E+00 -0.135746612E+01
   H  0.100301380E+02 -0.902681749E+00  0.134595231E+01
     4
 # iter = 32500  time[fs]=32.50000
   C -0.188196369E+01  0.773024832E-01  0.859662558E-01
   C  0.188561188E+01  0.939264617E-01 -0.119361863E+00
   H -0.105940531E+02 -0.586532627E+00 -0.140654146E+01
   H  0.103897361E+02 -0.934032831E+00  0.139794171E+01
     4
 # iter = 33000  time[fs]=33.00000
   C -0.195335830E+01  0.798943748E-01  0.907801374E-01
   C  0.195563884E+01  0.977171556E-01 -0.124506056E+00
   H -0.109664510E+02 -0.606549142E+00 -0.145632550E+01
   H  0.107503928E+02 -0.966036009E+00  0.144967904E+01
     4
 # iter = 33500  time[fs]=33.50000
   C -0.202577508E+01  0.823213011E-01  0.954817977E-01
   C  0.202633545E+01  0.101345569E+00 -0.129886901E+00
   H -0.113411923E+02 -0.627614265E+00 -0.150727295E+01
   H  0.111115367E+02 -0.999149926E+00  0.150067999E+01
     4
 # iter = 34000  time[fs]=34.00000
   C -0.209903378E+01  0.847036456E-01  0.100188545E+00
   C  0.209776920E+01  0.104937533E+00 -0.135374148E+00
   H -0.117175036E+02 -0.649038277E+00 -0.155868698E+01
   H  0.114737599E+02 -0.103268068E+01  0.155161519E+01
     4
 # iter = 34500  time[fs]=34.50000
   C -0.217296228E+01  0.871591494E-01  0.105015268E+00
   C  0.217001016E+01  0.108616125E+00 -0.140840645E+00
   H -0.120946349E+02 -0.670147237E+00 -0.160988715E+01
   H  0.118376475E+02 -0.106595051E+01  0.160314125E+01
     4
 # iter = 35000  time[fs]=35.00000
   C -0.224751326E+01  0.896856338E-01  0.109957145E+00
   C  0.224300737E+01  0.112378610E+00 -0.146285363E+00
   H -0.124725228E+02 -0.690947120E+00 -0.166087351E+01
   H  0.122031123E+02 -0.109896225E+01  0.165523595E+01
     4
 # iter = 35500  time[fs]=35.50000
   C -0.232270927E+01  0.922154007E-01  0.114944025E+00
   C  0.231664540E+01  0.116153522E+00 -0.151776288E+00
   H -0.128514818E+02 -0.711815595E+00 -0.171201830E+01
   H  0.125697017E+02 -0.113209090E+01  0.170750652E+01
     4
 # iter = 36000  time[fs]=36.00000
   C -0.239854601E+01  0.947115346E-01  0.119936718E+00
   C  0.239084499E+01  0.119901718E+00 -0.157349340E+00
   H -0.132316581E+02 -0.732956490E+00 -0.176352038E+01
   H  0.129371435E+02 -0.116553776E+01  0.175973535E+01
     4
 # iter = 36500  time[fs]=36.50000
   C -0.247496987E+01  0.971899208E-01  0.124948993E+00
   C  0.246558570E+01  0.123639480E+00 -0.162985257E+00
   H -0.136129036E+02 -0.754275031E+00 -0.181528038E+01
   H  0.133054698E+02 -0.119920555E+01  0.181200475E+01
     4
 # iter = 37000  time[fs]=37.00000
   C -0.255191826E+01  0.996786043E-01  0.130006931E+00
   C  0.254086298E+01  0.127395872E+00 -0.168652210E+00
   H -0.139950063E+02 -0.775607985E+00 -0.186713086E+01
   H  0.136747862E+02 -0.123292869E+01  0.186446646E+01
     4
 # iter = 37500  time[fs]=37.50000
   C -0.262935263E+01  0.102184399E+00  0.135115518E+00
   C  0.261665274E+01  0.131177696E+00 -0.174340830E+00
   H -0.143778784E+02 -0.796912740E+00 -0.191902529E+01
   H  0.140450821E+02 -0.126666243E+01  0.191715245E+01
     4
 # iter = 38000  time[fs]=38.00000
   C -0.270725455E+01  0.104696565E+00  0.140262311E+00
   C  0.269291502E+01  0.134973355E+00 -0.180060328E+00
   H -0.147615356E+02 -0.818246448E+00 -0.197101720E+01
   H  0.144162511E+02 -0.130046205E+01  0.196999563E+01
     4
 # iter = 38500  time[fs]=38.50000
   C -0.278560639E+01  0.107205855E+00  0.145436478E+00
   C  0.276961367E+01  0.138772836E+00 -0.185818496E+00
   H -0.151459883E+02 -0.839658078E+00 -0.202315222E+01
   H  0.147881986E+02 -0.133437473E+01  0.202293783E+01
     4
 # iter = 39000  time[fs]=39.00000
   C -0.286438311E+01  0.109712515E+00  0.150636786E+00
   C  0.284672455E+01  0.142576105E+00 -0.191613299E+00
   H -0.155311964E+02 -0.861143099E+00 -0.207542270E+01
   H  0.151608869E+02 -0.136839427E+01  0.207597508E+01
     4
 # iter = 39500  time[fs]=39.50000
   C -0.294355736E+01  0.112220982E+00  0.155866288E+00
   C  0.292422977E+01  0.146387540E+00 -0.197438430E+00
   H -0.159170985E+02 -0.882673484E+00 -0.212779770E+01
   H  0.155343047E+02 -0.140249108E+01  0.212912748E+01
     4
 # iter = 40000  time[fs]=40.00000
   C -0.302310588E+01  0.114733327E+00  0.161125767E+00
   C  0.300211064E+01  0.150209052E+00 -0.203290173E+00
   H -0.163036496E+02 -0.904234803E+00 -0.218026010E+01
   H  0.159084298E+02 -0.143664926E+01  0.218240209E+01
     4
 # iter = 40500  time[fs]=40.50000
   C -0.310301008E+01  0.117248479E+00  0.166412943E+00
   C  0.308034670E+01  0.154039272E+00 -0.209168216E+00
   H -0.166908244E+02 -0.925830625E+00 -0.223281094E+01
   H  0.162832247E+02 -0.147087102E+01  0.223578844E+01
     4
 # iter = 41000  time[fs]=41.00000
   C -0.318325327E+01  0.119764878E+00  0.171725126E+00
   C  0.315891836E+01  0.157876327E+00 -0.215072851E+00
   H -0.170786027E+02 -0.947467458E+00 -0.228545437E+01
   H  0.166586509E+02 -0.150516162E+01  0.228927358E+01
     4
 # iter = 41500  time[fs]=41.50000
   C -0.326381889E+01  0.122282139E+00  0.177060868E+00
   C  0.323780853E+01  0.161719591E+00 -0.221003228E+00
   H -0.174669593E+02 -0.969145327E+00 -0.233818820E+01
   H  0.170346787E+02 -0.153951988E+01  0.234285143E+01
     4
 # iter = 42000  time[fs]=42.00000
   C -0.334469075E+01  0.124800671E+00  0.182419585E+00
   C  0.331700211E+01  0.165569285E+00 -0.226957739E+00
   H -0.178558667E+02 -0.990859883E+00 -0.239100602E+01
   H  0.174112846E+02 -0.157394033E+01  0.239652071E+01
     4
 # iter = 42500  time[fs]=42.50000
   C -0.342585383E+01  0.127320774E+00  0.187800642E+00
   C  0.339648493E+01  0.169425525E+00 -0.232934966E+00
   H -0.182452991E+02 -0.101260754E+01 -0.244390228E+01
   H  0.177884461E+02 -0.160841835E+01  0.245027968E+01
     4
 # iter = 43000  time[fs]=43.00000
   C -0.350729448E+01  0.129842362E+00  0.193203075E+00
   C  0.347624340E+01  0.173288032E+00 -0.238933964E+00
   H -0.186352347E+02 -0.103438701E+01 -0.249687387E+01
   H  0.181661399E+02 -0.164295165E+01  0.250412465E+01
     4
 # iter = 43500  time[fs]=43.50000
   C -0.358900009E+01  0.132365216E+00  0.198625838E+00
   C  0.355626465E+01  0.177156399E+00 -0.244953987E+00
   H -0.190256538E+02 -0.105619787E+01 -0.254991864E+01
   H  0.185443434E+02 -0.167753889E+01  0.255805135E+01
     4
 # iter = 44000  time[fs]=44.00000
   C -0.367095878E+01  0.134889214E+00  0.204068031E+00
   C  0.363653674E+01  0.181030329E+00 -0.250994249E+00
   H -0.194165371E+02 -0.107803925E+01 -0.260303411E+01
   H  0.189230357E+02 -0.171217833E+01  0.261205620E+01
     4
 # iter = 44500  time[fs]=44.50000
   C -0.375315931E+01  0.137414337E+00  0.209528899E+00
   C  0.371704860E+01  0.184909640E+00 -0.257053908E+00
   H -0.198078664E+02 -0.109990980E+01 -0.265621740E+01
   H  0.193021979E+02 -0.174686778E+01  0.266613641E+01
     4
 # iter = 45000  time[fs]=45.00000
   C -0.383559115E+01  0.139940575E+00  0.215007740E+00
   C  0.379778981E+01  0.188794171E+00 -0.263132158E+00
   H -0.201996240E+02 -0.112180819E+01 -0.270946572E+01
   H  0.196818120E+02 -0.178160513E+01  0.272028936E+01
     4
 # iter = 45500  time[fs]=45.50000
   C -0.391824442E+01  0.142467891E+00  0.220503864E+00
   C  0.387875062E+01  0.192683739E+00 -0.269228272E+00
   H -0.205917935E+02 -0.114373332E+01 -0.276277661E+01
   H  0.200618608E+02 -0.181638855E+01  0.277451243E+01
     4
 # iter = 46000  time[fs]=46.00000
   C -0.400110987E+01  0.144996233E+00  0.226016598E+00
   C  0.395992179E+01  0.196578150E+00 -0.275341581E+00
   H -0.209843598E+02 -0.116568428E+01 -0.281614785E+01
   H  0.204423282E+02 -0.185121642E+01  0.282880302E+01
     4
 # iter = 46500  time[fs]=46.50000
   C -0.408417878E+01  0.147525553E+00  0.231545310E+00
   C  0.404129465E+01  0.200477223E+00 -0.281471449E+00
   H -0.213773082E+02 -0.118766015E+01 -0.286957733E+01
   H  0.208231987E+02 -0.188608718E+01  0.288315868E+01
     4
 # iter = 47000  time[fs]=47.00000
   C -0.416744294E+01  0.150055814E+00  0.237089409E+00
   C  0.412286106E+01  0.204380796E+00 -0.287617265E+00
   H -0.217706249E+02 -0.120966006E+01 -0.292306300E+01
   H  0.212044579E+02 -0.192099932E+01  0.293757715E+01
     4
 # iter = 47500  time[fs]=47.50000
   C -0.425089459E+01  0.152586984E+00  0.242648338E+00
   C  0.420461332E+01  0.208288717E+00 -0.293778448E+00
   H -0.221642969E+02 -0.123168315E+01 -0.297660288E+01
   H  0.215860920E+02 -0.195595137E+01  0.299205629E+01
     4
 # iter = 48000  time[fs]=48.00000
   C -0.433452641E+01  0.155119032E+00  0.248221566E+00
   C  0.428654418E+01  0.212200839E+00 -0.299954450E+00
   H -0.225583117E+02 -0.125372861E+01 -0.303019514E+01
   H  0.219680880E+02 -0.199094197E+01  0.304659405E+01
     4
 # iter = 48500  time[fs]=48.50000
   C -0.441833151E+01  0.157651927E+00  0.253808590E+00
   C  0.436864678E+01  0.216117023E+00 -0.306144750E+00
   H -0.229526576E+02 -0.127579568E+01 -0.308383801E+01
   H  0.223504335E+02 -0.202596982E+01  0.310118849E+01
     4
 # iter = 49000  time[fs]=49.00000
   C -0.450230334E+01  0.160185637E+00  0.259408931E+00
   C  0.445091463E+01  0.220037133E+00 -0.312348856E+00
   H -0.233473234E+02 -0.129788364E+01 -0.313752983E+01
   H  0.227331167E+02 -0.206103370E+01  0.315583774E+01
     4
 # iter = 49500  time[fs]=49.50000
   C -0.458643572E+01  0.162720136E+00  0.265022133E+00
   C  0.453334159E+01  0.223961043E+00 -0.318566298E+00
   H -0.237422986E+02 -0.131999182E+01 -0.319126902E+01
   H  0.231161265E+02 -0.209613243E+01  0.321054004E+01
     4
 # iter = 50000  time[fs]=50.00000
   C -0.467072281E+01  0.165255397E+00  0.270647764E+00
   C  0.461592186E+01  0.227888631E+00 -0.324796630E+00
   H -0.241375729E+02 -0.134211955E+01 -0.324505406E+01
   H  0.234994521E+02 -0.213126489E+01  0.326529372E+01
     4
 # iter = 50500  time[fs]=50.50000
   C -0.475515903E+01  0.167791396E+00  0.276285413E+00
   C  0.469864992E+01  0.231819782E+00 -0.331039425E+00
   H -0.245331367E+02 -0.136426622E+01 -0.329888351E+01
   H  0.238830834E+02 -0.216643002E+01  0.332009716E+01
     4
 # iter = 51000  time[fs]=51.00000
   C -0.483973913E+01  0.170328107E+00  0.281934687E+00
   C  0.478152054E+01  0.235754386E+00 -0.337294279E+00
   H -0.249289809E+02 -0.138643123E+01 -0.335275600E+01
   H  0.242670109E+02 -0.220162680E+01  0.337494885E+01
     4
 # iter = 51500  time[fs]=51.50000
   C -0.492445809E+01  0.172865510E+00  0.287595213E+00
   C  0.486452877E+01  0.239692337E+00 -0.343560806E+00
   H -0.253250968E+02 -0.140861402E+01 -0.340667021E+01
   H  0.246512251E+02 -0.223685426E+01  0.342984730E+01
     4
 # iter = 52000  time[fs]=52.00000
   C -0.500931117E+01  0.175403582E+00  0.293266634E+00
   C  0.494766988E+01  0.243633535E+00 -0.349838638E+00
   H -0.257214758E+02 -0.143081403E+01 -0.346062488E+01
   H  0.250357174E+02 -0.227211147E+01  0.348479114E+01
     4
 # iter = 52500  time[fs]=52.50000
   C -0.509429384E+01  0.177942303E+00  0.298948611E+00
   C  0.503093938E+01  0.247577883E+00 -0.356127423E+00
   H -0.261181102E+02 -0.145303077E+01 -0.351461882E+01
   H  0.254204793E+02 -0.230739756E+01  0.353977902E+01
     4
 # iter = 53000  time[fs]=53.00000
   C -0.517940179E+01  0.180481654E+00  0.304640818E+00
   C  0.511433301E+01  0.251525288E+00 -0.362426825E+00
   H -0.265149922E+02 -0.147526373E+01 -0.356865089E+01
   H  0.258055028E+02 -0.234271167E+01  0.359480966E+01
     4
 # iter = 53500  time[fs]=53.50000
   C -0.526463093E+01  0.183021615E+00  0.310342944E+00
   C  0.519784669E+01  0.255475663E+00 -0.368736523E+00
   H -0.269121145E+02 -0.149751245E+01 -0.362271998E+01
   H  0.261907802E+02 -0.237805299E+01  0.364988185E+01
     4
 # iter = 54000  time[fs]=54.00000
   C -0.534997735E+01  0.185562170E+00  0.316054694E+00
   C  0.528147655E+01  0.259428923E+00 -0.375056210E+00
   H -0.273094703E+02 -0.151977646E+01 -0.367682505E+01
   H  0.265763041E+02 -0.241342075E+01  0.370499440E+01
     4
 # iter = 54500  time[fs]=54.50000
   C -0.543543731E+01  0.188103301E+00  0.321775783E+00
   C  0.536521890E+01  0.263384986E+00 -0.381385593E+00
   H -0.277070527E+02 -0.154205535E+01 -0.373096508E+01
   H  0.269620674E+02 -0.244881420E+01  0.376014620E+01
     4
 # iter = 55000  time[fs]=55.00000
   C -0.552100727E+01  0.190644991E+00  0.327505938E+00
   C  0.544907020E+01  0.267343776E+00 -0.387724390E+00
   H -0.281048554E+02 -0.156434868E+01 -0.378513911E+01
   H  0.273480635E+02 -0.248423264E+01  0.381533617E+01
     4
 # iter = 55500  time[fs]=55.50000
   C -0.560668382E+01  0.193187227E+00  0.333244900E+00
   C  0.553302709E+01  0.271305217E+00 -0.394072332E+00
   H -0.285028722E+02 -0.158665607E+01 -0.383934621E+01
   H  0.277342858E+02 -0.251967537E+01  0.387056327E+01
     4
 # iter = 56000  time[fs]=56.00000
   C -0.569246371E+01  0.195729991E+00  0.338992419E+00
   C  0.561708635E+01  0.275269238E+00 -0.400429161E+00
   H -0.289010973E+02 -0.160897713E+01 -0.389358549E+01
   H  0.281207282E+02 -0.255514173E+01  0.392582651E+01
     4
 # iter = 56500  time[fs]=56.50000
   C -0.577834385E+01  0.198273272E+00  0.344748255E+00
   C  0.570124489E+01  0.279235770E+00 -0.406794628E+00
   H -0.292995251E+02 -0.163131149E+01 -0.394785611E+01
   H  0.285073846E+02 -0.259063111E+01  0.398112493E+01
     4
 # iter = 57000  time[fs]=57.00000
   C -0.586432126E+01  0.200817053E+00  0.350512179E+00
   C  0.578549977E+01  0.283204747E+00 -0.413168497E+00
   H -0.296981500E+02 -0.165365881E+01 -0.400215723E+01
   H  0.288942494E+02 -0.262614289E+01  0.403645762E+01
     4
 # iter = 57500  time[fs]=57.50000
   C -0.595039310E+01  0.203361324E+00  0.356283971E+00
   C  0.586984817E+01  0.287176104E+00 -0.419550538E+00
   H -0.300969668E+02 -0.167601874E+01 -0.405648807E+01
   H  0.292813170E+02 -0.266167650E+01  0.409182370E+01
     4
 # iter = 58000  time[fs]=58.00000
   C -0.603655664E+01  0.205906070E+00  0.362063418E+00
   C  0.595428740E+01  0.291149782E+00 -0.425940533E+00
   H -0.304959706E+02 -0.169839097E+01 -0.411084788E+01
   H  0.296685822E+02 -0.269723136E+01  0.414722231E+01
     4
 # iter = 58500  time[fs]=58.50000
   C -0.612280927E+01  0.208451280E+00  0.367850317E+00
   C  0.603881485E+01  0.295125720E+00 -0.432338271E+00
   H -0.308951566E+02 -0.172077516E+01 -0.416523590E+01
   H  0.300560398E+02 -0.273280695E+01  0.420265265E+01
     4
 # iter = 59000  time[fs]=59.00000
   C -0.620914849E+01  0.210996942E+00  0.373644472E+00
   C  0.612342806E+01  0.299103863E+00 -0.438743549E+00
   H -0.312945201E+02 -0.174317103E+01 -0.421965146E+01
   H  0.304436850E+02 -0.276840274E+01  0.425811391E+01
     4
 # iter = 59500  time[fs]=59.50000
   C -0.629557190E+01  0.213543046E+00  0.379445695E+00
   C  0.620812463E+01  0.303084155E+00 -0.445156173E+00
   H -0.316940565E+02 -0.176557828E+01 -0.427409386E+01
   H  0.308315131E+02 -0.280401823E+01  0.431360535E+01
     4
 # iter = 60000  time[fs]=60.00000
   C -0.638207719E+01  0.216089579E+00  0.385253806E+00
   C  0.629290229E+01  0.307066544E+00 -0.451575955E+00
   H -0.320937618E+02 -0.178799664E+01 -0.432856245E+01
   H  0.312195195E+02 -0.283965295E+01  0.436912624E+01
     4
 # iter = 60500  time[fs]=60.50000
   C -0.646866214E+01  0.218636533E+00  0.391068629E+00
   C  0.637775883E+01  0.311050980E+00 -0.458002714E+00
   H -0.324936316E+02 -0.181042583E+01 -0.438305661E+01
   H  0.316076998E+02 -0.287530642E+01  0.442467586E+01
     4
 # iter = 61000  time[fs]=61.00000
   C -0.655532463E+01  0.221183896E+00  0.396889997E+00
   C  0.646269215E+01  0.315037412E+00 -0.464436277E+00
   H -0.328936620E+02 -0.183286560E+01 -0.443757572E+01
   H  0.319960498E+02 -0.291097821E+01  0.448025354E+01
     4
 # iter = 61500  time[fs]=61.50000
   C -0.664206261E+01  0.223731660E+00  0.402717748E+00
   C  0.654770021E+01  0.319025794E+00 -0.470876475E+00
   H -0.332938492E+02 -0.185531569E+01 -0.449211920E+01
   H  0.323845655E+02 -0.294666787E+01  0.453585863E+01
     4
 # iter = 62000  time[fs]=62.00000
   C -0.672887412E+01  0.226279814E+00  0.408551727E+00
   C  0.663278108E+01  0.323016080E+00 -0.477323147E+00
   H -0.336941894E+02 -0.187777586E+01 -0.454668648E+01
   H  0.327732429E+02 -0.298237499E+01  0.459149048E+01
     4
 # iter = 62500  time[fs]=62.50000
   C -0.681575725E+01  0.228828351E+00  0.414391781E+00
   C  0.671793287E+01  0.327008227E+00 -0.483776138E+00
   H -0.340946790E+02 -0.190024588E+01 -0.460127702E+01
   H  0.331620783E+02 -0.301809917E+01  0.464714849E+01
     4
 # iter = 63000  time[fs]=63.00000
   C -0.690271020E+01  0.231377261E+00  0.420237768E+00
   C  0.680315377E+01  0.331002191E+00 -0.490235297E+00
   H -0.344953146E+02 -0.192272552E+01 -0.465589029E+01
   H  0.335510680E+02 -0.305384002E+01  0.470283207E+01
     4
 # iter = 63500  time[fs]=63.50000
   C -0.698973119E+01  0.233926536E+00  0.426089545E+00
   C  0.688844204E+01  0.334997931E+00 -0.496700478E+00
   H -0.348960929E+02 -0.194521456E+01 -0.471052578E+01
   H  0.339402084E+02 -0.308959716E+01  0.475854064E+01
     4
 # iter = 64000  time[fs]=64.00000
   C -0.707681854E+01  0.236476168E+00  0.431946979E+00
   C  0.697379602E+01  0.338995408E+00 -0.503171542E+00
   H -0.352970105E+02 -0.196771280E+01 -0.476518299E+01
   H  0.343294961E+02 -0.312537023E+01  0.481427364E+01
     4
 # iter = 64500  time[fs]=64.50000
   C -0.716397062E+01  0.239026149E+00  0.437809939E+00
   C  0.705921407E+01  0.342994583E+00 -0.509648353E+00
   H -0.356980645E+02 -0.199022002E+01 -0.481986145E+01
   H  0.347189279E+02 -0.316115888E+01  0.487003056E+01
     4
 # iter = 65000  time[fs]=65.00000
   C -0.725118585E+01  0.241576471E+00  0.443678298E+00
   C  0.714469465E+01  0.346995419E+00 -0.516130780E+00
   H -0.360992517E+02 -0.201273604E+01 -0.487456070E+01
   H  0.351085006E+02 -0.319696276E+01  0.492581086E+01
     4
 # iter = 65500  time[fs]=65.50000
   C -0.733846273E+01  0.244127128E+00  0.449551934E+00
   C  0.723023624E+01  0.350997880E+00 -0.522618697E+00
   H -0.365005693E+02 -0.203526066E+01 -0.492928028E+01
   H  0.354982110E+02 -0.323278156E+01  0.498161405E+01
     4
 # iter = 66000  time[fs]=66.00000
   C -0.742579977E+01  0.246678113E+00  0.455430729E+00
   C  0.731583741E+01  0.355001931E+00 -0.529111981E+00
   H -0.369020143E+02 -0.205779370E+01 -0.498401977E+01
   H  0.358880562E+02 -0.326861494E+01  0.503743964E+01
     4
 # iter = 66500  time[fs]=66.50000
   C -0.751319558E+01  0.249229417E+00  0.461314570E+00
   C  0.740149674E+01  0.359007538E+00 -0.535610514E+00
   H -0.373035841E+02 -0.208033497E+01 -0.503877875E+01
   H  0.362780333E+02 -0.330446261E+01  0.509328716E+01
     4
 # iter = 67000  time[fs]=67.00000
   C -0.760064878E+01  0.251781036E+00  0.467203345E+00
   C  0.748721289E+01  0.363014668E+00 -0.542114182E+00
   H -0.377052761E+02 -0.210288431E+01 -0.509355680E+01
   H  0.366681394E+02 -0.334032425E+01  0.514915615E+01
     4
 # iter = 67500  time[fs]=67.50000
   C -0.768815805E+01  0.254332961E+00  0.473096948E+00
   C  0.757298454E+01  0.367023290E+00 -0.548622873E+00
   H -0.381070876E+02 -0.212544154E+01 -0.514835354E+01
   H  0.370583720E+02 -0.337619959E+01  0.520504618E+01
     4
 # iter = 68000  time[fs]=68.00000
   C -0.777572213E+01  0.256885188E+00  0.478995276E+00
   C  0.765881043E+01  0.371033373E+00 -0.555136480E+00
   H -0.385090161E+02 -0.214800651E+01 -0.520316859E+01
   H  0.374487282E+02 -0.341208834E+01  0.526095682E+01
     4
 # iter = 68500  time[fs]=68.50000
   C -0.786333977E+01  0.259437710E+00  0.484898228E+00
   C  0.774468935E+01  0.375044888E+00 -0.561654899E+00
   H -0.389110594E+02 -0.217057906E+01 -0.525800156E+01
   H  0.378392057E+02 -0.344799023E+01  0.531688764E+01
     4
 # iter = 69000  time[fs]=69.00000
   C -0.795100978E+01  0.261990521E+00  0.490805706E+00
   C  0.783062011E+01  0.379057804E+00 -0.568178029E+00
   H -0.393132149E+02 -0.219315902E+01 -0.531285212E+01
   H  0.382298018E+02 -0.348390499E+01  0.537283826E+01
     4
 # iter = 69500  time[fs]=69.50000
   C -0.803873102E+01  0.264543616E+00  0.496717617E+00
   C  0.791660156E+01  0.383072094E+00 -0.574705773E+00
   H -0.397154804E+02 -0.221574627E+01 -0.536771990E+01
   H  0.386205143E+02 -0.351983237E+01  0.542880826E+01
     4
 # iter = 70000  time[fs]=70.00000
   C -0.812650235E+01  0.267096989E+00  0.502633870E+00
   C  0.800263261E+01  0.387087732E+00 -0.581238036E+00
   H -0.401178539E+02 -0.223834064E+01 -0.542260457E+01
   H  0.390113408E+02 -0.355577212E+01  0.548479729E+01
     4
 # iter = 70500  time[fs]=70.50000
   C -0.821432271E+01  0.269650635E+00  0.508554376E+00
   C  0.808871217E+01  0.391104689E+00 -0.587774725E+00
   H -0.405203330E+02 -0.226094201E+01 -0.547750579E+01
   H  0.394022790E+02 -0.359172400E+01  0.554080496E+01
     4
 # iter = 71000  time[fs]=71.00000
   C -0.830219104E+01  0.272204548E+00  0.514479048E+00
   C  0.817483921E+01  0.395122942E+00 -0.594315753E+00
   H -0.409229157E+02 -0.228355023E+01 -0.553242326E+01
   H  0.397933267E+02 -0.362768777E+01  0.559683092E+01
     4
 # iter = 71500  time[fs]=71.50000
   C -0.839010633E+01  0.274758724E+00  0.520407805E+00
   C  0.826101273E+01  0.399142464E+00 -0.600861032E+00
   H -0.413256000E+02 -0.230616517E+01 -0.558735666E+01
   H  0.401844818E+02 -0.366366321E+01  0.565287482E+01
     4
 # iter = 72000  time[fs]=72.00000
   C -0.847806759E+01  0.277313157E+00  0.526340564E+00
   C  0.834723175E+01  0.403163232E+00 -0.607410477E+00
   H -0.417283841E+02 -0.232878671E+01 -0.564230569E+01
   H  0.405757423E+02 -0.369965008E+01  0.570893633E+01
     4
 # iter = 72500  time[fs]=72.50000
   C -0.856607387E+01  0.279867844E+00  0.532277247E+00
   C  0.843349532E+01  0.407185222E+00 -0.613964009E+00
   H -0.421312658E+02 -0.235141472E+01 -0.569727005E+01
   H  0.409671062E+02 -0.373564819E+01  0.576501511E+01
     4
 # iter = 73000  time[fs]=73.00000
   C -0.865412425E+01  0.282422778E+00  0.538217779E+00
   C  0.851980254E+01  0.411208411E+00 -0.620521547E+00
   H -0.425342435E+02 -0.237404907E+01 -0.575224947E+01
   H  0.413585714E+02 -0.377165731E+01  0.582111084E+01
     4
 # iter = 73500  time[fs]=73.50000
   C -0.874221783E+01  0.284977957E+00  0.544162084E+00
   C  0.860615250E+01  0.415232777E+00 -0.627083015E+00
   H -0.429373153E+02 -0.239668966E+01 -0.580724366E+01
   H  0.417501361E+02 -0.380767725E+01  0.587722322E+01
     4
 # iter = 74000  time[fs]=74.00000
   C -0.883035374E+01  0.287533374E+00  0.550110091E+00
   C  0.869254436E+01  0.419258297E+00 -0.633648337E+00
   H -0.433404795E+02 -0.241933637E+01 -0.586225235E+01
   H  0.421417984E+02 -0.384370781E+01  0.593335194E+01
     4
 # iter = 74500  time[fs]=74.50000
   C -0.891853113E+01  0.290089027E+00  0.556061730E+00
   C  0.877897727E+01  0.423284952E+00 -0.640217442E+00
   H -0.437437343E+02 -0.244198908E+01 -0.591727529E+01
   H  0.425335566E+02 -0.387974879E+01  0.598949670E+01
     4
 # iter = 75000  time[fs]=75.00000
   C -0.900674918E+01  0.292644911E+00  0.562016932E+00
   C  0.886545042E+01  0.427312721E+00 -0.646790258E+00
   H -0.441470781E+02 -0.246464769E+01 -0.597231222E+01
   H  0.429254088E+02 -0.391580001E+01  0.604565723E+01
     4
 # iter = 75500  time[fs]=75.50000
   C -0.909500710E+01  0.295201021E+00  0.567975633E+00
   C  0.895196302E+01  0.431341583E+00 -0.653366717E+00
   H -0.445505094E+02 -0.248731209E+01 -0.602736289E+01
   H  0.433173535E+02 -0.395186128E+01  0.610183324E+01
     4
 # iter = 76000  time[fs]=76.00000
   C -0.918330412E+01  0.297757355E+00  0.573937766E+00
   C  0.903851430E+01  0.435371519E+00 -0.659946751E+00
   H -0.449540265E+02 -0.250998218E+01 -0.608242706E+01
   H  0.437093889E+02 -0.398793243E+01  0.615802445E+01
     4
 # iter = 76500  time[fs]=76.50000
   C -0.927163948E+01  0.300313908E+00  0.579903270E+00
   C  0.912510353E+01  0.439402511E+00 -0.666530296E+00
   H -0.453576279E+02 -0.253265786E+01 -0.613750448E+01
   H  0.441015134E+02 -0.402401328E+01  0.621423061E+01
     4
 # iter = 77000  time[fs]=77.00000
   C -0.936001244E+01  0.302870676E+00  0.585872084E+00
   C  0.921172997E+01  0.443434539E+00 -0.673117289E+00
   H -0.457613122E+02 -0.255533903E+01 -0.619259495E+01
   H  0.444937255E+02 -0.406010367E+01  0.627045145E+01
     4
 # iter = 77500  time[fs]=77.50000
   C -0.944842231E+01  0.305427656E+00  0.591844147E+00
   C  0.929839293E+01  0.447467586E+00 -0.679707667E+00
   H -0.461650778E+02 -0.257802560E+01 -0.624769822E+01
   H  0.448860236E+02 -0.409620343E+01  0.632668674E+01
     4
 # iter = 78000  time[fs]=78.00000
   C -0.953686839E+01  0.307984844E+00  0.597819404E+00
   C  0.938509172E+01  0.451501635E+00 -0.686301371E+00
   H -0.465689234E+02 -0.260071748E+01 -0.630281408E+01
   H  0.452784063E+02 -0.413231240E+01  0.638293621E+01
     4
 # iter = 78500  time[fs]=78.50000
   C -0.962535001E+01  0.310542237E+00  0.603797796E+00
   C  0.947182568E+01  0.455536668E+00 -0.692898342E+00
   H -0.469728477E+02 -0.262341456E+01 -0.635794232E+01
   H  0.456708721E+02 -0.416843042E+01  0.643919963E+01
     4
 # iter = 79000  time[fs]=79.00000
   C -0.971386651E+01  0.313099832E+00  0.609779271E+00
   C  0.955859415E+01  0.459572668E+00 -0.699498524E+00
   H -0.473768492E+02 -0.264611678E+01 -0.641308274E+01
   H  0.460634195E+02 -0.420455734E+01  0.649547677E+01
     4
 # iter = 79500  time[fs]=79.50000
   C -0.980241727E+01  0.315657625E+00  0.615763773E+00
   C  0.964539651E+01  0.463609620E+00 -0.706101860E+00
   H -0.477809267E+02 -0.266882403E+01 -0.646823512E+01
   H  0.464560473E+02 -0.424069303E+01  0.655176740E+01
     4
 # iter = 80000  time[fs]=80.00000
   C -0.989100165E+01  0.318215612E+00  0.621751251E+00
   C  0.973223214E+01  0.467647507E+00 -0.712708297E+00
   H -0.481850789E+02 -0.269153624E+01 -0.652339928E+01
   H  0.468487540E+02 -0.427683732E+01  0.660807131E+01
