     4
 # iter = 25000  time[fs]=25.00000
   C -0.987431107E+00  0.187501641E-01 -0.478911860E-01
   C  0.100538181E+01 -0.322975199E-01  0.436100105E-03
   H -0.528810720E+01 -0.572230224E+00  0.197544324E+00
   H  0.540689714E+01  0.616616830E+00  0.372674605E+00
     4
 # iter = 25500  time[fs]=25.50000
   C -0.103448001E+01  0.189692299E-01 -0.514676808E-01
   C  0.104775344E+01 -0.355389689E-01 -0.130332053E-02
   H -0.562813567E+01 -0.617429436E+00  0.202816501E+00
   H  0.571243464E+01  0.647628940E+00  0.386422853E+00
     4
 # iter = 26000  time[fs]=26.00000
   C -0.108407847E+01  0.179054365E-01 -0.564158887E-01
   C  0.109072530E+01 -0.394540951E-01 -0.365100415E-02
   H -0.597619517E+01 -0.668348712E+00  0.202793487E+00
   H  0.601511412E+01  0.673558643E+00  0.394945098E+00
     4
 # iter = 26500  time[fs]=26.50000
   C -0.113217058E+01  0.195131112E-01 -0.587735492E-01
   C  0.113606278E+01 -0.421722501E-01 -0.474124543E-02
   H -0.631589755E+01 -0.708866464E+00  0.213547475E+00
   H  0.633077781E+01  0.710470397E+00  0.414319309E+00
     4
 # iter = 27000  time[fs]=27.00000
   C -0.117847245E+01  0.239851168E-01 -0.583410018E-01
   C  0.118376848E+01 -0.435982590E-01 -0.448334376E-02
   H -0.664619961E+01 -0.738157184E+00  0.235863854E+00
   H  0.665999422E+01  0.759131960E+00  0.445325485E+00
     4
 # iter = 27500  time[fs]=27.50000
   C -0.122584973E+01  0.283743900E-01 -0.580594551E-01
   C  0.123237411E+01 -0.451190121E-01 -0.426823350E-02
   H -0.697886539E+01 -0.768164079E+00  0.257766564E+00
   H  0.699058230E+01  0.807541714E+00  0.475973132E+00
     4
 # iter = 28000  time[fs]=28.00000
   C -0.127631409E+01  0.305952351E-01 -0.600093641E-01
   C  0.128082486E+01 -0.477153003E-01 -0.508039094E-02
   H -0.732218675E+01 -0.807333645E+00  0.270780792E+00
   H  0.731389175E+01  0.847204027E+00  0.497776270E+00
     4
 # iter = 28500  time[fs]=28.50000
   C -0.132895772E+01  0.314873753E-01 -0.633461968E-01
   C  0.132945125E+01 -0.509878744E-01 -0.652394786E-02
   H -0.767258474E+01 -0.852224862E+00  0.278322284E+00
   H  0.763319854E+01  0.881524783E+00  0.514148925E+00
     4
 # iter = 29000  time[fs]=29.00000
   C -0.138165509E+01  0.331140977E-01 -0.660022881E-01
   C  0.137916646E+01 -0.539603742E-01 -0.762564030E-02
   H -0.802152570E+01 -0.894426238E+00  0.288780140E+00
   H  0.795677588E+01  0.918888542E+00  0.533482669E+00
     4
 # iter = 29500  time[fs]=29.50000
   C -0.143363849E+01  0.361867537E-01 -0.672623745E-01
   C  0.143025198E+01 -0.562944131E-01 -0.804990234E-02
   H -0.836599015E+01 -0.931024239E+00  0.305048509E+00
   H  0.828741123E+01  0.962182036E+00  0.558670521E+00
     4
 # iter = 30000  time[fs]=30.00000
   C -0.148585892E+01  0.397034736E-01 -0.681248434E-01
   C  0.148218676E+01 -0.584600353E-01 -0.826934461E-02
   H -0.870993920E+01 -0.966071511E+00  0.323058017E+00
   H  0.862093373E+01  0.100732431E+01  0.585637259E+00
     4
 # iter = 30500  time[fs]=30.50000
   C -0.153938734E+01  0.425470744E-01 -0.697037362E-01
   C  0.153439988E+01 -0.609819091E-01 -0.881098014E-02
   H -0.905781567E+01 -0.100409147E+01  0.338270541E+00
   H  0.895271384E+01  0.104976618E+01  0.609838850E+00
     4
 # iter = 31000  time[fs]=31.00000
   C -0.159419841E+01  0.447005824E-01 -0.720131549E-01
   C  0.158684306E+01 -0.638659001E-01 -0.968282650E-02
   H -0.940960037E+01 -0.104513720E+01  0.350619792E+00
   H  0.928260738E+01  0.108943435E+01  0.631206565E+00
     4
 # iter = 31500  time[fs]=31.50000
   C -0.164952699E+01  0.468903947E-01 -0.743240710E-01
   C  0.163982200E+01 -0.667673597E-01 -0.105422131E-01
   H -0.976226119E+01 -0.108624168E+01  0.363060902E+00
   H  0.961350265E+01  0.112927988E+01  0.652695509E+00
     4
 # iter = 32000  time[fs]=32.00000
   C -0.170488772E+01  0.495664321E-01 -0.761841651E-01
   C  0.169351521E+01 -0.694721723E-01 -0.111768407E-01
   H -0.101138979E+02 -0.112556298E+01  0.377425140E+00
   H  0.994717020E+01  0.117112974E+01  0.676136338E+00
     4
 # iter = 32500  time[fs]=32.50000
   C -0.176044053E+01  0.525363951E-01 -0.777835547E-01
   C  0.174780134E+01 -0.720692759E-01 -0.116773149E-01
   H -0.104652282E+02 -0.116387080E+01  0.392933288E+00
   H  0.102827739E+02  0.121419911E+01  0.700747544E+00
     4
 # iter = 33000  time[fs]=33.00000
   C -0.181655104E+01  0.554050248E-01 -0.795155056E-01
   C  0.180246592E+01 -0.747434722E-01 -0.122299716E-01
   H -0.108178008E+02 -0.120276087E+01  0.407981070E+00
   H  0.106186571E+02  0.125687791E+01  0.724922124E+00
     4
 # iter = 33500  time[fs]=33.50000
   C -0.187330837E+01  0.580559642E-01 -0.814945440E-01
   C  0.185742833E+01 -0.775481358E-01 -0.128896007E-01
   H -0.111720365E+02 -0.124269619E+01  0.422097725E+00
   H  0.109543022E+02  0.129869082E+01  0.748187531E+00
     4
 # iter = 34000  time[fs]=34.00000
   C -0.193052011E+01  0.606565486E-01 -0.835516483E-01
   C  0.191274379E+01 -0.804029378E-01 -0.135771813E-01
   H -0.115272071E+02 -0.128298745E+01  0.435965485E+00
   H  0.112903498E+02  0.134031672E+01  0.771225148E+00
     4
 # iter = 34500  time[fs]=34.50000
   C -0.198799951E+01  0.633704257E-01 -0.855216168E-01
   C  0.196846764E+01 -0.832293784E-01 -0.142154226E-01
   H -0.118826040E+02 -0.132296107E+01  0.450251488E+00
   H  0.116274290E+02  0.138241967E+01  0.794701370E+00
     4
 # iter = 35000  time[fs]=35.00000
   C -0.204572869E+01  0.661941458E-01 -0.874064666E-01
   C  0.202457819E+01 -0.860278529E-01 -0.148058399E-01
   H -0.122382012E+02 -0.136262333E+01  0.464943581E+00
   H  0.119654926E+02  0.142498428E+01  0.818602922E+00
     4
 # iter = 35500  time[fs]=35.50000
   C -0.210378272E+01  0.690329715E-01 -0.892996125E-01
   C  0.208101222E+01 -0.888418945E-01 -0.153930038E-01
   H -0.125943473E+02 -0.140235215E+01  0.479658462E+00
   H  0.123041245E+02  0.146762399E+01  0.842545207E+00
     4
 # iter = 36000  time[fs]=36.00000
   C -0.216219520E+01  0.718350721E-01 -0.912516611E-01
   C  0.213772814E+01 -0.916948765E-01 -0.160012513E-01
   H -0.129512195E+02 -0.144235159E+01  0.494187133E+00
   H  0.126430859E+02  0.151012692E+01  0.866318132E+00
     4
 # iter = 36500  time[fs]=36.50000
   C -0.222092752E+01  0.746222036E-01 -0.932397207E-01
   C  0.219472034E+01 -0.945755357E-01 -0.166202149E-01
   H -0.133086984E+02 -0.148252710E+01  0.508619609E+00
   H  0.129824393E+02  0.155258059E+01  0.890010899E+00
     4
 # iter = 37000  time[fs]=37.00000
   C -0.227992528E+01  0.774330783E-01 -0.952240244E-01
   C  0.225199237E+01 -0.974646745E-01 -0.172315311E-01
   H -0.136665981E+02 -0.152271564E+01  0.523114740E+00
   H  0.133223186E+02  0.159514161E+01  0.913781659E+00
     4
 # iter = 37500  time[fs]=37.50000
   C -0.233916479E+01  0.802768370E-01 -0.971944507E-01
   C  0.230953488E+01 -0.100357100E+00 -0.178307842E-01
   H -0.140248551E+02 -0.156287477E+01  0.537711096E+00
   H  0.136627388E+02  0.163784639E+01  0.937668260E+00
     4
 # iter = 38000  time[fs]=38.00000
   C -0.239864781E+01  0.831381715E-01 -0.991653947E-01
   C  0.236732793E+01 -0.103259203E+00 -0.184250912E-01
   H -0.143835072E+02 -0.160306178E+01  0.552347798E+00
   H  0.140036173E+02  0.168063200E+01  0.961609078E+00
     4
 # iter = 38500  time[fs]=38.50000
   C -0.245837493E+01  0.860038716E-01 -0.101149215E+00
   C  0.242535347E+01 -0.106176438E+00 -0.190205829E-01
   H -0.147425854E+02 -0.164332577E+01  0.566972421E+00
   H  0.143448815E+02  0.172344407E+01  0.985551004E+00
     4
 # iter = 39000  time[fs]=39.00000
   C -0.251833435E+01  0.888739673E-01 -0.103145086E+00
   C  0.248360050E+01 -0.109108059E+00 -0.196171485E-01
   H -0.151020684E+02 -0.168366234E+01  0.581586288E+00
   H  0.146865140E+02  0.176628218E+01  0.100949475E+01
     4
 # iter = 39500  time[fs]=39.50000
   C -0.257850919E+01  0.917543405E-01 -0.105146383E+00
   C  0.254206147E+01 -0.112050604E+00 -0.202119199E-01
   H -0.154619127E+02 -0.172404356E+01  0.596214444E+00
   H  0.150285223E+02  0.180916973E+01  0.103346483E+01
     4
 # iter = 40000  time[fs]=40.00000
   C -0.263888656E+01  0.946475925E-01 -0.107149809E+00
   C  0.260072801E+01 -0.115002199E+00 -0.208035794E-01
   H -0.158220894E+02 -0.176445511E+01  0.610868542E+00
   H  0.153709018E+02  0.185211686E+01  0.105747235E+01
     4
 # iter = 40500  time[fs]=40.50000
   C -0.269945858E+01  0.975519576E-01 -0.109156475E+00
   C  0.265959028E+01 -0.117963065E+00 -0.213928712E-01
   H -0.161825885E+02 -0.180490063E+01  0.625542425E+00
   H  0.157136311E+02  0.189511597E+01  0.108151068E+01
     4
 # iter = 41000  time[fs]=41.00000
   C -0.276021867E+01  0.100465001E+00 -0.111168205E+00
   C  0.271863868E+01 -0.120933774E+00 -0.219808581E-01
   H -0.165434040E+02 -0.184538672E+01  0.640227167E+00
   H  0.160566870E+02  0.193815676E+01  0.110557040E+01
     4
 # iter = 41500  time[fs]=41.50000
   C -0.282115914E+01  0.103385936E+00 -0.113185211E+00
   C  0.277786495E+01 -0.123914154E+00 -0.225678295E-01
   H -0.169045241E+02 -0.188591346E+01  0.654920483E+00
   H  0.164000538E+02  0.198123569E+01  0.112964880E+01
     4
 # iter = 42000  time[fs]=42.00000
   C -0.288227169E+01  0.106315095E+00 -0.115206617E+00
   C  0.283726179E+01 -0.126903531E+00 -0.231535481E-01
   H -0.172659332E+02 -0.192647657E+01  0.669624602E+00
   H  0.167437213E+02  0.202435380E+01  0.115374770E+01
     4
 # iter = 42500  time[fs]=42.50000
   C -0.294354864E+01  0.109252668E+00 -0.117231725E+00
   C  0.289682232E+01 -0.129901330E+00 -0.237378475E-01
   H -0.176276175E+02 -0.196707252E+01  0.684341124E+00
   H  0.170876792E+02  0.206751157E+01  0.117786831E+01
     4
 # iter = 43000  time[fs]=43.00000
   C -0.300498328E+01  0.112198321E+00 -0.119260389E+00
   C  0.295653981E+01 -0.132907247E+00 -0.243208118E-01
   H -0.179895658E+02 -0.200770008E+01  0.699069473E+00
   H  0.174319158E+02  0.211070736E+01  0.120200970E+01
     4
 # iter = 43500  time[fs]=43.50000
   C -0.306656948E+01  0.115151540E+00 -0.121292668E+00
   C  0.301640781E+01 -0.135921087E+00 -0.249026111E-01
   H -0.183517685E+02 -0.204835887E+01  0.713808313E+00
   H  0.177764194E+02  0.215393884E+01  0.122617018E+01
     4
 # iter = 44000  time[fs]=44.00000
   C -0.312830132E+01  0.118111959E+00 -0.123328502E+00
   C  0.307642033E+01 -0.138942610E+00 -0.254833499E-01
   H -0.187142160E+02 -0.208904806E+01  0.728556862E+00
   H  0.181211793E+02  0.219720429E+01  0.125034865E+01
     4
 # iter = 44500  time[fs]=44.50000
   C -0.319017311E+01  0.121079360E+00 -0.125367704E+00
   C  0.313657175E+01 -0.141971525E+00 -0.260630642E-01
   H -0.190768989E+02 -0.212976634E+01  0.743314913E+00
   H  0.184661861E+02  0.224050260E+01  0.127454460E+01
     4
 # iter = 45000  time[fs]=45.00000
   C -0.325217945E+01  0.124053552E+00 -0.127410080E+00
   C  0.319685676E+01 -0.145007548E+00 -0.266417800E-01
   H -0.194398081E+02 -0.217051241E+01  0.758082336E+00
   H  0.188114307E+02  0.228383281E+01  0.129875760E+01
     4
 # iter = 45500  time[fs]=45.50000
   C -0.331431526E+01  0.127034312E+00 -0.129455494E+00
   C  0.325727034E+01 -0.148050430E+00 -0.272195415E-01
   H -0.198029351E+02 -0.221128521E+01  0.772858831E+00
   H  0.191569047E+02  0.232719382E+01  0.132298709E+01
     4
 # iter = 46000  time[fs]=46.00000
   C -0.337657577E+01  0.130021399E+00 -0.131503839E+00
   C  0.331780772E+01 -0.151099946E+00 -0.277964019E-01
   H -0.201662722E+02 -0.225208384E+01  0.787644013E+00
   H  0.195025996E+02  0.237058449E+01  0.134723240E+01
     4
 # iter = 46500  time[fs]=46.50000
   C -0.343895645E+01  0.133014591E+00 -0.133555014E+00
   C  0.337846438E+01 -0.154155880E+00 -0.283724093E-01
   H -0.205298119E+02 -0.229290743E+01  0.802437532E+00
   H  0.198485078E+02  0.241400374E+01  0.137149296E+01
     4
 # iter = 47000  time[fs]=47.00000
   C -0.350145300E+01  0.136013687E+00 -0.135608909E+00
   C  0.343923604E+01 -0.157218022E+00 -0.289476031E-01
   H -0.208935470E+02 -0.233375511E+01  0.817239105E+00
   H  0.201946218E+02  0.245745061E+01  0.139576825E+01
     4
 # iter = 47500  time[fs]=47.50000
   C -0.356406134E+01  0.139018498E+00 -0.137665419E+00
   C  0.350011864E+01 -0.160286168E+00 -0.295220192E-01
   H -0.212574710E+02 -0.237462605E+01  0.832048473E+00
   H  0.205409346E+02  0.250092421E+01  0.142005777E+01
     4
 # iter = 48000  time[fs]=48.00000
   C -0.362677757E+01  0.142028843E+00 -0.139724446E+00
   C  0.356110832E+01 -0.163360125E+00 -0.300956920E-01
   H -0.216215772E+02 -0.241551946E+01  0.846865383E+00
   H  0.208874397E+02  0.254442364E+01  0.144436107E+01
     4
 # iter = 48500  time[fs]=48.50000
   C -0.368959802E+01  0.145044545E+00 -0.141785899E+00
   C  0.362220141E+01 -0.166439712E+00 -0.306686551E-01
   H -0.219858598E+02 -0.245643460E+01  0.861689585E+00
   H  0.212341306E+02  0.258794808E+01  0.146867769E+01
     4
 # iter = 49000  time[fs]=49.00000
   C -0.375251918E+01  0.148065437E+00 -0.143849693E+00
   C  0.368339444E+01 -0.169524754E+00 -0.312409399E-01
   H -0.223503129E+02 -0.249737076E+01  0.876520839E+00
   H  0.215810015E+02  0.263149674E+01  0.149300721E+01
     4
 # iter = 49500  time[fs]=49.50000
   C -0.381553771E+01  0.151091359E+00 -0.145915745E+00
   C  0.374468407E+01 -0.172615084E+00 -0.318125760E-01
   H -0.227149310E+02 -0.253832729E+01  0.891358921E+00
   H  0.219280464E+02  0.267506884E+01  0.151734921E+01
     4
 # iter = 50000  time[fs]=50.00000
   C -0.387865042E+01  0.154122158E+00 -0.147983978E+00
   C  0.380606715E+01 -0.175710543E+00 -0.323835908E-01
   H -0.230797088E+02 -0.257930352E+01  0.906203617E+00
   H  0.222752600E+02  0.271866366E+01  0.154170330E+01
     4
 # iter = 50500  time[fs]=50.50000
   C -0.394185430E+01  0.157157689E+00 -0.150054318E+00
   C  0.386754067E+01 -0.178810977E+00 -0.329540105E-01
   H -0.234446414E+02 -0.262029886E+01  0.921054725E+00
   H  0.226226371E+02  0.276228053E+01  0.156606913E+01
     4
 # iter = 51000  time[fs]=51.00000
   C -0.400514644E+01  0.160197812E+00 -0.152126694E+00
   C  0.392910174E+01 -0.181916241E+00 -0.335238596E-01
   H -0.238097241E+02 -0.266131272E+01  0.935912049E+00
   H  0.229701726E+02  0.280591877E+01  0.159044632E+01
     4
 # iter = 51500  time[fs]=51.50000
   C -0.406852409E+01  0.163242392E+00 -0.154201039E+00
   C  0.399074764E+01 -0.185026195E+00 -0.340931614E-01
   H -0.241749521E+02 -0.270234455E+01  0.950775403E+00
   H  0.233178619E+02  0.284957775E+01  0.161483455E+01
     4
 # iter = 52000  time[fs]=52.00000
   C -0.413198461E+01  0.166291302E+00 -0.156277289E+00
   C  0.405247573E+01 -0.188140704E+00 -0.346619380E-01
   H -0.245403213E+02 -0.274339380E+01  0.965644610E+00
   H  0.236657003E+02  0.289325688E+01  0.163923349E+01
     4
 # iter = 52500  time[fs]=52.50000
   C -0.419552548E+01  0.169344419E+00 -0.158355384E+00
   C  0.411428352E+01 -0.191259641E+00 -0.352302101E-01
   H -0.249058274E+02 -0.278445998E+01  0.980519498E+00
   H  0.240136835E+02  0.293695557E+01  0.166364283E+01
     4
 # iter = 53000  time[fs]=53.00000
   C -0.425914429E+01  0.172401624E+00 -0.160435266E+00
   C  0.417616860E+01 -0.194382881E+00 -0.357979975E-01
   H -0.252714665E+02 -0.282554259E+01  0.995399906E+00
   H  0.243618074E+02  0.298067328E+01  0.168806227E+01
     4
 # iter = 53500  time[fs]=53.50000
   C -0.432283873E+01  0.175462805E+00 -0.162516879E+00
   C  0.423812869E+01 -0.197510306E+00 -0.363653188E-01
   H -0.256372347E+02 -0.286664117E+01  0.101028568E+01
   H  0.247100680E+02  0.302440946E+01  0.171249154E+01
     4
 # iter = 54000  time[fs]=54.00000
   C -0.438660660E+01  0.178527854E+00 -0.164600171E+00
   C  0.430016160E+01 -0.200641802E+00 -0.369321918E-01
   H -0.260031285E+02 -0.290775527E+01  0.102517666E+01
   H  0.250584613E+02  0.306816362E+01  0.173693035E+01
     4
 # iter = 54500  time[fs]=54.50000
   C -0.445044577E+01  0.181596665E+00 -0.166685091E+00
   C  0.436226522E+01 -0.203777261E+00 -0.374986332E-01
   H -0.263691442E+02 -0.294888446E+01  0.104007272E+01
   H  0.254069839E+02  0.311193527E+01  0.176137845E+01
     4
 # iter = 55000  time[fs]=55.00000
   C -0.451435424E+01  0.184669138E+00 -0.168771590E+00
   C  0.442443754E+01 -0.206916576E+00 -0.380646590E-01
   H -0.267352786E+02 -0.299002834E+01  0.105497370E+01
   H  0.257556321E+02  0.315572393E+01  0.178583558E+01
     4
 # iter = 55500  time[fs]=55.50000
   C -0.457833004E+01  0.187745178E+00 -0.170859622E+00
   C  0.448667663E+01 -0.210059648E+00 -0.386302845E-01
   H -0.271015284E+02 -0.303118650E+01  0.106987949E+01
   H  0.261044026E+02  0.319952915E+01  0.181030150E+01
     4
 # iter = 56000  time[fs]=56.00000
   C -0.464237132E+01  0.190824691E+00 -0.172949143E+00
   C  0.454898064E+01 -0.213206379E+00 -0.391955239E-01
   H -0.274678906E+02 -0.307235857E+01  0.108478995E+01
   H  0.264532922E+02  0.324335051E+01  0.183477599E+01
     4
 # iter = 56500  time[fs]=56.50000
   C -0.470647628E+01  0.193907588E+00 -0.175040112E+00
   C  0.461134779E+01 -0.216356675E+00 -0.397603911E-01
   H -0.278343621E+02 -0.311354418E+01  0.109970497E+01
   H  0.268022977E+02  0.328718759E+01  0.185925882E+01
     4
 # iter = 57000  time[fs]=57.00000
   C -0.477064321E+01  0.196993784E+00 -0.177132486E+00
   C  0.467377636E+01 -0.219510446E+00 -0.403248992E-01
   H -0.282009402E+02 -0.315474298E+01  0.111462442E+01
   H  0.271514161E+02  0.333103999E+01  0.188374978E+01
     4
 # iter = 57500  time[fs]=57.50000
   C -0.483487044E+01  0.200083195E+00 -0.179226227E+00
   C  0.473626472E+01 -0.222667606E+00 -0.408890604E-01
   H -0.285676221E+02 -0.319595464E+01  0.112954819E+01
   H  0.275006445E+02  0.337490732E+01  0.190824866E+01
     4
 # iter = 58000  time[fs]=58.00000
   C -0.489915640E+01  0.203175741E+00 -0.181321297E+00
   C  0.479881130E+01 -0.225828071E+00 -0.414528869E-01
   H -0.289344051E+02 -0.323717884E+01  0.114447617E+01
   H  0.278499802E+02  0.341878921E+01  0.193275526E+01
     4
 # iter = 58500  time[fs]=58.50000
   C -0.496349954E+01  0.206271346E+00 -0.183417662E+00
   C  0.486141456E+01 -0.228991760E+00 -0.420163898E-01
   H -0.293012867E+02 -0.327841525E+01  0.115940827E+01
   H  0.281994205E+02  0.346268531E+01  0.195726939E+01
     4
 # iter = 59000  time[fs]=59.00000
   C -0.502789841E+01  0.209369936E+00 -0.185515285E+00
   C  0.492407306E+01 -0.232158595E+00 -0.425795799E-01
   H -0.296682644E+02 -0.331966359E+01  0.117434437E+01
   H  0.285489629E+02  0.350659527E+01  0.198179087E+01
     4
 # iter = 59500  time[fs]=59.50000
   C -0.509235158E+01  0.212471439E+00 -0.187614134E+00
   C  0.498678538E+01 -0.235328502E+00 -0.431424677E-01
   H -0.300353360E+02 -0.336092355E+01  0.118928438E+01
   H  0.288986048E+02  0.355051876E+01  0.200631953E+01
     4
 # iter = 60000  time[fs]=60.00000
   C -0.515685770E+01  0.215575786E+00 -0.189714178E+00
   C  0.504955017E+01 -0.238501408E+00 -0.437050628E-01
   H -0.304024990E+02 -0.340219487E+01  0.120422821E+01
   H  0.292483438E+02  0.359445546E+01  0.203085518E+01
     4
 # iter = 60500  time[fs]=60.50000
   C -0.522141544E+01  0.218682911E+00 -0.191815384E+00
   C  0.511236613E+01 -0.241677242E+00 -0.442673749E-01
   H -0.307697514E+02 -0.344347727E+01  0.121917577E+01
   H  0.295981777E+02  0.363840507E+01  0.205539767E+01
     4
 # iter = 61000  time[fs]=61.00000
   C -0.528602353E+01  0.221792748E+00 -0.193917725E+00
   C  0.517523200E+01 -0.244855938E+00 -0.448294128E-01
   H -0.311370911E+02 -0.348477049E+01  0.123412697E+01
   H  0.299481042E+02  0.368236727E+01  0.207994683E+01
     4
 # iter = 61500  time[fs]=61.50000
   C -0.535068076E+01  0.224905236E+00 -0.196021171E+00
   C  0.523814656E+01 -0.248037430E+00 -0.453911853E-01
   H -0.315045159E+02 -0.352607428E+01  0.124908172E+01
   H  0.302981212E+02  0.372634179E+01  0.210450252E+01
     4
 # iter = 62000  time[fs]=62.00000
   C -0.541538595E+01  0.228020315E+00 -0.198125695E+00
   C  0.530110865E+01 -0.251221655E+00 -0.459527005E-01
   H -0.318720239E+02 -0.356738839E+01  0.126403995E+01
   H  0.306482266E+02  0.377032834E+01  0.212906457E+01
     4
 # iter = 62500  time[fs]=62.50000
   C -0.548013796E+01  0.231137926E+00 -0.200231270E+00
   C  0.536411713E+01 -0.254408551E+00 -0.465139664E-01
   H -0.322396133E+02 -0.360871261E+01  0.127900158E+01
   H  0.309984184E+02  0.381432666E+01  0.215363286E+01
     4
 # iter = 63000  time[fs]=63.00000
   C -0.554493569E+01  0.234258013E+00 -0.202337871E+00
   C  0.542717091E+01 -0.257598060E+00 -0.470749906E-01
   H -0.326072821E+02 -0.365004669E+01  0.129396652E+01
   H  0.313486946E+02  0.385833648E+01  0.217820725E+01
     4
 # iter = 63500  time[fs]=63.50000
   C -0.560977807E+01  0.237380521E+00 -0.204445474E+00
   C  0.549026895E+01 -0.260790125E+00 -0.476357803E-01
   H -0.329750286E+02 -0.369139042E+01  0.130893472E+01
   H  0.316990534E+02  0.390235756E+01  0.220278758E+01
     4
 # iter = 64000  time[fs]=64.00000
   C -0.567466409E+01  0.240505399E+00 -0.206554055E+00
   C  0.555341022E+01 -0.263984690E+00 -0.481963425E-01
   H -0.333428510E+02 -0.373274358E+01  0.132390609E+01
   H  0.320494930E+02  0.394638965E+01  0.222737375E+01
     4
 # iter = 64500  time[fs]=64.50000
   C -0.573959275E+01  0.243632595E+00 -0.208663591E+00
   C  0.561659374E+01 -0.267181701E+00 -0.487566839E-01
   H -0.337107478E+02 -0.377410598E+01  0.133888057E+01
   H  0.324000116E+02  0.399043252E+01  0.225196562E+01
     4
 # iter = 65000  time[fs]=65.00000
   C -0.580456309E+01  0.246762059E+00 -0.210774059E+00
   C  0.567981856E+01 -0.270381106E+00 -0.493168109E-01
   H -0.340787173E+02 -0.381547742E+01  0.135385808E+01
   H  0.327506076E+02  0.403448593E+01  0.227656307E+01
     4
 # iter = 65500  time[fs]=65.50000
   C -0.586957419E+01  0.249893744E+00 -0.212885439E+00
   C  0.574308375E+01 -0.273582856E+00 -0.498767297E-01
   H -0.344467580E+02 -0.385685770E+01  0.136883858E+01
   H  0.331012791E+02  0.407854967E+01  0.230116598E+01
     4
 # iter = 66000  time[fs]=66.00000
   C -0.593462515E+01  0.253027603E+00 -0.214997710E+00
   C  0.580638844E+01 -0.276786902E+00 -0.504364463E-01
   H -0.348148683E+02 -0.389824663E+01  0.138382199E+01
   H  0.334520248E+02  0.412262352E+01  0.232577424E+01
     4
 # iter = 66500  time[fs]=66.50000
   C -0.599971509E+01  0.256163591E+00 -0.217110852E+00
   C  0.586973175E+01 -0.279993195E+00 -0.509959662E-01
   H -0.351830468E+02 -0.393964405E+01  0.139880825E+01
   H  0.338028430E+02  0.416670728E+01  0.235038773E+01
     4
 # iter = 67000  time[fs]=67.00000
   C -0.606484319E+01  0.259301665E+00 -0.219224845E+00
   C  0.593311285E+01 -0.283201691E+00 -0.515552951E-01
   H -0.355512920E+02 -0.398104976E+01  0.141379731E+01
   H  0.341537323E+02  0.421080073E+01  0.237500636E+01
     4
 # iter = 67500  time[fs]=67.50000
   C -0.613000861E+01  0.262441782E+00 -0.221339671E+00
   C  0.599653094E+01 -0.286412344E+00 -0.521144382E-01
   H -0.359196026E+02 -0.402246361E+01  0.142878911E+01
   H  0.345046911E+02  0.425490370E+01  0.239963001E+01
     4
 # iter = 68000  time[fs]=68.00000
   C -0.619521059E+01  0.265583902E+00 -0.223455312E+00
   C  0.605998523E+01 -0.289625112E+00 -0.526734005E-01
   H -0.362879773E+02 -0.406388543E+01  0.144378359E+01
   H  0.348557181E+02  0.429901598E+01  0.242425859E+01
     4
 # iter = 68500  time[fs]=68.50000
   C -0.626044834E+01  0.268727984E+00 -0.225571751E+00
   C  0.612347496E+01 -0.292839952E+00 -0.532321869E-01
   H -0.366564148E+02 -0.410531505E+01  0.145878071E+01
   H  0.352068120E+02  0.434313739E+01  0.244889200E+01
     4
 # iter = 69000  time[fs]=69.00000
   C -0.632572113E+01  0.271873989E+00 -0.227688970E+00
   C  0.618699940E+01 -0.296056825E+00 -0.537908022E-01
   H -0.370249138E+02 -0.414675234E+01  0.147378040E+01
   H  0.355579713E+02  0.438726776E+01  0.247353014E+01
     4
 # iter = 69500  time[fs]=69.50000
   C -0.639102824E+01  0.275021880E+00 -0.229806952E+00
   C  0.625055783E+01 -0.299275690E+00 -0.543492509E-01
   H -0.373934731E+02 -0.418819713E+01  0.148878261E+01
   H  0.359091949E+02  0.443140691E+01  0.249817292E+01
     4
 # iter = 70000  time[fs]=70.00000
   C -0.645636897E+01  0.278171621E+00 -0.231925683E+00
   C  0.631414957E+01 -0.302496508E+00 -0.549075373E-01
   H -0.377620915E+02 -0.422964927E+01  0.150378731E+01
   H  0.362604814E+02  0.447555467E+01  0.252282025E+01
     4
 # iter = 70500  time[fs]=70.50000
   C -0.652174265E+01  0.281323176E+00 -0.234045147E+00
   C  0.637777393E+01 -0.305719244E+00 -0.554656658E-01
   H -0.381307680E+02 -0.427110864E+01  0.151879444E+01
   H  0.366118297E+02  0.451971089E+01  0.254747205E+01
     4
 # iter = 71000  time[fs]=71.00000
   C -0.658714861E+01  0.284476510E+00 -0.236165328E+00
   C  0.644143028E+01 -0.308943859E+00 -0.560236402E-01
   H -0.384995012E+02 -0.431257509E+01  0.153380395E+01
   H  0.369632385E+02  0.456387539E+01  0.257212822E+01
     4
 # iter = 71500  time[fs]=71.50000
   C -0.665258623E+01  0.287631591E+00 -0.238286212E+00
   C  0.650511797E+01 -0.312170320E+00 -0.565814647E-01
   H -0.388682903E+02 -0.435404849E+01  0.154881581E+01
   H  0.373147068E+02  0.460804803E+01  0.259678869E+01
     4
 # iter = 72000  time[fs]=72.00000
   C -0.671805487E+01  0.290788384E+00 -0.240407786E+00
   C  0.656883639E+01 -0.315398591E+00 -0.571391429E-01
   H -0.392371341E+02 -0.439552870E+01  0.156382996E+01
   H  0.376662334E+02  0.465222865E+01  0.262145338E+01
     4
 # iter = 72500  time[fs]=72.50000
   C -0.678355395E+01  0.293946860E+00 -0.242530035E+00
   C  0.663258495E+01 -0.318628640E+00 -0.576966785E-01
   H -0.396060316E+02 -0.443701560E+01  0.157884636E+01
   H  0.380178172E+02  0.469641712E+01  0.264612221E+01
     4
 # iter = 73000  time[fs]=73.00000
   C -0.684908286E+01  0.297106986E+00 -0.244652946E+00
   C  0.669636307E+01 -0.321860433E+00 -0.582540750E-01
   H -0.399749819E+02 -0.447850908E+01  0.159386498E+01
   H  0.383694572E+02  0.474061328E+01  0.267079511E+01
     4
 # iter = 73500  time[fs]=73.50000
   C -0.691464106E+01  0.300268734E+00 -0.246776506E+00
   C  0.676017018E+01 -0.325093940E+00 -0.588113359E-01
   H -0.403439839E+02 -0.452000900E+01  0.160888577E+01
   H  0.387211524E+02  0.478481700E+01  0.269547199E+01
     4
 # iter = 74000  time[fs]=74.00000
   C -0.698022797E+01  0.303432073E+00 -0.248900703E+00
   C  0.682400573E+01 -0.328329130E+00 -0.593684645E-01
   H -0.407130367E+02 -0.456151526E+01  0.162390870E+01
   H  0.390729018E+02  0.482902814E+01  0.272015279E+01
     4
 # iter = 74500  time[fs]=74.50000
   C -0.704584308E+01  0.306596975E+00 -0.251025525E+00
   C  0.688786919E+01 -0.331565971E+00 -0.599254638E-01
   H -0.410821395E+02 -0.460302774E+01  0.163893372E+01
   H  0.394247043E+02  0.487324658E+01  0.274483745E+01
     4
 # iter = 75000  time[fs]=75.00000
   C -0.711148584E+01  0.309763412E+00 -0.253150960E+00
   C  0.695176005E+01 -0.334804437E+00 -0.604823372E-01
   H -0.414512912E+02 -0.464454632E+01  0.165396080E+01
   H  0.397765591E+02  0.491747217E+01  0.276952588E+01
     4
 # iter = 75500  time[fs]=75.50000
   C -0.717715576E+01  0.312931358E+00 -0.255276996E+00
   C  0.701567779E+01 -0.338044497E+00 -0.610390874E-01
   H -0.418204911E+02 -0.468607091E+01  0.166898991E+01
   H  0.401284652E+02  0.496170482E+01  0.279421803E+01
     4
 # iter = 76000  time[fs]=76.00000
   C -0.724285234E+01  0.316100786E+00 -0.257403622E+00
   C  0.707962194E+01 -0.341286124E+00 -0.615957174E-01
   H -0.421897383E+02 -0.472760140E+01  0.168402100E+01
   H  0.404804218E+02  0.500594437E+01  0.281891383E+01
     4
 # iter = 76500  time[fs]=76.50000
   C -0.730857511E+01  0.319271671E+00 -0.259530827E+00
   C  0.714359200E+01 -0.344529292E+00 -0.621522300E-01
   H -0.425590320E+02 -0.476913769E+01  0.169905405E+01
   H  0.408324279E+02  0.505019073E+01  0.284361322E+01
     4
 # iter = 77000  time[fs]=77.00000
   C -0.737432358E+01  0.322443988E+00 -0.261658601E+00
   C  0.720758753E+01 -0.347773974E+00 -0.627086279E-01
   H -0.429283713E+02 -0.481067967E+01  0.171408901E+01
   H  0.411844827E+02  0.509444378E+01  0.286831614E+01
     4
 # iter = 77500  time[fs]=77.50000
   C -0.744009730E+01  0.325617712E+00 -0.263786933E+00
   C  0.727160806E+01 -0.351020144E+00 -0.632649138E-01
   H -0.432977556E+02 -0.485222725E+01  0.172912587E+01
   H  0.415365855E+02  0.513870340E+01  0.289302252E+01
     4
 # iter = 78000  time[fs]=78.00000
   C -0.750589584E+01  0.328792819E+00 -0.265915814E+00
   C  0.733565315E+01 -0.354267777E+00 -0.638210900E-01
   H -0.436671840E+02 -0.489378034E+01  0.174416458E+01
   H  0.418887353E+02  0.518296948E+01  0.291773232E+01
     4
 # iter = 78500  time[fs]=78.50000
   C -0.757171875E+01  0.331969287E+00 -0.268045233E+00
   C  0.739972238E+01 -0.357516850E+00 -0.643771592E-01
   H -0.440366558E+02 -0.493533885E+01  0.175920511E+01
   H  0.422409314E+02  0.522724193E+01  0.294244546E+01
     4
 # iter = 79000  time[fs]=79.00000
   C -0.763756561E+01  0.335147093E+00 -0.270175182E+00
   C  0.746381532E+01 -0.360767338E+00 -0.649331237E-01
   H -0.444061703E+02 -0.497690268E+01  0.177424745E+01
   H  0.425931731E+02  0.527152062E+01  0.296716191E+01
     4
 # iter = 79500  time[fs]=79.50000
   C -0.770343602E+01  0.338326215E+00 -0.272305650E+00
   C  0.752793158E+01 -0.364019217E+00 -0.654889858E-01
   H -0.447757267E+02 -0.501847175E+01  0.178929154E+01
   H  0.429454595E+02  0.531580547E+01  0.299188160E+01
     4
 # iter = 80000  time[fs]=80.00000
   C -0.776932956E+01  0.341506631E+00 -0.274436630E+00
   C  0.759207074E+01 -0.367272466E+00 -0.660447477E-01
   H -0.451453245E+02 -0.506004597E+01  0.180433738E+01
   H  0.432977900E+02  0.536009636E+01  0.301660448E+01
