     4
 # iter = 25000  time[fs]=25.00000
   C -0.970242527E+00  0.192486641E-01 -0.501028140E-01
   C  0.100286583E+01  0.249435420E-01 -0.413216644E-01
   H -0.526608110E+01  0.283224644E+00  0.345271575E+00
   H  0.533058433E+01  0.327605896E+00 -0.389006701E+00
     4
 # iter = 25500  time[fs]=25.50000
   C -0.101517385E+01  0.171830823E-01 -0.532423006E-01
   C  0.104321303E+01  0.223644848E-01 -0.428766338E-01
   H -0.560761616E+01  0.290911686E+00  0.361674733E+00
   H  0.564358722E+01  0.337881936E+00 -0.421430620E+00
     4
 # iter = 26000  time[fs]=26.00000
   C -0.106384684E+01  0.142988046E-01 -0.572036734E-01
   C  0.108530173E+01  0.186092953E-01 -0.455514249E-01
   H -0.595966671E+01  0.293446157E+00  0.373073707E+00
   H  0.595696141E+01  0.343102333E+00 -0.459696011E+00
     4
 # iter = 26500  time[fs]=26.50000
   C -0.111366752E+01  0.129572287E-01 -0.596277105E-01
   C  0.113233244E+01  0.171150612E-01 -0.459121330E-01
   H -0.630556296E+01  0.306876718E+00  0.395500482E+00
   H  0.628618780E+01  0.359321064E+00 -0.487667915E+00
     4
 # iter = 27000  time[fs]=27.00000
   C -0.116429455E+01  0.132777351E-01 -0.603967298E-01
   C  0.118425485E+01  0.180536630E-01 -0.437900321E-01
   H -0.664402245E+01  0.331974827E+00  0.429712728E+00
   H  0.663152139E+01  0.387301414E+00 -0.504511029E+00
     4
 # iter = 27500  time[fs]=27.50000
   C -0.121727103E+01  0.135082874E-01 -0.612640521E-01
   C  0.123830871E+01  0.188713624E-01 -0.417419769E-01
   H -0.698660445E+01  0.356757844E+00  0.463716332E+00
   H  0.698050817E+01  0.415041609E+00 -0.522162842E+00
     4
 # iter = 28000  time[fs]=28.00000
   C -0.127364475E+01  0.124095255E-01 -0.634699356E-01
   C  0.129249771E+01  0.177615488E-01 -0.415774592E-01
   H -0.734142435E+01  0.372744661E+00  0.489020241E+00
   H  0.732426352E+01  0.434045679E+00 -0.549064025E+00
     4
 # iter = 28500  time[fs]=28.50000
   C -0.133273981E+01  0.104844621E-01 -0.665119348E-01
   C  0.134738110E+01  0.154561392E-01 -0.425671347E-01
   H -0.770475074E+01  0.383341744E+00  0.509022066E+00
   H  0.766586382E+01  0.447717220E+00 -0.581764452E+00
     4
 # iter = 29000  time[fs]=29.00000
   C -0.139316835E+01  0.896472701E-02 -0.691587389E-01
   C  0.140459562E+01  0.137486438E-01 -0.429198455E-01
   H -0.806791749E+01  0.396928208E+00  0.532093079E+00
   H  0.801341020E+01  0.464437853E+00 -0.611842601E+00
     4
 # iter = 29500  time[fs]=29.50000
   C -0.145436200E+01  0.827647023E-02 -0.709843398E-01
   C  0.146461892E+01  0.132590220E-01 -0.420178728E-01
   H -0.842778882E+01  0.416390758E+00  0.561113157E+00
   H  0.836953916E+01  0.487092365E+00 -0.636378268E+00
     4
 # iter = 30000  time[fs]=30.00000
   C -0.151678562E+01  0.782517851E-02 -0.725832623E-01
   C  0.152645484E+01  0.131201621E-01 -0.407304797E-01
   H -0.878822309E+01  0.437655449E+00  0.592002429E+00
   H  0.872994627E+01  0.511599030E+00 -0.659421295E+00
     4
 # iter = 30500  time[fs]=30.50000
   C -0.158098523E+01  0.694739836E-02 -0.746188664E-01
   C  0.158901923E+01  0.123646608E-01 -0.400270942E-01
   H -0.915357245E+01  0.456180469E+00  0.620213849E+00
   H  0.908988404E+01  0.533408245E+00 -0.685492880E+00
     4
 # iter = 31000  time[fs]=31.00000
   C -0.164686344E+01  0.563470741E-02 -0.770993992E-01
   C  0.165219388E+01  0.109797468E-01 -0.399223587E-01
   H -0.952373789E+01  0.471895212E+00  0.645672127E+00
   H  0.944910438E+01  0.552446057E+00 -0.714641940E+00
     4
 # iter = 31500  time[fs]=31.50000
   C -0.171389072E+01  0.432124736E-02 -0.795904841E-01
   C  0.171651575E+01  0.959762568E-02 -0.397857970E-01
   H -0.989561668E+01  0.487750150E+00  0.671323516E+00
   H  0.981040369E+01  0.571662672E+00 -0.743896117E+00
     4
 # iter = 32000  time[fs]=32.00000
   C -0.178171143E+01  0.327639781E-02 -0.818224688E-01
   C  0.178229081E+01  0.861042253E-02 -0.392268983E-01
   H -0.102672454E+02  0.505572543E+00  0.698991496E+00
   H  0.101754706E+02  0.592884373E+00 -0.771409249E+00
     4
 # iter = 32500  time[fs]=32.50000
   C -0.185036045E+01  0.238697152E-02 -0.839082432E-01
   C  0.184927566E+01  0.785278301E-02 -0.384125329E-01
   H -0.106392848E+02  0.524580164E+00  0.727890458E+00
   H  0.105433954E+02  0.615325867E+00 -0.797948623E+00
     4
 # iter = 33000  time[fs]=33.00000
   C -0.192000094E+01  0.141879442E-02 -0.860816699E-01
   C  0.191705792E+01  0.698309428E-02 -0.376857318E-01
   H -0.110132326E+02  0.543166259E+00  0.756410604E+00
   H  0.109124553E+02  0.637376808E+00 -0.825108263E+00
     4
 # iter = 33500  time[fs]=33.50000
   C -0.199063667E+01  0.303660943E-03 -0.884106349E-01
   C  0.198547374E+01  0.590167804E-02 -0.371474932E-01
   H -0.113894631E+02  0.560857621E+00  0.784075970E+00
   H  0.112820733E+02  0.658561602E+00 -0.853348997E+00
     4
 # iter = 34000  time[fs]=34.00000
   C -0.206210850E+01 -0.857793560E-03 -0.907941807E-01
   C  0.205461119E+01  0.475496017E-02 -0.366526182E-01
   H -0.117672071E+02  0.578334006E+00  0.811563799E+00
   H  0.116528363E+02  0.679558830E+00 -0.881978878E+00
     4
 # iter = 34500  time[fs]=34.50000
   C -0.213426485E+01 -0.196720358E-02 -0.931336224E-01
   C  0.212456035E+01  0.368608005E-02 -0.360591104E-01
   H -0.121457181E+02  0.596260280E+00  0.839536671E+00
   H  0.120253248E+02  0.701032323E+00 -0.910321902E+00
     4
 # iter = 35000  time[fs]=35.00000
   C -0.220705838E+01 -0.302577123E-02 -0.954298485E-01
   C  0.219527087E+01  0.269308411E-02 -0.353699911E-01
   H -0.125249360E+02  0.614622354E+00  0.867978409E+00
   H  0.123994474E+02  0.722966493E+00 -0.938382526E+00
     4
 # iter = 35500  time[fs]=35.50000
   C -0.228050039E+01 -0.408912255E-02 -0.977381794E-01
   C  0.226661732E+01  0.169472233E-02 -0.346675073E-01
   H -0.129051782E+02  0.633035239E+00  0.896502120E+00
   H  0.127747477E+02  0.744974641E+00 -0.966537239E+00
     4
 # iter = 36000  time[fs]=36.00000
   C -0.235458048E+01 -0.518739710E-02 -0.100088459E+00
   C  0.233851522E+01  0.646913645E-03 -0.339966715E-01
   H -0.132865933E+02  0.651288368E+00  0.924895485E+00
   H  0.131509501E+02  0.766844752E+00 -0.994988687E+00
     4
 # iter = 36500  time[fs]=36.50000
   C -0.242924790E+01 -0.630697238E-02 -0.102466778E+00
   C  0.241094730E+01 -0.430622225E-03 -0.333386333E-01
   H -0.136690357E+02  0.669470256E+00  0.953245410E+00
   H  0.135280837E+02  0.788664259E+00 -0.102364082E+01
     4
 # iter = 37000  time[fs]=37.00000
   C -0.250444491E+01 -0.742417728E-02 -0.104849192E+00
   C  0.248391397E+01 -0.150350584E-02 -0.326598260E-01
   H -0.140522957E+02  0.687738352E+00  0.981707862E+00
   H  0.139062512E+02  0.810589681E+00 -0.105232918E+01
     4
 # iter = 37500  time[fs]=37.50000
   C -0.258013420E+01 -0.853299135E-02 -0.107229417E+00
   C  0.255739270E+01 -0.256307176E-02 -0.319523445E-01
   H -0.144362877E+02  0.706129962E+00  0.101031878E+01
   H  0.142854395E+02  0.832657363E+00 -0.108101009E+01
     4
 # iter = 38000  time[fs]=38.00000
   C -0.265629552E+01 -0.964199165E-02 -0.109615778E+00
   C  0.263134219E+01 -0.362191918E-02 -0.312295002E-01
   H -0.148210292E+02  0.724583054E+00  0.103901486E+01
   H  0.146655397E+02  0.854804300E+00 -0.110973976E+01
     4
 # iter = 38500  time[fs]=38.50000
   C -0.273290967E+01 -0.107585430E-01 -0.112015401E+00
   C  0.270572513E+01 -0.469086989E-02 -0.305027823E-01
   H -0.152065324E+02  0.743044139E+00  0.106774144E+01
   H  0.150464552E+02  0.876976098E+00 -0.113856627E+01
     4
 # iter = 39000  time[fs]=39.00000
   C -0.280995164E+01 -0.118821605E-01 -0.114427570E+00
   C  0.278051772E+01 -0.576929516E-02 -0.297721882E-01
   H -0.155927588E+02  0.761513542E+00  0.109649776E+01
   H  0.154281462E+02  0.899172290E+00 -0.116748425E+01
     4
 # iter = 39500  time[fs]=39.50000
   C -0.288739481E+01 -0.130089053E-01 -0.116848129E+00
   C  0.285570302E+01 -0.685152436E-02 -0.290326346E-01
   H -0.159796487E+02  0.780015378E+00  0.112530692E+01
   H  0.158105996E+02  0.921416269E+00 -0.119646486E+01
     4
 # iter = 40000  time[fs]=40.00000
   C -0.296521621E+01 -0.141368198E-01 -0.119274913E+00
   C  0.293126289E+01 -0.793476771E-02 -0.282818839E-01
   H -0.163671584E+02  0.798560434E+00  0.115417875E+01
   H  0.161937917E+02  0.943718141E+00 -0.122549291E+01
     4
 # iter = 40500  time[fs]=40.50000
   C -0.304339703E+01 -0.152665724E-01 -0.121708392E+00
   C  0.300717688E+01 -0.902005673E-02 -0.275214867E-01
   H -0.167552640E+02  0.817141752E+00  0.118310544E+01
   H  0.165776831E+02  0.966070294E+00 -0.125457129E+01
     4
 # iter = 41000  time[fs]=41.00000
   C -0.312192025E+01 -0.163992530E-01 -0.124149468E+00
   C  0.308342532E+01 -0.101090320E-01 -0.267535720E-01
   H -0.171439465E+02  0.835749658E+00  0.121207646E+01
   H  0.169622341E+02  0.988462442E+00 -0.128370584E+01
     4
 # iter = 41500  time[fs]=41.50000
   C -0.320076918E+01 -0.175349935E-01 -0.126598095E+00
   C  0.315999120E+01 -0.112019326E-01 -0.259788393E-01
   H -0.175331819E+02  0.854381168E+00  0.124108808E+01
   H  0.173474136E+02  0.101089103E+01 -0.131289597E+01
     4
 # iter = 42000  time[fs]=42.00000
   C -0.327992763E+01 -0.186732776E-01 -0.129053586E+00
   C  0.323685960E+01 -0.122980488E-01 -0.251970125E-01
   H -0.179229438E+02  0.873037854E+00  0.127014114E+01
   H  0.177331968E+02  0.103335710E+01 -0.134213676E+01
     4
 # iter = 42500  time[fs]=42.50000
   C -0.335938055E+01 -0.198136931E-01 -0.131515366E+00
   C  0.331401653E+01 -0.133968185E-01 -0.244079389E-01
   H -0.183132075E+02  0.891720704E+00  0.129923595E+01
   H  0.181195600E+02  0.105586113E+01 -0.137142407E+01
     4
 # iter = 43000  time[fs]=43.00000
   C -0.343911423E+01 -0.209561584E-01 -0.133983202E+00
   C  0.339144847E+01 -0.144981576E-01 -0.236119212E-01
   H -0.187039520E+02  0.910428563E+00  0.132837072E+01
   H  0.185064788E+02  0.107840151E+01 -0.140075609E+01
     4
 # iter = 43500  time[fs]=43.50000
   C -0.351911592E+01 -0.221007124E-01 -0.136456985E+00
   C  0.346914262E+01 -0.156021554E-01 -0.228094140E-01
   H -0.190951586E+02  0.929159557E+00  0.135754298E+01
   H  0.188939297E+02  0.110097590E+01 -0.143013191E+01
     4
 # iter = 44000  time[fs]=44.00000
   C -0.359937365E+01 -0.232473232E-01 -0.138936544E+00
   C  0.354708707E+01 -0.167087946E-01 -0.220007456E-01
   H -0.194868090E+02  0.947912391E+00  0.138675086E+01
   H  0.192818909E+02  0.112358261E+01 -0.145955022E+01
     4
 # iter = 44500  time[fs]=44.50000
   C -0.367987612E+01 -0.243958828E-01 -0.141421639E+00
   C  0.362527082E+01 -0.178179445E-01 -0.211861125E-01
   H -0.198788856E+02  0.966686381E+00  0.141599316E+01
   H  0.196703424E+02  0.114622054E+01 -0.148900922E+01
     4
 # iter = 45000  time[fs]=45.00000
   C -0.376061270E+01 -0.255462801E-01 -0.143912032E+00
   C  0.370368354E+01 -0.189294679E-01 -0.203656877E-01
   H -0.202713715E+02  0.985480944E+00  0.144526879E+01
   H  0.200592654E+02  0.116888874E+01 -0.151850716E+01
     4
 # iter = 45500  time[fs]=45.50000
   C -0.384157345E+01 -0.266984363E-01 -0.146407525E+00
   C  0.378231548E+01 -0.200432723E-01 -0.195396725E-01
   H -0.206642511E+02  0.100429535E+01  0.147457655E+01
   H  0.204486420E+02  0.119158613E+01 -0.154804255E+01
     4
 # iter = 46000  time[fs]=46.00000
   C -0.392274904E+01 -0.278522921E-01 -0.148907944E+00
   C  0.386115746E+01 -0.211592919E-01 -0.187082802E-01
   H -0.210575098E+02  0.102312882E+01  0.150391520E+01
   H  0.208384553E+02  0.121431159E+01 -0.157761411E+01
     4
 # iter = 46500  time[fs]=46.50000
   C -0.400413067E+01 -0.290077889E-01 -0.151413120E+00
   C  0.394020086E+01 -0.222774602E-01 -0.178717092E-01
   H -0.214511338E+02  0.104198062E+01  0.153328359E+01
   H  0.212286892E+02  0.123706406E+01 -0.160722059E+01
     4
 # iter = 47000  time[fs]=47.00000
   C -0.408571004E+01 -0.301648648E-01 -0.153922889E+00
   C  0.401943756E+01 -0.233977046E-01 -0.170301386E-01
   H -0.218451098E+02  0.106085009E+01  0.156268067E+01
   H  0.216193284E+02  0.125984261E+01 -0.163686075E+01
     4
 # iter = 47500  time[fs]=47.50000
   C -0.416747934E+01 -0.313234595E-01 -0.156437090E+00
   C  0.409885988E+01 -0.245199532E-01 -0.161837358E-01
   H -0.222394253E+02  0.107973666E+01  0.159210545E+01
   H  0.220103588E+02  0.128264634E+01 -0.166653343E+01
     4
 # iter = 48000  time[fs]=48.00000
   C -0.424943117E+01 -0.324835171E-01 -0.158955573E+00
   C  0.417846059E+01 -0.256441392E-01 -0.153326621E-01
   H -0.226340684E+02  0.109863972E+01  0.162155700E+01
   H  0.224017665E+02  0.130547441E+01 -0.169623751E+01
     4
 # iter = 48500  time[fs]=48.50000
   C -0.433155858E+01 -0.336449860E-01 -0.161478195E+00
   C  0.425823287E+01 -0.267702013E-01 -0.144770731E-01
   H -0.230290280E+02  0.111755873E+01  0.165103442E+01
   H  0.227935387E+02  0.132832600E+01 -0.172597194E+01
     4
 # iter = 49000  time[fs]=49.00000
   C -0.441385494E+01 -0.348078174E-01 -0.164004821E+00
   C  0.433817025E+01 -0.278980809E-01 -0.136171171E-01
   H -0.234242933E+02  0.113649316E+01  0.168053685E+01
   H  0.231856631E+02  0.135120033E+01 -0.175573574E+01
     4
 # iter = 49500  time[fs]=49.50000
   C -0.449631403E+01 -0.359719647E-01 -0.166535323E+00
   C  0.441826660E+01 -0.290277216E-01 -0.127529347E-01
   H -0.238198542E+02  0.115544250E+01  0.171006346E+01
   H  0.235781280E+02  0.137409666E+01 -0.178552796E+01
     4
 # iter = 50000  time[fs]=50.00000
   C -0.457892992E+01 -0.371373831E-01 -0.169069576E+00
   C  0.449851613E+01 -0.301590692E-01 -0.118846601E-01
   H -0.242157010E+02  0.117440627E+01  0.173961350E+01
   H  0.239709223E+02  0.139701429E+01 -0.181534769E+01
     4
 # iter = 50500  time[fs]=50.50000
   C -0.466169699E+01 -0.383040305E-01 -0.171607462E+00
   C  0.457891334E+01 -0.312920721E-01 -0.110124214E-01
   H -0.246118246E+02  0.119338403E+01  0.176918622E+01
   H  0.243640353E+02  0.141995256E+01 -0.184519407E+01
     4
 # iter = 51000  time[fs]=51.00000
   C -0.474460992E+01 -0.394718667E-01 -0.174148869E+00
   C  0.465945302E+01 -0.324266811E-01 -0.101363409E-01
   H -0.250082161E+02  0.121237532E+01  0.179878091E+01
   H  0.247574569E+02  0.144291082E+01 -0.187506627E+01
     4
 # iter = 51500  time[fs]=51.50000
   C -0.482766365E+01 -0.406408534E-01 -0.176693688E+00
   C  0.474013021E+01 -0.335628490E-01 -0.925653570E-02
   H -0.254048672E+02  0.123137975E+01  0.182839690E+01
   H  0.251511776E+02  0.146588847E+01 -0.190496352E+01
     4
 # iter = 52000  time[fs]=52.00000
   C -0.491085337E+01 -0.418109542E-01 -0.179241819E+00
   C  0.482094021E+01 -0.347005307E-01 -0.837311771E-02
   H -0.258017698E+02  0.125039691E+01  0.185803355E+01
   H  0.255451881E+02  0.148888492E+01 -0.193488506E+01
     4
 # iter = 52500  time[fs]=52.50000
   C -0.499417451E+01 -0.429821342E-01 -0.181793160E+00
   C  0.490187853E+01 -0.358396830E-01 -0.748619398E-02
   H -0.261989164E+02  0.126942642E+01  0.188769025E+01
   H  0.259394796E+02  0.151189961E+01 -0.196483017E+01
     4
 # iter = 53000  time[fs]=53.00000
   C -0.507762270E+01 -0.441543604E-01 -0.184347620E+00
   C  0.498294092E+01 -0.369802645E-01 -0.659586702E-02
   H -0.265962998E+02  0.128846792E+01  0.191736641E+01
   H  0.263340438E+02  0.153493202E+01 -0.199479816E+01
     4
 # iter = 53500  time[fs]=53.50000
   C -0.516119381E+01 -0.453276011E-01 -0.186905107E+00
   C  0.506412331E+01 -0.381222354E-01 -0.570223502E-02
   H -0.269939128E+02  0.130752106E+01  0.194706146E+01
   H  0.267288726E+02  0.155798163E+01 -0.202478839E+01
     4
 # iter = 54000  time[fs]=54.00000
   C -0.524488388E+01 -0.465018259E-01 -0.189465534E+00
   C  0.514542183E+01 -0.392655577E-01 -0.480539210E-02
   H -0.273917488E+02  0.132658552E+01  0.197677488E+01
   H  0.271239584E+02  0.158104795E+01 -0.205480022E+01
     4
 # iter = 54500  time[fs]=54.50000
   C -0.532868912E+01 -0.476770059E-01 -0.192028819E+00
   C  0.522683279E+01 -0.404101947E-01 -0.390542854E-02
   H -0.277898015E+02  0.134566097E+01  0.200650613E+01
   H  0.275192937E+02  0.160413052E+01 -0.208483304E+01
     4
 # iter = 55000  time[fs]=55.00000
   C -0.541260596E+01 -0.488531135E-01 -0.194594882E+00
   C  0.530835266E+01 -0.415561114E-01 -0.300243092E-02
   H -0.281880648E+02  0.136474711E+01  0.203625473E+01
   H  0.279148716E+02  0.162722889E+01 -0.211488629E+01
     4
 # iter = 55500  time[fs]=55.50000
   C -0.549663093E+01 -0.500301222E-01 -0.197163647E+00
   C  0.538997809E+01 -0.427032739E-01 -0.209648238E-02
   H -0.285865327E+02  0.138384364E+01  0.206602021E+01
   H  0.283106852E+02  0.165034263E+01 -0.214495939E+01
     4
 # iter = 56000  time[fs]=56.00000
   C -0.558076076E+01 -0.512080064E-01 -0.199735041E+00
   C  0.547170585E+01 -0.438516498E-01 -0.118766276E-02
   H -0.289851997E+02  0.140295029E+01  0.209580210E+01
   H  0.287067281E+02  0.167347132E+01 -0.217505183E+01
     4
 # iter = 56500  time[fs]=56.50000
   C -0.566499230E+01 -0.523867420E-01 -0.202308992E+00
   C  0.555353288E+01 -0.450012079E-01 -0.276048786E-03
   H -0.293840603E+02  0.142206679E+01  0.212559997E+01
   H  0.291029941E+02  0.169661457E+01 -0.220516309E+01
     4
 # iter = 57000  time[fs]=57.00000
   C -0.574932255E+01 -0.535663054E-01 -0.204885433E+00
   C  0.563545622E+01 -0.461519181E-01  0.638285793E-03
   H -0.297831093E+02  0.144119287E+01  0.215541341E+01
   H  0.294994771E+02  0.171977199E+01 -0.223529267E+01
     4
 # iter = 57500  time[fs]=57.50000
   C -0.583374861E+01 -0.547466744E-01 -0.207464299E+00
   C  0.571747306E+01 -0.473037516E-01  0.155527004E-02
   H -0.301823418E+02  0.146032828E+01  0.218524200E+01
   H  0.298961715E+02  0.174294321E+01 -0.226544011E+01
     4
 # iter = 58000  time[fs]=58.00000
   C -0.591826775E+01 -0.559278274E-01 -0.210045528E+00
   C  0.579958070E+01 -0.484566804E-01  0.247483569E-02
   H -0.305817531E+02  0.147947280E+01  0.221508536E+01
   H  0.302930718E+02  0.176612790E+01 -0.229560494E+01
     4
 # iter = 58500  time[fs]=58.50000
   C -0.600287730E+01 -0.571097436E-01 -0.212629059E+00
   C  0.588177656E+01 -0.496106777E-01  0.339691705E-02
   H -0.309813384E+02  0.149862618E+01  0.224494312E+01
   H  0.306901726E+02  0.178932570E+01 -0.232578673E+01
     4
 # iter = 59000  time[fs]=59.00000
   C -0.608757473E+01 -0.582924033E-01 -0.215214833E+00
   C  0.596405815E+01 -0.507657176E-01  0.432145083E-02
   H -0.313810933E+02  0.151778820E+01  0.227481490E+01
   H  0.310874688E+02  0.181253628E+01 -0.235598506E+01
     4
 # iter = 59500  time[fs]=59.50000
   C -0.617235761E+01 -0.594757874E-01 -0.217802795E+00
   C  0.604642309E+01 -0.519217751E-01  0.524837605E-02
   H -0.317810137E+02  0.153695866E+01  0.230470038E+01
   H  0.314849555E+02  0.183575934E+01 -0.238619953E+01
     4
 # iter = 60000  time[fs]=60.00000
   C -0.625722360E+01 -0.606598774E-01 -0.220392891E+00
   C  0.612886910E+01 -0.530788262E-01  0.617763395E-02
   H -0.321810953E+02  0.155613734E+01  0.233459921E+01
   H  0.318826279E+02  0.185899457E+01 -0.241642973E+01
     4
 # iter = 60500  time[fs]=60.50000
   C -0.634217045E+01 -0.618446556E-01 -0.222985069E+00
   C  0.621139399E+01 -0.542368476E-01  0.710916785E-02
   H -0.325813342E+02  0.157532404E+01  0.236451107E+01
   H  0.322804816E+02  0.188224168E+01 -0.244667529E+01
     4
 # iter = 61000  time[fs]=61.00000
   C -0.642719602E+01 -0.630301051E-01 -0.225579278E+00
   C  0.629399565E+01 -0.553958168E-01  0.804292308E-02
   H -0.329817266E+02  0.159451859E+01  0.239443566E+01
   H  0.326785121E+02  0.190550038E+01 -0.247693585E+01
     4
 # iter = 61500  time[fs]=61.50000
   C -0.651229821E+01 -0.642162093E-01 -0.228175471E+00
   C  0.637667204E+01 -0.565557122E-01  0.897884689E-02
   H -0.333822689E+02  0.161372078E+01  0.242437266E+01
   H  0.330767151E+02  0.192877040E+01 -0.250721106E+01
     4
 # iter = 62000  time[fs]=62.00000
   C -0.659747505E+01 -0.654029525E-01 -0.230773600E+00
   C  0.645942123E+01 -0.577165127E-01  0.991688833E-02
   H -0.337829574E+02  0.163293044E+01  0.245432180E+01
   H  0.334750867E+02  0.195205148E+01 -0.253750057E+01
     4
 # iter = 62500  time[fs]=62.50000
   C -0.668272462E+01 -0.665903194E-01 -0.233373621E+00
   C  0.654224133E+01 -0.588781982E-01  0.108569982E-01
   H -0.341837888E+02  0.165214740E+01  0.248428279E+01
   H  0.338736227E+02  0.197534336E+01 -0.256780407E+01
     4
 # iter = 63000  time[fs]=63.00000
   C -0.676804505E+01 -0.677782952E-01 -0.235975489E+00
   C  0.662513053E+01 -0.600407490E-01  0.117991290E-01
   H -0.345847597E+02  0.167137149E+01  0.251425536E+01
   H  0.342723195E+02  0.199864580E+01 -0.259812122E+01
     4
 # iter = 63500  time[fs]=63.50000
   C -0.685343457E+01 -0.689668657E-01 -0.238579163E+00
   C  0.670808711E+01 -0.612041461E-01  0.127432348E-01
   H -0.349858669E+02  0.169060256E+01  0.254423925E+01
   H  0.346711733E+02  0.202195857E+01 -0.262845172E+01
     4
 # iter = 64000  time[fs]=64.00000
   C -0.693889147E+01 -0.701560172E-01 -0.241184601E+00
   C  0.679110937E+01 -0.623683712E-01  0.136892711E-01
   H -0.353871074E+02  0.170984044E+01  0.257423422E+01
   H  0.350701806E+02  0.204528142E+01 -0.265879529E+01
     4
 # iter = 64500  time[fs]=64.50000
   C -0.702441410E+01 -0.713457365E-01 -0.243791765E+00
   C  0.687419571E+01 -0.635334066E-01  0.146371951E-01
   H -0.357884782E+02  0.172908499E+01  0.260424000E+01
   H  0.354693379E+02  0.206861415E+01 -0.268915163E+01
     4
 # iter = 65000  time[fs]=65.00000
   C -0.711000085E+01 -0.725360107E-01 -0.246400617E+00
   C  0.695734457E+01 -0.646992350E-01  0.155869650E-01
   H -0.361899764E+02  0.174833606E+01  0.263425638E+01
   H  0.358686420E+02  0.209195653E+01 -0.271952046E+01
     4
 # iter = 65500  time[fs]=65.50000
   C -0.719565018E+01 -0.737268275E-01 -0.249011118E+00
   C  0.704055444E+01 -0.658658397E-01  0.165385408E-01
   H -0.365915991E+02  0.176759350E+01  0.266428312E+01
   H  0.362680895E+02  0.211530835E+01 -0.274990151E+01
     4
 # iter = 66000  time[fs]=66.00000
   C -0.728136063E+01 -0.749181748E-01 -0.251623235E+00
   C  0.712382387E+01 -0.670332047E-01  0.174918835E-01
   H -0.369933437E+02  0.178685719E+01  0.269432000E+01
   H  0.366676773E+02  0.213866943E+01 -0.278029454E+01
     4
 # iter = 66500  time[fs]=66.50000
   C -0.736713074E+01 -0.761100411E-01 -0.254236931E+00
   C  0.720715147E+01 -0.682013141E-01  0.184469553E-01
   H -0.373952076E+02  0.180612700E+01  0.272436681E+01
   H  0.370674026E+02  0.216203955E+01 -0.281069928E+01
     4
 # iter = 67000  time[fs]=67.00000
   C -0.745295913E+01 -0.773024152E-01 -0.256852174E+00
   C  0.729053588E+01 -0.693701530E-01  0.194037197E-01
   H -0.377971883E+02  0.182540278E+01  0.275442333E+01
   H  0.374672623E+02  0.218541854E+01 -0.284111549E+01
     4
 # iter = 67500  time[fs]=67.50000
   C -0.753884448E+01 -0.784952861E-01 -0.259468932E+00
   C  0.737397578E+01 -0.705397064E-01  0.203621413E-01
   H -0.381992832E+02  0.184468443E+01  0.278448938E+01
   H  0.378672535E+02  0.220880620E+01 -0.287154293E+01
     4
 # iter = 68000  time[fs]=68.00000
   C -0.762478547E+01 -0.796886435E-01 -0.262087171E+00
   C  0.745746993E+01 -0.717099602E-01  0.213221857E-01
   H -0.386014900E+02  0.186397181E+01  0.281456474E+01
   H  0.382673737E+02  0.223220237E+01 -0.290198138E+01
     4
 # iter = 68500  time[fs]=68.50000
   C -0.771078086E+01 -0.808824771E-01 -0.264706863E+00
   C  0.754101709E+01 -0.728809005E-01  0.222838198E-01
   H -0.390038064E+02  0.188326482E+01  0.284464924E+01
   H  0.386676200E+02  0.225560686E+01 -0.293243061E+01
     4
 # iter = 69000  time[fs]=69.00000
   C -0.779682945E+01 -0.820767770E-01 -0.267327978E+00
   C  0.762461609E+01 -0.740525138E-01  0.232470111E-01
   H -0.394062302E+02  0.190256333E+01  0.287474269E+01
   H  0.390679900E+02  0.227901952E+01 -0.296289041E+01
     4
 # iter = 69500  time[fs]=69.50000
   C -0.788293005E+01 -0.832715336E-01 -0.269950486E+00
   C  0.770826578E+01 -0.752247870E-01  0.242117284E-01
   H -0.398087592E+02  0.192186725E+01  0.290484491E+01
   H  0.394684811E+02  0.230244018E+01 -0.299336057E+01
     4
 # iter = 70000  time[fs]=70.00000
   C -0.796908154E+01 -0.844667378E-01 -0.272574361E+00
   C  0.779196505E+01 -0.763977074E-01  0.251779412E-01
   H -0.402113913E+02  0.194117646E+01  0.293495572E+01
   H  0.398690910E+02  0.232586868E+01 -0.302384088E+01
     4
 # iter = 70500  time[fs]=70.50000
   C -0.805528282E+01 -0.856623804E-01 -0.275199574E+00
   C  0.787571284E+01 -0.775712627E-01  0.261456200E-01
   H -0.406141244E+02  0.196049086E+01  0.296507498E+01
   H  0.402698172E+02  0.234930487E+01 -0.305433114E+01
     4
 # iter = 71000  time[fs]=71.00000
   C -0.814153283E+01 -0.868584528E-01 -0.277826100E+00
   C  0.795950810E+01 -0.787454408E-01  0.271147363E-01
   H -0.410169566E+02  0.197981035E+01  0.299520250E+01
   H  0.406706574E+02  0.237274860E+01 -0.308483118E+01
     4
 # iter = 71500  time[fs]=71.50000
   C -0.822783053E+01 -0.880549465E-01 -0.280453913E+00
   C  0.804334983E+01 -0.799202303E-01  0.280852620E-01
   H -0.414198859E+02  0.199913483E+01  0.302533813E+01
   H  0.410716095E+02  0.239619974E+01 -0.311534079E+01
     4
 # iter = 72000  time[fs]=72.00000
   C -0.831417492E+01 -0.892518533E-01 -0.283082988E+00
   C  0.812723706E+01 -0.810956195E-01  0.290571703E-01
   H -0.418229105E+02  0.201846421E+01  0.305548171E+01
   H  0.414726713E+02  0.241965812E+01 -0.314585980E+01
     4
 # iter = 72500  time[fs]=72.50000
   C -0.840056505E+01 -0.904491651E-01 -0.285713302E+00
   C  0.821116883E+01 -0.822715977E-01  0.300304347E-01
   H -0.422260286E+02  0.203779840E+01  0.308563311E+01
   H  0.418738407E+02  0.244312363E+01 -0.317638803E+01
     4
 # iter = 73000  time[fs]=73.00000
   C -0.848699997E+01 -0.916468742E-01 -0.288344830E+00
   C  0.829514424E+01 -0.834481540E-01  0.310050297E-01
   H -0.426292383E+02  0.205713730E+01  0.311579216E+01
   H  0.422751157E+02  0.246659613E+01 -0.320692532E+01
     4
 # iter = 73500  time[fs]=73.50000
   C -0.857347877E+01 -0.928449731E-01 -0.290977551E+00
   C  0.837916240E+01 -0.846252779E-01  0.319809305E-01
   H -0.430325381E+02  0.207648083E+01  0.314595874E+01
   H  0.426764943E+02  0.249007549E+01 -0.323747148E+01
     4
 # iter = 74000  time[fs]=74.00000
   C -0.866000056E+01 -0.940434544E-01 -0.293611442E+00
   C  0.846322244E+01 -0.858029594E-01  0.329581130E-01
   H -0.434359261E+02  0.209582891E+01  0.317613270E+01
   H  0.430779746E+02  0.251356159E+01 -0.326802638E+01
     4
 # iter = 74500  time[fs]=74.50000
   C -0.874656450E+01 -0.952423110E-01 -0.296246481E+00
   C  0.854732353E+01 -0.869811885E-01  0.339365535E-01
   H -0.438394008E+02  0.211518145E+01  0.320631391E+01
   H  0.434795546E+02  0.253705430E+01 -0.329858983E+01
     4
 # iter = 75000  time[fs]=75.00000
   C -0.883316974E+01 -0.964415360E-01 -0.298882647E+00
   C  0.863146485E+01 -0.881599556E-01  0.349162293E-01
   H -0.442429607E+02  0.213453837E+01  0.323650224E+01
   H  0.438812326E+02  0.256055350E+01 -0.332916170E+01
     4
 # iter = 75500  time[fs]=75.50000
   C -0.891981548E+01 -0.976411226E-01 -0.301519921E+00
   C  0.871564562E+01 -0.893392513E-01  0.358971180E-01
   H -0.446466041E+02  0.215389959E+01  0.326669757E+01
   H  0.442830069E+02  0.258405908E+01 -0.335974184E+01
     4
 # iter = 76000  time[fs]=76.00000
   C -0.900650093E+01 -0.988410643E-01 -0.304158282E+00
   C  0.879986506E+01 -0.905190665E-01  0.368791980E-01
   H -0.450503295E+02  0.217326504E+01  0.329689976E+01
   H  0.446848756E+02  0.260757093E+01 -0.339033009E+01
     4
 # iter = 76500  time[fs]=76.50000
   C -0.909322533E+01 -0.100041355E+00 -0.306797711E+00
   C  0.888412244E+01 -0.916993923E-01  0.378624482E-01
   H -0.454541356E+02  0.219263464E+01  0.332710870E+01
   H  0.450868371E+02  0.263108894E+01 -0.342092631E+01
     4
 # iter = 77000  time[fs]=77.00000
   C -0.917998794E+01 -0.101241988E+00 -0.309438189E+00
   C  0.896841703E+01 -0.928802199E-01  0.388468480E-01
   H -0.458580209E+02  0.221200833E+01  0.335732428E+01
   H  0.454888898E+02  0.265461299E+01 -0.345153038E+01
     4
 # iter = 77500  time[fs]=77.50000
   C -0.926678804E+01 -0.102442957E+00 -0.312079698E+00
   C  0.905274813E+01 -0.940615409E-01  0.398323774E-01
   H -0.462619840E+02  0.223138602E+01  0.338754637E+01
   H  0.458910321E+02  0.267814300E+01 -0.348214214E+01
     4
 # iter = 78000  time[fs]=78.00000
   C -0.935362493E+01 -0.103644257E+00 -0.314722220E+00
   C  0.913711505E+01 -0.952433471E-01  0.408190169E-01
   H -0.466660236E+02  0.225076766E+01  0.341777487E+01
   H  0.462932624E+02  0.270167885E+01 -0.351276149E+01
     4
 # iter = 78500  time[fs]=78.50000
   C -0.944049791E+01 -0.104845881E+00 -0.317365737E+00
   C  0.922151712E+01 -0.964256303E-01  0.418067474E-01
   H -0.470701384E+02  0.227015318E+01  0.344800967E+01
   H  0.466955792E+02  0.272522044E+01 -0.354338827E+01
     4
 # iter = 79000  time[fs]=79.00000
   C -0.952740634E+01 -0.106047825E+00 -0.320010233E+00
   C  0.930595371E+01 -0.976083828E-01  0.427955504E-01
   H -0.474743270E+02  0.228954251E+01  0.347825066E+01
   H  0.470979811E+02  0.274876769E+01 -0.357402238E+01
     4
 # iter = 79500  time[fs]=79.50000
   C -0.961434957E+01 -0.107250083E+00 -0.322655691E+00
   C  0.939042418E+01 -0.987915969E-01  0.437854079E-01
   H -0.478785883E+02  0.230893558E+01  0.350849774E+01
   H  0.475004666E+02  0.277232049E+01 -0.360466369E+01
     4
 # iter = 80000  time[fs]=80.00000
   C -0.970132696E+01 -0.108452649E+00 -0.325302095E+00
   C  0.947492792E+01 -0.999752652E-01  0.447763022E-01
   H -0.482829210E+02  0.232833234E+01  0.353875081E+01
   H  0.479030343E+02  0.279587876E+01 -0.363531207E+01
