     4
 # iter = 25000  time[fs]=25.00000
   C -0.978549690E+00  0.225254675E-01 -0.777500718E-02
   C  0.972218100E+00  0.203118267E-01 -0.229690772E-01
   H -0.530846839E+01 -0.350319322E+00  0.558363484E+00
   H  0.524668655E+01 -0.265363470E+00 -0.426284508E+00
     4
 # iter = 25500  time[fs]=25.50000
   C -0.102403772E+01  0.239415775E-01 -0.100483670E-01
   C  0.101063920E+01  0.206506476E-01 -0.222727889E-01
   H -0.564364976E+01 -0.377190227E+00  0.586475927E+00
   H  0.555286048E+01 -0.288811359E+00 -0.458385004E+00
     4
 # iter = 26000  time[fs]=26.00000
   C -0.107350818E+01  0.244226571E-01 -0.132699533E-01
   C  0.105113209E+01  0.200503640E-01 -0.225352122E-01
   H -0.598685166E+01 -0.409649855E+00  0.609483469E+00
   H  0.585635003E+01 -0.317813578E+00 -0.496130013E+00
     4
 # iter = 26500  time[fs]=26.50000
   C -0.112387105E+01  0.268106889E-01 -0.146016454E-01
   C  0.109627002E+01  0.213301798E-01 -0.209293981E-01
   H -0.632168967E+01 -0.431587472E+00  0.643440950E+00
   H  0.617296676E+01 -0.336259739E+00 -0.523399853E+00
     4
 # iter = 27000  time[fs]=27.00000
   C -0.117475367E+01  0.312454930E-01 -0.139066271E-01
   C  0.114596106E+01  0.246278413E-01 -0.173114911E-01
   H -0.664712570E+01 -0.442189463E+00  0.689116598E+00
   H  0.650325814E+01 -0.343340019E+00 -0.539376577E+00
     4
 # iter = 27500  time[fs]=27.50000
   C -0.122805573E+01  0.356112561E-01 -0.133029537E-01
   C  0.119789233E+01  0.278427407E-01 -0.137773541E-01
   H -0.697493027E+01 -0.453411880E+00  0.734517186E+00
   H  0.683502947E+01 -0.351017362E+00 -0.556015988E+00
     4
 # iter = 28000  time[fs]=28.00000
   C -0.128507608E+01  0.384106849E-01 -0.142894238E-01
   C  0.125038224E+01  0.294884961E-01 -0.118097105E-01
   H -0.731340013E+01 -0.473711933E+00  0.771153518E+00
   H  0.715961913E+01 -0.367754230E+00 -0.581774400E+00
     4
 # iter = 28500  time[fs]=28.50000
   C -0.134503003E+01  0.402475968E-01 -0.162630782E-01
   C  0.130385124E+01  0.301643697E-01 -0.108065025E-01
   H -0.765895803E+01 -0.499655626E+00  0.802431106E+00
   H  0.748029174E+01 -0.390117612E+00 -0.613213567E+00
     4
 # iter = 29000  time[fs]=29.00000
   C -0.140627067E+01  0.426045683E-01 -0.177417104E-01
   C  0.135960814E+01  0.313419980E-01 -0.929400012E-02
   H -0.800307048E+01 -0.522836470E+00  0.836731236E+00
   H  0.780530994E+01 -0.409700073E+00 -0.641921535E+00
     4
 # iter = 29500  time[fs]=29.50000
   C -0.146813742E+01  0.459931000E-01 -0.182138534E-01
   C  0.141801333E+01  0.335293558E-01 -0.676270848E-02
   H -0.834271887E+01 -0.540346349E+00  0.876940190E+00
   H  0.813745291E+01 -0.423594193E+00 -0.664986887E+00
     4
 # iter = 30000  time[fs]=30.00000
   C -0.153121431E+01  0.496941281E-01 -0.183983614E-01
   C  0.147822008E+01  0.360131682E-01 -0.392483895E-02
   H -0.868186634E+01 -0.556244178E+00  0.918980199E+00
   H  0.847254383E+01 -0.435861769E+00 -0.686467838E+00
     4
 # iter = 30500  time[fs]=30.50000
   C -0.159618122E+01  0.529056864E-01 -0.190967957E-01
   C  0.153931231E+01  0.379979401E-01 -0.157517465E-02
   H -0.902495755E+01 -0.575059123E+00  0.958305500E+00
   H  0.880594826E+01 -0.451034788E+00 -0.710893188E+00
     4
 # iter = 31000  time[fs]=31.00000
   C -0.166293970E+01  0.556159318E-01 -0.203204383E-01
   C  0.160116969E+01  0.394724140E-01  0.275471538E-03
   H -0.937197388E+01 -0.596848493E+00  0.994843890E+00
   H  0.913751734E+01 -0.469171611E+00 -0.738318473E+00
     4
 # iter = 31500  time[fs]=31.50000
   C -0.173086811E+01  0.583468812E-01 -0.215466010E-01
   C  0.166421220E+01  0.409552112E-01  0.214595977E-02
   H -0.971988293E+01 -0.618648352E+00  0.103154588E+01
   H  0.947013488E+01 -0.487308156E+00 -0.765777098E+00
     4
 # iter = 32000  time[fs]=32.00000
   C -0.179955296E+01  0.614219657E-01 -0.224511164E-01
   C  0.172867218E+01  0.427678652E-01  0.435790197E-02
   H -0.100667843E+02 -0.638619758E+00  0.107023837E+01
   H  0.980556757E+01 -0.503605649E+00 -0.791428032E+00
     4
 # iter = 32500  time[fs]=32.50000
   C -0.186905051E+01  0.647033528E-01 -0.231710453E-01
   C  0.179433268E+01  0.447741040E-01  0.677498109E-02
   H -0.104133959E+02 -0.657535652E+00  0.111013765E+01
   H  0.101429762E+02 -0.518838074E+00 -0.816043214E+00
     4
 # iter = 33000  time[fs]=33.00000
   C -0.193957052E+01  0.679074172E-01 -0.239892236E-01
   C  0.186083962E+01  0.466929453E-01  0.911607888E-02
   H -0.107612670E+02 -0.676994895E+00  0.114963517E+01
   H  0.104807013E+02 -0.534605547E+00 -0.841220903E+00
     4
 # iter = 33500  time[fs]=33.50000
   C -0.201112931E+01  0.709508104E-01 -0.249882046E-01
   C  0.192804448E+01  0.484421659E-01  0.112987693E-01
   H -0.111108182E+02 -0.697463098E+00  0.118825652E+01
   H  0.108182230E+02 -0.551374436E+00 -0.867425783E+00
     4
 # iter = 34000  time[fs]=34.00000
   C -0.208354564E+01  0.739539079E-01 -0.260468214E-01
   C  0.199600698E+01  0.501417195E-01  0.134427565E-01
   H -0.114613213E+02 -0.718253074E+00  0.122668086E+01
   H  0.111561796E+02 -0.568457821E+00 -0.893969405E+00
     4
 # iter = 34500  time[fs]=34.50000
   C -0.215664642E+01  0.770344247E-01 -0.270465818E-01
   C  0.206478960E+01  0.519088996E-01  0.156650506E-01
   H -0.118120671E+02 -0.738693160E+00  0.126557253E+01
   H  0.114951982E+02 -0.585184267E+00 -0.920178938E+00
     4
 # iter = 35000  time[fs]=35.00000
   C -0.223038350E+01  0.801900590E-01 -0.279890312E-01
   C  0.213434059E+01  0.537418627E-01  0.179635026E-01
   H -0.121630295E+02 -0.758791533E+00  0.130491667E+01
   H  0.118352295E+02 -0.601562390E+00 -0.946061718E+00
     4
 # iter = 35500  time[fs]=35.50000
   C -0.230477871E+01  0.833529363E-01 -0.289413119E-01
   C  0.220454743E+01  0.555736633E-01  0.202708473E-01
   H -0.125145569E+02 -0.778927947E+00  0.134432738E+01
   H  0.121758560E+02 -0.617972484E+00 -0.971996864E+00
     4
 # iter = 36000  time[fs]=36.00000
   C -0.237982703E+01  0.864859843E-01 -0.299397911E-01
   C  0.227533211E+01  0.573679045E-01  0.225503619E-01
   H -0.128668264E+02 -0.799308112E+00  0.138359334E+01
   H  0.125168374E+02 -0.634620696E+00 -0.998189439E+00
     4
 # iter = 36500  time[fs]=36.50000
   C -0.245547416E+01  0.896049681E-01 -0.309680262E-01
   C  0.234667250E+01  0.591406096E-01  0.248177412E-01
   H -0.132197181E+02 -0.819838916E+00  0.142280246E+01
   H  0.128582349E+02 -0.651414204E+00 -0.102454563E+01
     4
 # iter = 37000  time[fs]=37.00000
   C -0.253165681E+01  0.927378218E-01 -0.319974341E-01
   C  0.241856174E+01  0.609198586E-01  0.271007393E-01
   H -0.135730459E+02 -0.840358636E+00  0.146211167E+01
   H  0.132001810E+02 -0.668191524E+00 -0.105090302E+01
     4
 # iter = 37500  time[fs]=37.50000
   C -0.260833583E+01  0.958912353E-01 -0.330207054E-01
   C  0.249097467E+01  0.627126270E-01  0.294060104E-01
   H -0.139267460E+02 -0.860826072E+00  0.150155775E+01
   H  0.135426897E+02 -0.684911716E+00 -0.107721982E+01
     4
 # iter = 38000  time[fs]=38.00000
   C -0.268549221E+01  0.990543328E-01 -0.340481250E-01
   C  0.256387128E+01  0.645084377E-01  0.317227628E-01
   H -0.142808557E+02 -0.881299693E+00  0.154107810E+01
   H  0.138856772E+02 -0.701633527E+00 -0.110355399E+01
     4
 # iter = 38500  time[fs]=38.50000
   C -0.276310780E+01  0.102217738E+00 -0.350885057E-01
   C  0.263721533E+01  0.662982842E-01  0.340416841E-01
   H -0.146354059E+02 -0.901829689E+00  0.158061872E+01
   H  0.142290701E+02 -0.718407398E+00 -0.112995523E+01
     4
 # iter = 39000  time[fs]=39.00000
   C -0.284115706E+01  0.105381579E+00 -0.361411856E-01
   C  0.271098210E+01  0.680825743E-01  0.363628849E-01
   H -0.149903750E+02 -0.922412645E+00  0.162017949E+01
   H  0.145728500E+02 -0.735230130E+00 -0.115641965E+01
     4
 # iter = 39500  time[fs]=39.50000
   C -0.291961217E+01  0.108550178E+00 -0.372013317E-01
   C  0.278515292E+01  0.698658647E-01  0.386906355E-01
   H -0.153457190E+02 -0.943021563E+00  0.165978407E+01
   H  0.149170237E+02 -0.752074915E+00 -0.118291981E+01
     4
 # iter = 40000  time[fs]=40.00000
   C -0.299844942E+01  0.111725497E+00 -0.382664974E-01
   C  0.285970848E+01  0.716503542E-01  0.410268581E-01
   H -0.157014089E+02 -0.963642974E+00  0.169944287E+01
   H  0.152615856E+02 -0.768928467E+00 -0.120944183E+01
     4
 # iter = 40500  time[fs]=40.50000
   C -0.307764981E+01  0.114906359E+00 -0.393374013E-01
   C  0.293462791E+01  0.734351095E-01  0.433703537E-01
   H -0.160574343E+02 -0.984281342E+00  0.173914851E+01
   H  0.156065138E+02 -0.785795421E+00 -0.123598978E+01
     4
 # iter = 41000  time[fs]=41.00000
   C -0.315719629E+01  0.118091100E+00 -0.404152696E-01
   C  0.300989126E+01  0.752187033E-01  0.457194398E-01
   H -0.164137888E+02 -0.100494401E+01  0.177889096E+01
   H  0.159517843E+02 -0.802683285E+00 -0.126257064E+01
     4
 # iter = 41500  time[fs]=41.50000
   C -0.323707192E+01  0.121279235E+00 -0.415001724E-01
   C  0.308548107E+01  0.770008644E-01  0.480736006E-01
   H -0.167704603E+02 -0.102563177E+01  0.181866687E+01
   H  0.162973808E+02 -0.819593011E+00 -0.128918487E+01
     4
 # iter = 42000  time[fs]=42.00000
   C -0.331726017E+01  0.124471081E+00 -0.425913985E-01
   C  0.316138182E+01  0.787821064E-01  0.504331150E-01
   H -0.171274332E+02 -0.104634102E+01  0.185847749E+01
   H  0.166432925E+02 -0.836521114E+00 -0.131582853E+01
     4
 # iter = 42500  time[fs]=42.50000
   C -0.339774572E+01  0.127666848E+00 -0.436883632E-01
   C  0.323757897E+01  0.805628256E-01  0.527981551E-01
   H -0.174846930E+02 -0.106706883E+01  0.189832349E+01
   H  0.169895085E+02 -0.853464816E+00 -0.134249840E+01
     4
 # iter = 43000  time[fs]=43.00000
   C -0.347851463E+01  0.130866365E+00 -0.447908814E-01
   C  0.331405858E+01  0.823430296E-01  0.551685139E-01
   H -0.178422286E+02 -0.108781455E+01  0.193820342E+01
   H  0.173360168E+02 -0.870423586E+00 -0.136919355E+01
     4
 # iter = 43500  time[fs]=43.50000
   C -0.355955399E+01  0.134069330E+00 -0.458989155E-01
   C  0.339080749E+01  0.841225877E-01  0.575438552E-01
   H -0.182000298E+02 -0.110857837E+01  0.197811510E+01
   H  0.176828050E+02 -0.887397716E+00 -0.139591388E+01
     4
 # iter = 44000  time[fs]=44.00000
   C -0.364085168E+01  0.137275543E+00 -0.470123440E-01
   C  0.346781347E+01  0.859014598E-01  0.599239428E-01
   H -0.185580871E+02 -0.112935997E+01  0.201805698E+01
   H  0.180298620E+02 -0.904387006E+00 -0.142265882E+01
     4
 # iter = 44500  time[fs]=44.50000
   C -0.372239622E+01  0.140484910E+00 -0.481309556E-01
   C  0.354506514E+01  0.876797020E-01  0.623086453E-01
   H -0.189163905E+02 -0.115015852E+01  0.205802812E+01
   H  0.183771778E+02 -0.921390732E+00 -0.144942731E+01
     4
 # iter = 45000  time[fs]=45.00000
   C -0.380417684E+01  0.143697350E+00 -0.492545373E-01
   C  0.362255186E+01  0.894573788E-01  0.646978476E-01
   H -0.192749307E+02 -0.117097318E+01  0.209802767E+01
   H  0.187247433E+02 -0.938408148E+00 -0.147621827E+01
     4
 # iter = 45500  time[fs]=45.50000
   C -0.388618345E+01  0.146912759E+00 -0.503829172E-01
   C  0.370026359E+01  0.912345204E-01  0.670914087E-01
   H -0.196336992E+02 -0.119180334E+01  0.213805468E+01
   H  0.190725492E+02 -0.955438721E+00 -0.150303086E+01
     4
 # iter = 46000  time[fs]=46.00000
   C -0.396840659E+01  0.150131018E+00 -0.515159493E-01
   C  0.377819089E+01  0.930111374E-01  0.694891754E-01
   H -0.199926878E+02 -0.121264850E+01  0.217810813E+01
   H  0.194205870E+02 -0.972482052E+00 -0.152986439E+01
     4
 # iter = 46500  time[fs]=46.50000
   C -0.405083736E+01  0.153352018E+00 -0.526534905E-01
   C  0.385632486E+01  0.947872432E-01  0.718910044E-01
   H -0.203518888E+02 -0.123350818E+01  0.221818707E+01
   H  0.197688486E+02 -0.989537742E+00 -0.155671818E+01
     4
 # iter = 47000  time[fs]=47.00000
   C -0.413346736E+01  0.156575663E+00 -0.537953961E-01
   C  0.393465715E+01  0.965628584E-01  0.742967667E-01
   H -0.207112950E+02 -0.125438189E+01  0.225829066E+01
   H  0.201173263E+02 -0.100660537E+01 -0.158359155E+01
     4
 # iter = 47500  time[fs]=47.50000
   C -0.421628867E+01  0.159801865E+00 -0.549415254E-01
   C  0.401317986E+01  0.983380050E-01  0.767063409E-01
   H -0.210708993E+02 -0.127526914E+01  0.229841810E+01
   H  0.204660126E+02 -0.102368452E+01 -0.161048384E+01
     4
 # iter = 48000  time[fs]=48.00000
   C -0.429929382E+01  0.163030538E+00 -0.560917452E-01
   C  0.409188556E+01  0.100112702E+00  0.791196095E-01
   H -0.214306952E+02 -0.129616948E+01  0.233856861E+01
   H  0.208149008E+02 -0.104077480E+01 -0.163739441E+01
     4
 # iter = 48500  time[fs]=48.50000
   C -0.438247574E+01  0.166261597E+00 -0.572459299E-01
   C  0.417076721E+01  0.101886967E+00  0.815364579E-01
   H -0.217906764E+02 -0.131708248E+01  0.237874146E+01
   H  0.211639842E+02 -0.105787587E+01 -0.166432268E+01
     4
 # iter = 49000  time[fs]=49.00000
   C -0.446582777E+01  0.169494966E+00 -0.584039590E-01
   C  0.424981817E+01  0.103660815E+00  0.839567767E-01
   H -0.221508369E+02 -0.133800773E+01  0.241893595E+01
   H  0.215132564E+02 -0.107498738E+01 -0.169126810E+01
     4
 # iter = 49500  time[fs]=49.50000
   C -0.454934358E+01  0.172730566E+00 -0.595657168E-01
   C  0.432903214E+01  0.105434261E+00  0.863804612E-01
   H -0.225111710E+02 -0.135894487E+01  0.245915139E+01
   H  0.218627115E+02 -0.109210900E+01 -0.171823013E+01
     4
 # iter = 50000  time[fs]=50.00000
   C -0.463301719E+01  0.175968329E+00 -0.607310923E-01
   C  0.440840316E+01  0.107207322E+00  0.888074114E-01
   H -0.228716733E+02 -0.137989350E+01  0.249938716E+01
   H  0.222123438E+02 -0.110924042E+01 -0.174520826E+01
     4
 # iter = 50500  time[fs]=50.50000
   C -0.471684292E+01  0.179208185E+00 -0.618999788E-01
   C  0.448792557E+01  0.108980011E+00  0.912375315E-01
   H -0.232323386E+02 -0.140085330E+01  0.253964264E+01
   H  0.225621478E+02 -0.112638134E+01 -0.177220202E+01
     4
 # iter = 51000  time[fs]=51.00000
   C -0.480081540E+01  0.182450069E+00 -0.630722744E-01
   C  0.456759402E+01  0.110752341E+00  0.936707292E-01
   H -0.235931619E+02 -0.142182391E+01  0.257991725E+01
   H  0.229121183E+02 -0.114353148E+01 -0.179921092E+01
     4
 # iter = 51500  time[fs]=51.50000
   C -0.488492950E+01  0.185693918E+00 -0.642478813E-01
   C  0.464740342E+01  0.112524326E+00  0.961069161E-01
   H -0.239541386E+02 -0.144280501E+01  0.262021044E+01
   H  0.232622504E+02 -0.116069057E+01 -0.182623453E+01
     4
 # iter = 52000  time[fs]=52.00000
   C -0.496918037E+01  0.188939674E+00 -0.654267054E-01
   C  0.472734892E+01  0.114295978E+00  0.985460073E-01
   H -0.243152640E+02 -0.146379631E+01  0.266052166E+01
   H  0.236125392E+02 -0.117785834E+01 -0.185327243E+01
     4
 # iter = 52500  time[fs]=52.50000
   C -0.505356340E+01  0.192187280E+00 -0.666086565E-01
   C  0.480742593E+01  0.116067309E+00  0.100987921E+00
   H -0.246765340E+02 -0.148479751E+01  0.270085041E+01
   H  0.239629802E+02 -0.119503455E+01 -0.188032420E+01
     4
 # iter = 53000  time[fs]=53.00000
   C -0.513807417E+01  0.195436680E+00 -0.677936481E-01
   C  0.488763006E+01  0.117838330E+00  0.103432580E+00
   H -0.250379443E+02 -0.150580833E+01  0.274119620E+01
   H  0.243135692E+02 -0.121221896E+01 -0.190738946E+01
     4
 # iter = 53500  time[fs]=53.50000
   C -0.522270851E+01  0.198687823E+00 -0.689815969E-01
   C  0.496795714E+01  0.119609051E+00  0.105879908E+00
   H -0.253994910E+02 -0.152682850E+01  0.278155856E+01
   H  0.246643018E+02 -0.122941134E+01 -0.193446784E+01
     4
 # iter = 54000  time[fs]=54.00000
   C -0.530746242E+01  0.201940658E+00 -0.701724227E-01
   C  0.504840320E+01  0.121379483E+00  0.108329833E+00
   H -0.257611702E+02 -0.154785775E+01  0.282193704E+01
   H  0.250151741E+02 -0.124661148E+01 -0.196155897E+01
     4
 # iter = 54500  time[fs]=54.50000
   C -0.539233209E+01  0.205195139E+00 -0.713660488E-01
   C  0.512896445E+01  0.123149635E+00  0.110782285E+00
   H -0.261229784E+02 -0.156889586E+01  0.286233120E+01
   H  0.253661822E+02 -0.126381915E+01 -0.198866251E+01
     4
 # iter = 55000  time[fs]=55.00000
   C -0.547731389E+01  0.208451219E+00 -0.725624010E-01
   C  0.520963727E+01  0.124919518E+00  0.113237198E+00
   H -0.264849121E+02 -0.158994256E+01  0.290274063E+01
   H  0.257173226E+02 -0.128103417E+01 -0.201577814E+01
     4
 # iter = 55500  time[fs]=55.50000
   C -0.556240435E+01  0.211708853E+00 -0.737614080E-01
   C  0.529041821E+01  0.126689140E+00  0.115694507E+00
   H -0.268469678E+02 -0.161099765E+01  0.294316494E+01
   H  0.260685915E+02 -0.129825633E+01 -0.204290553E+01
     4
 # iter = 56000  time[fs]=56.00000
   C -0.564760016E+01  0.214968000E+00 -0.749630013E-01
   C  0.537130395E+01  0.128458509E+00  0.118154149E+00
   H -0.272091424E+02 -0.163206089E+01  0.298360373E+01
   H  0.264199857E+02 -0.131548546E+01 -0.207004438E+01
     4
 # iter = 56500  time[fs]=56.50000
   C -0.573289813E+01  0.218228619E+00 -0.761671148E-01
   C  0.545229135E+01  0.130227633E+00  0.120616066E+00
   H -0.275714328E+02 -0.165313209E+01  0.302405665E+01
   H  0.267715020E+02 -0.133272136E+01 -0.209719440E+01
     4
 # iter = 57000  time[fs]=57.00000
   C -0.581829525E+01  0.221490670E+00 -0.773736848E-01
   C  0.553337738E+01  0.131996521E+00  0.123080200E+00
   H -0.279338359E+02 -0.167421103E+01  0.306452333E+01
   H  0.271231370E+02 -0.134996388E+01 -0.212435531E+01
     4
 # iter = 57500  time[fs]=57.50000
   C -0.590378860E+01  0.224754117E+00 -0.785826499E-01
   C  0.561455916E+01  0.133765181E+00  0.125546494E+00
   H -0.282963490E+02 -0.169529752E+01  0.310500343E+01
   H  0.274748879E+02 -0.136721284E+01 -0.215152684E+01
     4
 # iter = 58000  time[fs]=58.00000
   C -0.598937541E+01  0.228018923E+00 -0.797939510E-01
   C  0.569583391E+01  0.135533618E+00  0.128014896E+00
   H -0.286589692E+02 -0.171639138E+01  0.314549663E+01
   H  0.278267517E+02 -0.138446808E+01 -0.217870871E+01
     4
 # iter = 58500  time[fs]=58.50000
   C -0.607505300E+01  0.231285053E+00 -0.810075311E-01
   C  0.577719898E+01  0.137301840E+00  0.130485354E+00
   H -0.290216940E+02 -0.173749242E+01  0.318600260E+01
   H  0.281787256E+02 -0.140172945E+01 -0.220590069E+01
     4
 # iter = 59000  time[fs]=59.00000
   C -0.616081882E+01  0.234552475E+00 -0.822233349E-01
   C  0.585865183E+01  0.139069855E+00  0.132957819E+00
   H -0.293845207E+02 -0.175860047E+01  0.322652105E+01
   H  0.285308069E+02 -0.141899681E+01 -0.223310253E+01
     4
 # iter = 59500  time[fs]=59.50000
   C -0.624667042E+01  0.237821155E+00 -0.834413094E-01
   C  0.594019000E+01  0.140837667E+00  0.135432241E+00
   H -0.297474469E+02 -0.177971536E+01  0.326705167E+01
   H  0.288829931E+02 -0.143627000E+01 -0.226031399E+01
     4
 # iter = 60000  time[fs]=60.00000
   C -0.633260545E+01  0.241091062E+00 -0.846614032E-01
   C  0.602181117E+01  0.142605283E+00  0.137908575E+00
   H -0.301104702E+02 -0.180083693E+01  0.330759419E+01
   H  0.292352815E+02 -0.145354890E+01 -0.228753485E+01
     4
 # iter = 60500  time[fs]=60.50000
   C -0.641862163E+01  0.244362168E+00 -0.858835667E-01
   C  0.610351308E+01  0.144372710E+00  0.140386775E+00
   H -0.304735883E+02 -0.182196502E+01  0.334814832E+01
   H  0.295876699E+02 -0.147083337E+01 -0.231476490E+01
     4
 # iter = 61000  time[fs]=61.00000
   C -0.650471681E+01  0.247634442E+00 -0.871077521E-01
   C  0.618529356E+01  0.146139952E+00  0.142866799E+00
   H -0.308367989E+02 -0.184309949E+01  0.338871381E+01
   H  0.299401559E+02 -0.148812327E+01 -0.234200391E+01
     4
 # iter = 61500  time[fs]=61.50000
   C -0.659088889E+01  0.250907857E+00 -0.883339129E-01
   C  0.626715054E+01  0.147907015E+00  0.145348605E+00
   H -0.312001001E+02 -0.186424018E+01  0.342929039E+01
   H  0.302927371E+02 -0.150541850E+01 -0.236925169E+01
     4
 # iter = 62000  time[fs]=62.00000
   C -0.667713587E+01  0.254182386E+00 -0.895620045E-01
   C  0.634908201E+01  0.149673904E+00  0.147832151E+00
   H -0.315634896E+02 -0.188538696E+01  0.346987781E+01
   H  0.306454115E+02 -0.152271892E+01 -0.239650805E+01
     4
 # iter = 62500  time[fs]=62.50000
   C -0.676345580E+01  0.257458003E+00 -0.907919834E-01
   C  0.643108606E+01  0.151440625E+00  0.150317399E+00
   H -0.319269655E+02 -0.190653969E+01  0.351047585E+01
   H  0.309981769E+02 -0.154002442E+01 -0.242377278E+01
     4
 # iter = 63000  time[fs]=63.00000
   C -0.684984684E+01  0.260734683E+00 -0.920238079E-01
   C  0.651316083E+01  0.153207181E+00  0.152804311E+00
   H -0.322905259E+02 -0.192769824E+01  0.355108426E+01
   H  0.313510314E+02 -0.155733488E+01 -0.245104571E+01
     4
 # iter = 63500  time[fs]=63.50000
   C -0.693630718E+01  0.264012401E+00 -0.932574372E-01
   C  0.659530454E+01  0.154973578E+00  0.155292850E+00
   H -0.326541689E+02 -0.194886247E+01  0.359170283E+01
   H  0.317039729E+02 -0.157465021E+01 -0.247832666E+01
     4
 # iter = 64000  time[fs]=64.00000
   C -0.702283510E+01  0.267291135E+00 -0.944928322E-01
   C  0.667751547E+01  0.156739821E+00  0.157782981E+00
   H -0.330178926E+02 -0.197003228E+01  0.363233133E+01
   H  0.320569995E+02 -0.159197030E+01 -0.250561546E+01
     4
 # iter = 64500  time[fs]=64.50000
   C -0.710942894E+01  0.270570862E+00 -0.957299548E-01
   C  0.675979196E+01  0.158505912E+00  0.160274669E+00
   H -0.333816955E+02 -0.199120754E+01  0.367296955E+01
   H  0.324101094E+02 -0.160929504E+01 -0.253291194E+01
     4
 # iter = 65000  time[fs]=65.00000
   C -0.719608709E+01  0.273851559E+00 -0.969687682E-01
   C  0.684213242E+01  0.160271857E+00  0.162767882E+00
   H -0.337455756E+02 -0.201238813E+01  0.371361730E+01
   H  0.327633008E+02 -0.162662433E+01 -0.256021593E+01
     4
 # iter = 65500  time[fs]=65.50000
   C -0.728280801E+01  0.277133206E+00 -0.982092366E-01
   C  0.692453530E+01  0.162037659E+00  0.165262585E+00
   H -0.341095315E+02 -0.203357394E+01  0.375427437E+01
   H  0.331165720E+02 -0.164395809E+01 -0.258752729E+01
     4
 # iter = 66000  time[fs]=66.00000
   C -0.736959019E+01  0.280415782E+00 -0.994513254E-01
   C  0.700699911E+01  0.163803323E+00  0.167758749E+00
   H -0.344735615E+02 -0.205476487E+01  0.379494057E+01
   H  0.334699213E+02 -0.166129621E+01 -0.261484587E+01
     4
 # iter = 66500  time[fs]=66.50000
   C -0.745643221E+01  0.283699266E+00 -0.100695001E+00
   C  0.708952243E+01  0.165568852E+00  0.170256343E+00
   H -0.348376641E+02 -0.207596081E+01  0.383561573E+01
   H  0.338233471E+02 -0.167863861E+01 -0.264217150E+01
     4
 # iter = 67000  time[fs]=67.00000
   C -0.754333265E+01  0.286983641E+00 -0.101940231E+00
   C  0.717210387E+01  0.167334249E+00  0.172755338E+00
   H -0.352018379E+02 -0.209716165E+01  0.387629965E+01
   H  0.341768479E+02 -0.169598521E+01 -0.266950406E+01
     4
 # iter = 67500  time[fs]=67.50000
   C -0.763029019E+01  0.290268887E+00 -0.103186984E+00
   C  0.725474208E+01  0.169099518E+00  0.175255704E+00
   H -0.355660812E+02 -0.211836731E+01  0.391699216E+01
   H  0.345304220E+02 -0.171333591E+01 -0.269684341E+01
     4
 # iter = 68000  time[fs]=68.00000
   C -0.771730351E+01  0.293554985E+00 -0.104435229E+00
   C  0.733743577E+01  0.170864662E+00  0.177757415E+00
   H -0.359303929E+02 -0.213957767E+01  0.395769310E+01
   H  0.348840681E+02 -0.173069064E+01 -0.272418940E+01
     4
 # iter = 68500  time[fs]=68.50000
   C -0.780437136E+01  0.296841920E+00 -0.105684936E+00
   C  0.742018369E+01  0.172629685E+00  0.180260443E+00
   H -0.362947714E+02 -0.216079266E+01  0.399840229E+01
   H  0.352377847E+02 -0.174804931E+01 -0.275154191E+01
     4
 # iter = 69000  time[fs]=69.00000
   C -0.789149252E+01  0.300129673E+00 -0.106936077E+00
   C  0.750298463E+01  0.174394589E+00  0.182764762E+00
   H -0.366592155E+02 -0.218201218E+01  0.403911959E+01
   H  0.355915704E+02 -0.176541186E+01 -0.277890082E+01
     4
 # iter = 69500  time[fs]=69.50000
   C -0.797866582E+01  0.303418228E+00 -0.108188623E+00
   C  0.758583742E+01  0.176159378E+00  0.185270347E+00
   H -0.370237240E+02 -0.220323614E+01  0.407984483E+01
   H  0.359454239E+02 -0.178277820E+01 -0.280626600E+01
     4
 # iter = 70000  time[fs]=70.00000
   C -0.806589011E+01  0.306707568E+00 -0.109442547E+00
   C  0.766874092E+01  0.177924054E+00  0.187777174E+00
   H -0.373882954E+02 -0.222446445E+01  0.412057787E+01
   H  0.362993438E+02 -0.180014827E+01 -0.283363733E+01
     4
 # iter = 70500  time[fs]=70.50000
   C -0.815316430E+01  0.309997680E+00 -0.110697823E+00
   C  0.775169404E+01  0.179688620E+00  0.190285218E+00
   H -0.377529287E+02 -0.224569705E+01  0.416131856E+01
   H  0.366533288E+02 -0.181752199E+01 -0.286101469E+01
     4
 # iter = 71000  time[fs]=71.00000
   C -0.824048731E+01  0.313288547E+00 -0.111954425E+00
   C  0.783469570E+01  0.181453079E+00  0.192794455E+00
   H -0.381176227E+02 -0.226693383E+01  0.420206675E+01
   H  0.370073778E+02 -0.183489929E+01 -0.288839798E+01
     4
 # iter = 71500  time[fs]=71.50000
   C -0.832785811E+01  0.316580154E+00 -0.113212328E+00
   C  0.791774489E+01  0.183217434E+00  0.195304864E+00
   H -0.384823763E+02 -0.228817474E+01  0.424282231E+01
   H  0.373614896E+02 -0.185228011E+01 -0.291578709E+01
     4
 # iter = 72000  time[fs]=72.00000
   C -0.841527569E+01  0.319872488E+00 -0.114471508E+00
   C  0.800084061E+01  0.184981686E+00  0.197816423E+00
   H -0.388471882E+02 -0.230941968E+01  0.428358510E+01
   H  0.377156629E+02 -0.186966438E+01 -0.294318189E+01
     4
 # iter = 72500  time[fs]=72.50000
   C -0.850273909E+01  0.323165535E+00 -0.115731940E+00
   C  0.808398188E+01  0.186745839E+00  0.200329110E+00
   H -0.392120575E+02 -0.233066859E+01  0.432435500E+01
   H  0.380698966E+02 -0.188705205E+01 -0.297058231E+01
     4
 # iter = 73000  time[fs]=73.00000
   C -0.859024736E+01  0.326459281E+00 -0.116993602E+00
   C  0.816716777E+01  0.188509895E+00  0.202842904E+00
   H -0.395769831E+02 -0.235192140E+01  0.436513187E+01
   H  0.384241897E+02 -0.190444304E+01 -0.299798822E+01
     4
 # iter = 73500  time[fs]=73.50000
   C -0.867779959E+01  0.329753712E+00 -0.118256472E+00
   C  0.825039737E+01  0.190273856E+00  0.205357785E+00
   H -0.399419640E+02 -0.237317803E+01  0.440591559E+01
   H  0.387785410E+02 -0.192183730E+01 -0.302539954E+01
     4
 # iter = 74000  time[fs]=74.00000
   C -0.876539489E+01  0.333048818E+00 -0.119520528E+00
   C  0.833366979E+01  0.192037724E+00  0.207873733E+00
   H -0.403069991E+02 -0.239443842E+01  0.444670604E+01
   H  0.391329495E+02 -0.193923477E+01 -0.305281617E+01
     4
 # iter = 74500  time[fs]=74.50000
   C -0.885303239E+01  0.336344584E+00 -0.120785748E+00
   C  0.841698418E+01  0.193801501E+00  0.210390729E+00
   H -0.406720876E+02 -0.241570250E+01  0.448750311E+01
   H  0.394874142E+02 -0.195663539E+01 -0.308023802E+01
     4
 # iter = 75000  time[fs]=75.00000
   C -0.894071126E+01  0.339641000E+00 -0.122052112E+00
   C  0.850033971E+01  0.195565190E+00  0.212908754E+00
   H -0.410372284E+02 -0.243697020E+01  0.452830667E+01
   H  0.398419340E+02 -0.197403912E+01 -0.310766499E+01
     4
 # iter = 75500  time[fs]=75.50000
   C -0.902843069E+01  0.342938053E+00 -0.123319599E+00
   C  0.858373557E+01  0.197328792E+00  0.215427791E+00
   H -0.414024207E+02 -0.245824147E+01  0.456911662E+01
   H  0.401965081E+02 -0.199144589E+01 -0.313509700E+01
     4
 # iter = 76000  time[fs]=76.00000
   C -0.911618990E+01  0.346235731E+00 -0.124588191E+00
   C  0.866717097E+01  0.199092310E+00  0.217947822E+00
   H -0.417676636E+02 -0.247951624E+01  0.460993285E+01
   H  0.405511355E+02 -0.200885565E+01 -0.316253396E+01
     4
 # iter = 76500  time[fs]=76.50000
   C -0.920398811E+01  0.349534025E+00 -0.125857867E+00
   C  0.875064515E+01  0.200855745E+00  0.220468828E+00
   H -0.421329561E+02 -0.250079446E+01  0.465075525E+01
   H  0.409058153E+02 -0.202626836E+01 -0.318997579E+01
     4
 # iter = 77000  time[fs]=77.00000
   C -0.929182457E+01  0.352832922E+00 -0.127128610E+00
   C  0.883415738E+01  0.202619100E+00  0.222990794E+00
   H -0.424982975E+02 -0.252207606E+01  0.469158372E+01
   H  0.412605465E+02 -0.204368396E+01 -0.321742240E+01
     4
 # iter = 77500  time[fs]=77.50000
   C -0.937969858E+01  0.356132413E+00 -0.128400401E+00
   C  0.891770692E+01  0.204382375E+00  0.225513703E+00
   H -0.428636869E+02 -0.254336099E+01  0.473241815E+01
   H  0.416153283E+02 -0.206110241E+01 -0.324487372E+01
     4
 # iter = 78000  time[fs]=78.00000
   C -0.946760941E+01  0.359432487E+00 -0.129673222E+00
   C  0.900129309E+01  0.206145573E+00  0.228037539E+00
   H -0.432291236E+02 -0.256464919E+01  0.477325846E+01
   H  0.419701599E+02 -0.207852365E+01 -0.327232967E+01
     4
 # iter = 78500  time[fs]=78.50000
   C -0.955555639E+01  0.362733135E+00 -0.130947056E+00
   C  0.908491519E+01  0.207908695E+00  0.230562286E+00
   H -0.435946066E+02 -0.258594061E+01  0.481410454E+01
   H  0.423250404E+02 -0.209594764E+01 -0.329979017E+01
     4
 # iter = 79000  time[fs]=79.00000
   C -0.964353886E+01  0.366034345E+00 -0.132221887E+00
   C  0.916857257E+01  0.209671743E+00  0.233087929E+00
   H -0.439601354E+02 -0.260723519E+01  0.485495630E+01
   H  0.426799690E+02 -0.211337434E+01 -0.332725514E+01
     4
 # iter = 79500  time[fs]=79.50000
   C -0.973155615E+01  0.369336110E+00 -0.133497697E+00
   C  0.925226458E+01  0.211434719E+00  0.235614454E+00
   H -0.443257090E+02 -0.262853289E+01  0.489581364E+01
   H  0.430349449E+02 -0.213080370E+01 -0.335472453E+01
     4
 # iter = 80000  time[fs]=80.00000
   C -0.981960765E+01  0.372638420E+00 -0.134774472E+00
   C  0.933599060E+01  0.213197623E+00  0.238141846E+00
   H -0.446913268E+02 -0.264983366E+01  0.493667649E+01
   H  0.433899675E+02 -0.214823569E+01 -0.338219825E+01
