     4
 # iter = 25000  time[fs]=25.00000
   C -0.103287237E+01  0.225560058E-01  0.294619077E-01
   C  0.967491096E+00  0.225176123E-02 -0.247805805E-01
   H -0.533359187E+01 -0.456837688E+00  0.464259634E+00
   H  0.525733310E+01 -0.253605787E+00 -0.368360303E+00
     4
 # iter = 25500  time[fs]=25.50000
   C -0.108157579E+01  0.232854180E-01  0.284536892E-01
   C  0.100545977E+01  0.154593497E-02 -0.247623352E-01
   H -0.567731563E+01 -0.494312862E+00  0.486288673E+00
   H  0.556817908E+01 -0.277660574E+00 -0.397599940E+00
     4
 # iter = 26000  time[fs]=26.00000
   C -0.113403206E+01  0.232203769E-01  0.266452786E-01
   C  0.104520171E+01 -0.234054112E-03 -0.258801483E-01
   H -0.603157942E+01 -0.537674372E+00  0.503378145E+00
   H  0.587930186E+01 -0.307423871E+00 -0.432683244E+00
     4
 # iter = 26500  time[fs]=26.50000
   C -0.118744755E+01  0.249170369E-01  0.265904104E-01
   C  0.108968485E+01  0.109107055E-03 -0.249263449E-01
   H -0.637970352E+01 -0.570782860E+00  0.531557133E+00
   H  0.620618643E+01 -0.326773096E+00 -0.457472661E+00
     4
 # iter = 27000  time[fs]=27.00000
   C -0.124147628E+01  0.284966920E-01  0.284081291E-01
   C  0.113885198E+01  0.273290628E-02 -0.217347862E-01
   H -0.672040362E+01 -0.592796797E+00  0.571577297E+00
   H  0.654909455E+01 -0.334884128E+00 -0.471131017E+00
     4
 # iter = 27500  time[fs]=27.50000
   C -0.129781932E+01  0.320482156E-01  0.301853223E-01
   C  0.119012404E+01  0.525733056E-02 -0.186783040E-01
   H -0.706524341E+01 -0.615645213E+00  0.611435829E+00
   H  0.689558075E+01 -0.343704570E+00 -0.485594484E+00
     4
 # iter = 28000  time[fs]=28.00000
   C -0.135763734E+01  0.342184757E-01  0.305673573E-01
   C  0.124163401E+01  0.599847991E-02 -0.174348037E-01
   H -0.742234131E+01 -0.647762413E+00  0.642634722E+00
   H  0.723676779E+01 -0.361683937E+00 -0.509302804E+00
     4
 # iter = 28500  time[fs]=28.50000
   C -0.142021519E+01  0.355484631E-01  0.300942521E-01
   C  0.129389451E+01  0.563653679E-02 -0.173190739E-01
   H -0.778796377E+01 -0.685696803E+00  0.668568644E+00
   H  0.757573708E+01 -0.385379713E+00 -0.538805202E+00
     4
 # iter = 29000  time[fs]=29.00000
   C -0.148406187E+01  0.373715753E-01  0.300988143E-01
   C  0.134842188E+01  0.584044162E-02 -0.166579707E-01
   H -0.815344043E+01 -0.721027679E+00  0.697607860E+00
   H  0.792059359E+01 -0.406377011E+00 -0.565679719E+00
     4
 # iter = 29500  time[fs]=29.50000
   C -0.154857543E+01  0.401464386E-01  0.310393060E-01
   C  0.140565403E+01  0.718661037E-02 -0.148715917E-01
   H -0.851563348E+01 -0.750833689E+00  0.732630039E+00
   H  0.827397765E+01 -0.421761531E+00 -0.587005839E+00
     4
 # iter = 30000  time[fs]=30.00000
   C -0.161427554E+01  0.432229974E-01  0.322654675E-01
   C  0.146465733E+01  0.886695998E-02 -0.127651362E-01
   H -0.887840207E+01 -0.779160931E+00  0.769551403E+00
   H  0.863158900E+01 -0.435588424E+00 -0.606833188E+00
     4
 # iter = 30500  time[fs]=30.50000
   C -0.168176866E+01  0.458767206E-01  0.330527253E-01
   C  0.152441677E+01  0.998012731E-02 -0.112375719E-01
   H -0.924609944E+01 -0.810527044E+00  0.803821189E+00
   H  0.898868405E+01 -0.452383655E+00 -0.629682845E+00
     4
 # iter = 31000  time[fs]=31.00000
   C -0.175096054E+01  0.480953149E-01  0.333889003E-01
   C  0.158481710E+01  0.105136982E-01 -0.102993097E-01
   H -0.961862604E+01 -0.844979727E+00  0.835362000E+00
   H  0.934501798E+01 -0.472200418E+00 -0.655603712E+00
     4
 # iter = 31500  time[fs]=31.50000
   C -0.182128602E+01  0.503477704E-01  0.337432161E-01
   C  0.164635344E+01  0.110558724E-01 -0.936047176E-02
   H -0.999287753E+01 -0.879546970E+00  0.867119112E+00
   H  0.970338988E+01 -0.492070199E+00 -0.681623485E+00
     4
 # iter = 32000  time[fs]=32.00000
   C -0.189236785E+01  0.529242952E-01  0.344061895E-01
   C  0.170930624E+01  0.119713756E-01 -0.805492950E-02
   H -0.103668893E+02 -0.912382504E+00  0.900914880E+00
   H  0.100654909E+02 -0.510150296E+00 -0.705896081E+00
     4
 # iter = 32500  time[fs]=32.50000
   C -0.196425237E+01  0.556995807E-01  0.352528655E-01
   C  0.177344486E+01  0.131059166E-01 -0.653580279E-02
   H -0.107413218E+02 -0.944252341E+00  0.935961944E+00
   H  0.104304136E+02 -0.527211122E+00 -0.729188871E+00
     4
 # iter = 33000  time[fs]=33.00000
   C -0.203712446E+01  0.584170563E-01  0.360270620E-01
   C  0.183838163E+01  0.141411269E-01 -0.512047953E-02
   H -0.111176727E+02 -0.976748958E+00  0.970648662E+00
   H  0.107964378E+02 -0.544849540E+00 -0.753095978E+00
     4
 # iter = 33500  time[fs]=33.50000
   C -0.211099506E+01  0.610007246E-01  0.366531982E-01
   C  0.190396058E+01  0.149839285E-01 -0.390121340E-02
   H -0.114963163E+02 -0.101033233E+01  0.100449770E+01
   H  0.111629882E+02 -0.563528978E+00 -0.778078360E+00
     4
 # iter = 34000  time[fs]=34.00000
   C -0.218569735E+01  0.635582579E-01  0.372393819E-01
   C  0.197026057E+01  0.157704130E-01 -0.274121814E-02
   H -0.118764825E+02 -0.104431032E+01  0.103818540E+01
   H  0.115306536E+02 -0.582559863E+00 -0.803444218E+00
     4
 # iter = 34500  time[fs]=34.50000
   C -0.226107214E+01  0.661950127E-01  0.378914143E-01
   C  0.203736254E+01  0.166336356E-01 -0.150685286E-02
   H -0.122574244E+02 -0.107800678E+01  0.107237353E+01
   H  0.119000164E+02 -0.601268365E+00 -0.828517701E+00
     4
 # iter = 35000  time[fs]=35.00000
   C -0.233707303E+01  0.689082703E-01  0.386070209E-01
   C  0.210521694E+01  0.175715784E-01 -0.199641872E-03
   H -0.126390815E+02 -0.111142570E+01  0.110704500E+01
   H  0.122709864E+02 -0.619660932E+00 -0.853303416E+00
     4
 # iter = 35500  time[fs]=35.50000
   C -0.241371686E+01  0.716362849E-01  0.393248963E-01
   C  0.217370451E+01  0.185084083E-01  0.110499835E-02
   H -0.130217707E+02 -0.114494300E+01  0.114181195E+01
   H  0.126431088E+02 -0.638115879E+00 -0.878178001E+00
     4
 # iter = 36000  time[fs]=36.00000
   C -0.249099648E+01  0.743451200E-01  0.400115373E-01
   C  0.224274429E+01  0.194029130E-01  0.236620745E-02
   H -0.134056406E+02 -0.117876084E+01  0.117646122E+01
   H  0.130161095E+02 -0.656837539E+00 -0.903344249E+00
     4
 # iter = 36500  time[fs]=36.50000
   C -0.256886053E+01  0.770484977E-01  0.406810908E-01
   C  0.231231808E+01  0.202732952E-01  0.360248635E-02
   H -0.137905452E+02 -0.121278294E+01  0.121107904E+01
   H  0.133900186E+02 -0.675731423E+00 -0.928706266E+00
     4
 # iter = 37000  time[fs]=37.00000
   C -0.264724971E+01  0.797711487E-01  0.413587011E-01
   C  0.238242430E+01  0.211514183E-01  0.484595065E-02
   H -0.141762744E+02 -0.124684463E+01  0.124582077E+01
   H  0.137649401E+02 -0.694634516E+00 -0.954099743E+00
     4
 # iter = 37500  time[fs]=37.50000
   C -0.272612662E+01  0.825186986E-01  0.420503948E-01
   C  0.245304014E+01  0.220452140E-01  0.610474557E-02
   H -0.145627424E+02 -0.128090202E+01  0.128072177E+01
   H  0.141408618E+02 -0.713504474E+00 -0.979481143E+00
     4
 # iter = 38000  time[fs]=38.00000
   C -0.280547214E+01  0.852809789E-01  0.427463909E-01
   C  0.252412544E+01  0.229428237E-01  0.736719332E-02
   H -0.149499663E+02 -0.131501105E+01  0.131571814E+01
   H  0.145176760E+02 -0.732398750E+00 -0.100490682E+01
     4
 # iter = 38500  time[fs]=38.50000
   C -0.288526807E+01  0.880492027E-01  0.434382761E-01
   C  0.259564390E+01  0.238340518E-01  0.862325090E-02
   H -0.153379582E+02 -0.134921958E+01  0.135075472E+01
   H  0.148952869E+02 -0.751366590E+00 -0.103042500E+01
     4
 # iter = 39000  time[fs]=39.00000
   C -0.296548966E+01  0.908231723E-01  0.441262123E-01
   C  0.266757186E+01  0.247193707E-01  0.987351991E-02
   H -0.157266793E+02 -0.138352205E+01  0.138583024E+01
   H  0.152736555E+02 -0.770403688E+00 -0.105603044E+01
     4
 # iter = 39500  time[fs]=39.50000
   C -0.304611021E+01  0.936064965E-01  0.448141537E-01
   C  0.273989220E+01  0.256039536E-01  0.111232826E-01
   H -0.161160698E+02 -0.141788946E+01  0.142096738E+01
   H  0.156527697E+02 -0.789482208E+00 -0.108169443E+01
     4
 # iter = 40000  time[fs]=40.00000
   C -0.312710684E+01  0.964006784E-01  0.455039348E-01
   C  0.281258673E+01  0.264902975E-01  0.123751278E-01
   H -0.165060855E+02 -0.145230650E+01  0.145617558E+01
   H  0.160326064E+02 -0.808587909E+00 -0.110740191E+01
     4
 # iter = 40500  time[fs]=40.50000
   C -0.320846099E+01  0.992044105E-01  0.461945661E-01
   C  0.288563523E+01  0.273773471E-01  0.136280770E-01
   H -0.168967026E+02 -0.148677588E+01  0.149144659E+01
   H  0.164131269E+02 -0.827724542E+00 -0.113315587E+01
     4
 # iter = 41000  time[fs]=41.00000
   C -0.329015597E+01  0.102015967E+00  0.468846258E-01
   C  0.295901825E+01  0.282634847E-01  0.148805773E-01
   H -0.172879017E+02 -0.152130334E+01  0.152676958E+01
   H  0.167942923E+02 -0.846898787E+00 -0.115896230E+01
     4
 # iter = 41500  time[fs]=41.50000
   C -0.337217524E+01  0.104834699E+00  0.475737566E-01
   C  0.303271890E+01  0.291484023E-01  0.161323742E-01
   H -0.176796588E+02 -0.155588816E+01  0.156214044E+01
   H  0.171760719E+02 -0.866110826E+00 -0.118482071E+01
     4
 # iter = 42000  time[fs]=42.00000
   C -0.345450273E+01  0.107660695E+00  0.482623265E-01
   C  0.310672233E+01  0.300326798E-01  0.173840921E-01
   H -0.180719471E+02 -0.159052531E+01  0.159755971E+01
   H  0.175584417E+02 -0.885356454E+00 -0.121072628E+01
     4
 # iter = 42500  time[fs]=42.50000
   C -0.353712352E+01  0.110493962E+00  0.489506083E-01
   C  0.318101457E+01  0.309167633E-01  0.186362137E-01
   H -0.184647418E+02 -0.162521057E+01  0.163302741E+01
   H  0.179413784E+02 -0.904632218E+00 -0.123667497E+01
     4
 # iter = 43000  time[fs]=43.00000
   C -0.362002399E+01  0.113334175E+00  0.496385322E-01
   C  0.325558217E+01  0.318006576E-01  0.198887736E-01
   H -0.188580220E+02 -0.165994202E+01  0.166854147E+01
   H  0.183248583E+02 -0.923936958E+00 -0.126266510E+01
     4
 # iter = 43500  time[fs]=43.50000
   C -0.370319152E+01  0.116180902E+00  0.503259113E-01
   C  0.333041238E+01  0.326842097E-01  0.211416426E-01
   H -0.192517685E+02 -0.169471868E+01  0.170409915E+01
   H  0.187088582E+02 -0.943270372E+00 -0.128869583E+01
     4
 # iter = 44000  time[fs]=44.00000
   C -0.378661425E+01  0.119033814E+00  0.510126492E-01
   C  0.340549337E+01  0.335673691E-01  0.223947891E-01
   H -0.196459631E+02 -0.172953916E+01  0.173969837E+01
   H  0.190933568E+02 -0.962631705E+00 -0.131476595E+01
     4
 # iter = 44500  time[fs]=44.50000
   C -0.387028095E+01  0.121892685E+00  0.516987436E-01
   C  0.348081416E+01  0.344501938E-01  0.236482856E-01
   H -0.200405878E+02 -0.176440157E+01  0.177533765E+01
   H  0.194783345E+02 -0.982019710E+00 -0.134087375E+01
     4
 # iter = 45000  time[fs]=45.00000
   C -0.395418108E+01  0.124757313E+00  0.523842059E-01
   C  0.355636445E+01  0.353327507E-01  0.249022100E-01
   H -0.204356258E+02 -0.179930412E+01  0.181101572E+01
   H  0.198637731E+02 -0.100143315E+01 -0.136701757E+01
     4
 # iter = 45500  time[fs]=45.50000
   C -0.403830476E+01  0.127627479E+00  0.530690219E-01
   C  0.363213452E+01  0.362150680E-01  0.261565979E-01
   H -0.208310614E+02 -0.183424526E+01  0.184673115E+01
   H  0.202496550E+02 -0.102087102E+01 -0.139319600E+01
     4
 # iter = 46000  time[fs]=46.00000
   C -0.412264272E+01  0.130502961E+00  0.537531647E-01
   C  0.370811522E+01  0.370971513E-01  0.274114599E-01
   H -0.212268798E+02 -0.186922363E+01  0.188248252E+01
   H  0.206359636E+02 -0.104033250E+01 -0.141940784E+01
     4
 # iter = 46500  time[fs]=46.50000
   C -0.420718622E+01  0.133383551E+00  0.544366141E-01
   C  0.378429794E+01  0.379790092E-01  0.286668073E-01
   H -0.216230670E+02 -0.190423793E+01  0.191826849E+01
   H  0.210226832E+02 -0.105981676E+01 -0.144565192E+01
     4
 # iter = 47000  time[fs]=47.00000
   C -0.429192702E+01  0.136269060E+00  0.551193603E-01
   C  0.386067457E+01  0.388606584E-01  0.299226572E-01
   H -0.220196097E+02 -0.193928690E+01  0.195408784E+01
   H  0.214097989E+02 -0.107932300E+01 -0.147192707E+01
     4
 # iter = 47500  time[fs]=47.50000
   C -0.437685736E+01  0.139159311E+00  0.558013984E-01
   C  0.393723746E+01  0.397421172E-01  0.311790268E-01
   H -0.224164952E+02 -0.197436930E+01  0.198993942E+01
   H  0.217972967E+02 -0.109885043E+01 -0.149823220E+01
     4
 # iter = 48000  time[fs]=48.00000
   C -0.446196988E+01  0.142054135E+00  0.564827237E-01
   C  0.401397939E+01  0.406234007E-01  0.324359286E-01
   H -0.228137117E+02 -0.200948398E+01  0.202582214E+01
   H  0.221851633E+02 -0.111839831E+01 -0.152456627E+01
     4
 # iter = 48500  time[fs]=48.50000
   C -0.454725766E+01  0.144953370E+00  0.571633325E-01
   C  0.409089352E+01  0.415045212E-01  0.336933709E-01
   H -0.232112478E+02 -0.204462985E+01  0.206173494E+01
   H  0.225733860E+02 -0.113796596E+01 -0.155092829E+01
     4
 # iter = 49000  time[fs]=49.00000
   C -0.463271412E+01  0.147856863E+00  0.578432224E-01
   C  0.416797341E+01  0.423854902E-01  0.349513601E-01
   H -0.236090927E+02 -0.207980590E+01  0.209767683E+01
   H  0.229619528E+02 -0.115755272E+01 -0.157731733E+01
     4
 # iter = 49500  time[fs]=49.50000
   C -0.471833306E+01  0.150764469E+00  0.585223930E-01
   C  0.424521292E+01  0.432663186E-01  0.362099016E-01
   H -0.240072362E+02 -0.211501112E+01  0.213364685E+01
   H  0.233508522E+02 -0.117715797E+01 -0.160373252E+01
     4
 # iter = 50000  time[fs]=50.00000
   C -0.480410858E+01  0.153676048E+00  0.592008456E-01
   C  0.432260628E+01  0.441470170E-01  0.374689992E-01
   H -0.244056685E+02 -0.215024459E+01  0.216964411E+01
   H  0.237400735E+02 -0.119678111E+01 -0.163017299E+01
     4
 # iter = 50500  time[fs]=50.50000
   C -0.489003510E+01  0.156591471E+00  0.598785824E-01
   C  0.440014798E+01  0.450275953E-01  0.387286556E-01
   H -0.248043804E+02 -0.218550541E+01  0.220566774E+01
   H  0.241296061E+02 -0.121642157E+01 -0.165663796E+01
     4
 # iter = 51000  time[fs]=51.00000
   C -0.497610731E+01  0.159510611E+00  0.605556065E-01
   C  0.447783280E+01  0.459080625E-01  0.399888720E-01
   H -0.252033629E+02 -0.222079273E+01  0.224171693E+01
   H  0.245194403E+02 -0.123607881E+01 -0.168312665E+01
     4
 # iter = 51500  time[fs]=51.50000
   C -0.506232018E+01  0.162433350E+00  0.612319220E-01
   C  0.455565579E+01  0.467884270E-01  0.412496486E-01
   H -0.256026077E+02 -0.225610573E+01  0.227779088E+01
   H  0.249095666E+02 -0.125575231E+01 -0.170963832E+01
     4
 # iter = 52000  time[fs]=52.00000
   C -0.514866892E+01  0.165359573E+00  0.619075334E-01
   C  0.463361224E+01  0.476686967E-01  0.425109848E-01
   H -0.260021067E+02 -0.229144364E+01  0.231388886E+01
   H  0.252999760E+02 -0.127544158E+01 -0.173617228E+01
     4
 # iter = 52500  time[fs]=52.50000
   C -0.523514898E+01  0.168289172E+00  0.625824463E-01
   C  0.471169766E+01  0.485488789E-01  0.437728791E-01
   H -0.264018522E+02 -0.232680572E+01  0.235001014E+01
   H  0.256906600E+02 -0.129514615E+01 -0.176272786E+01
     4
 # iter = 53000  time[fs]=53.00000
   C -0.532175600E+01  0.171222044E+00  0.632566665E-01
   C  0.478990780E+01  0.494289805E-01  0.450353294E-01
   H -0.268018369E+02 -0.236219126E+01  0.238615404E+01
   H  0.260816103E+02 -0.131486556E+01 -0.178930443E+01
     4
 # iter = 53500  time[fs]=53.50000
   C -0.540848587E+01  0.174158090E+00  0.639302004E-01
   C  0.486823857E+01  0.503090079E-01  0.462983330E-01
   H -0.272020537E+02 -0.239759957E+01  0.242231991E+01
   H  0.264728192E+02 -0.133459939E+01 -0.181590136E+01
     4
 # iter = 54000  time[fs]=54.00000
   C -0.549533464E+01  0.177097215E+00  0.646030547E-01
   C  0.494668612E+01  0.511889671E-01  0.475618865E-01
   H -0.276024958E+02 -0.243303001E+01  0.245850713E+01
   H  0.268642790E+02 -0.135434723E+01 -0.184251808E+01
     4
 # iter = 54500  time[fs]=54.50000
   C -0.558229855E+01  0.180039328E+00  0.652752366E-01
   C  0.502524673E+01  0.520688638E-01  0.488259863E-01
   H -0.280031569E+02 -0.246848196E+01  0.249471508E+01
   H  0.272559826E+02 -0.137410867E+01 -0.186915403E+01
     4
 # iter = 55000  time[fs]=55.00000
   C -0.566937402E+01  0.182984343E+00  0.659467534E-01
   C  0.510391688E+01  0.529487032E-01  0.500906281E-01
   H -0.284040308E+02 -0.250395481E+01  0.253094319E+01
   H  0.276479231E+02 -0.139388333E+01 -0.189580867E+01
     4
 # iter = 55500  time[fs]=55.50000
   C -0.575655760E+01  0.185932177E+00  0.666176126E-01
   C  0.518269321E+01  0.538284902E-01  0.513558075E-01
   H -0.288051115E+02 -0.253944800E+01  0.256719092E+01
   H  0.280400939E+02 -0.141367087E+01 -0.192248147E+01
     4
 # iter = 56000  time[fs]=56.00000
   C -0.584384603E+01  0.188882750E+00  0.672878222E-01
   C  0.526157247E+01  0.547082295E-01  0.526215197E-01
   H -0.292063934E+02 -0.257496097E+01  0.260345774E+01
   H  0.284324887E+02 -0.143347091E+01 -0.194917196E+01
     4
 # iter = 56500  time[fs]=56.50000
   C -0.593123618E+01  0.191835986E+00  0.679573898E-01
   C  0.534055160E+01  0.555879252E-01  0.538877597E-01
   H -0.296078709E+02 -0.261049320E+01  0.263974312E+01
   H  0.288251013E+02 -0.145328313E+01 -0.197587965E+01
     4
 # iter = 57000  time[fs]=57.00000
   C -0.601872503E+01  0.194791812E+00  0.686263237E-01
   C  0.541962764E+01  0.564675816E-01  0.551545222E-01
   H -0.300095390E+02 -0.264604418E+01  0.267604659E+01
   H  0.292179260E+02 -0.147310722E+01 -0.200260410E+01
     4
 # iter = 57500  time[fs]=57.50000
   C -0.610630972E+01  0.197750158E+00  0.692946318E-01
   C  0.549879777E+01  0.573472024E-01  0.564218018E-01
   H -0.304113925E+02 -0.268161342E+01  0.271236767E+01
   H  0.296109572E+02 -0.149294284E+01 -0.202934485E+01
     4
 # iter = 58000  time[fs]=58.00000
   C -0.619398749E+01  0.200710957E+00  0.699623223E-01
   C  0.557805929E+01  0.582267912E-01  0.576895929E-01
   H -0.308134266E+02 -0.271720045E+01  0.274870592E+01
   H  0.300041894E+02 -0.151278972E+01 -0.205610149E+01
     4
 # iter = 58500  time[fs]=58.50000
   C -0.628175571E+01  0.203674142E+00  0.706294035E-01
   C  0.565740959E+01  0.591063512E-01  0.589578899E-01
   H -0.312156367E+02 -0.275280483E+01  0.278506089E+01
   H  0.303976174E+02 -0.153264757E+01 -0.208287361E+01
     4
 # iter = 59000  time[fs]=59.00000
   C -0.636961185E+01  0.206639653E+00  0.712958835E-01
   C  0.573684619E+01  0.599858856E-01  0.602266869E-01
   H -0.316180183E+02 -0.278842611E+01  0.282143218E+01
   H  0.307912364E+02 -0.155251610E+01 -0.210966083E+01
     4
 # iter = 59500  time[fs]=59.50000
   C -0.645755347E+01  0.209607430E+00  0.719617704E-01
   C  0.581636670E+01  0.608653974E-01  0.614959780E-01
   H -0.320205670E+02 -0.282406388E+01  0.285781936E+01
   H  0.311850414E+02 -0.157239505E+01 -0.213646277E+01
     4
 # iter = 60000  time[fs]=60.00000
   C -0.654557824E+01  0.212577413E+00  0.726270725E-01
   C  0.589596883E+01  0.617448892E-01  0.627657575E-01
   H -0.324232788E+02 -0.285971774E+01  0.289422206E+01
   H  0.315790278E+02 -0.159228417E+01 -0.216327907E+01
     4
 # iter = 60500  time[fs]=60.50000
   C -0.663368393E+01  0.215549549E+00  0.732917979E-01
   C  0.597565038E+01  0.626243638E-01  0.640360192E-01
   H -0.328261496E+02 -0.289538729E+01  0.293063991E+01
   H  0.319731912E+02 -0.161218321E+01 -0.219010937E+01
     4
 # iter = 61000  time[fs]=61.00000
   C -0.672186838E+01  0.218523784E+00  0.739559546E-01
   C  0.605540923E+01  0.635038234E-01  0.653067572E-01
   H -0.332291756E+02 -0.293107217E+01  0.296707253E+01
   H  0.323675273E+02 -0.163209193E+01 -0.221695334E+01
     4
 # iter = 61500  time[fs]=61.50000
   C -0.681012952E+01  0.221500065E+00  0.746195507E-01
   C  0.613524335E+01  0.643832705E-01  0.665779655E-01
   H -0.336323531E+02 -0.296677200E+01  0.300351958E+01
   H  0.327620320E+02 -0.165201010E+01 -0.224381067E+01
     4
 # iter = 62000  time[fs]=62.00000
   C -0.689846536E+01  0.224478344E+00  0.752825941E-01
   C  0.621515078E+01  0.652627071E-01  0.678496382E-01
   H -0.340356785E+02 -0.300248645E+01  0.303998073E+01
   H  0.331567012E+02 -0.167193750E+01 -0.227068102E+01
     4
 # iter = 62500  time[fs]=62.50000
   C -0.698687398E+01  0.227458572E+00  0.759450927E-01
   C  0.629512964E+01  0.661421353E-01  0.691217692E-01
   H -0.344391482E+02 -0.303821517E+01  0.307645565E+01
   H  0.335515311E+02 -0.169187393E+01 -0.229756411E+01
     4
 # iter = 63000  time[fs]=63.00000
   C -0.707535354E+01  0.230440704E+00  0.766070544E-01
   C  0.637517810E+01  0.670215569E-01  0.703943526E-01
   H -0.348427591E+02 -0.307395785E+01  0.311294402E+01
   H  0.339465180E+02 -0.171181916E+01 -0.232445964E+01
     4
 # iter = 63500  time[fs]=63.50000
   C -0.716390225E+01  0.233424694E+00  0.772684867E-01
   C  0.645529444E+01  0.679009737E-01  0.716673825E-01
   H -0.352465078E+02 -0.310971415E+01  0.314944555E+01
   H  0.343416582E+02 -0.173177300E+01 -0.235136733E+01
     4
 # iter = 64000  time[fs]=64.00000
   C -0.725251841E+01  0.236410499E+00  0.779293974E-01
   C  0.653547695E+01  0.687803874E-01  0.729408529E-01
   H -0.356503913E+02 -0.314548379E+01  0.318595993E+01
   H  0.347369483E+02 -0.175173527E+01 -0.237828690E+01
     4
 # iter = 64500  time[fs]=64.50000
   C -0.734120037E+01  0.239398079E+00  0.785897939E-01
   C  0.661572402E+01  0.696597995E-01  0.742147581E-01
   H -0.360544064E+02 -0.318126646E+01  0.322248689E+01
   H  0.351323850E+02 -0.177170576E+01 -0.240521809E+01
     4
 # iter = 65000  time[fs]=65.00000
   C -0.742994652E+01  0.242387392E+00  0.792496837E-01
   C  0.669603409E+01  0.705392116E-01  0.754890921E-01
   H -0.364585504E+02 -0.321706188E+01  0.325902615E+01
   H  0.355279649E+02 -0.179168431E+01 -0.243216065E+01
     4
 # iter = 65500  time[fs]=65.50000
   C -0.751875534E+01  0.245378400E+00  0.799090741E-01
   C  0.677640564E+01  0.714186250E-01  0.767638493E-01
   H -0.368628203E+02 -0.325286978E+01  0.329557744E+01
   H  0.359236850E+02 -0.181167074E+01 -0.245911433E+01
     4
 # iter = 66000  time[fs]=66.00000
   C -0.760762533E+01  0.248371065E+00  0.805679723E-01
   C  0.685683721E+01  0.722980410E-01  0.780390240E-01
   H -0.372672135E+02 -0.328868989E+01  0.333214051E+01
   H  0.363195422E+02 -0.183166487E+01 -0.248607889E+01
     4
 # iter = 66500  time[fs]=66.50000
   C -0.769655507E+01  0.251365351E+00  0.812263854E-01
   C  0.693732741E+01  0.731774608E-01  0.793146106E-01
   H -0.376717273E+02 -0.332452195E+01  0.336871511E+01
   H  0.367155335E+02 -0.185166655E+01 -0.251305410E+01
     4
 # iter = 67000  time[fs]=67.00000
   C -0.778554317E+01  0.254361223E+00  0.818843205E-01
   C  0.701787486E+01  0.740568856E-01  0.805906034E-01
   H -0.380763592E+02 -0.336036571E+01  0.340530100E+01
   H  0.371116561E+02 -0.187167561E+01 -0.254003974E+01
     4
 # iter = 67500  time[fs]=67.50000
   C -0.787458830E+01  0.257358646E+00  0.825417844E-01
   C  0.709847825E+01  0.749363164E-01  0.818669969E-01
   H -0.384811066E+02 -0.339622093E+01  0.344189794E+01
   H  0.375079072E+02 -0.189169191E+01 -0.256703558E+01
     4
 # iter = 68000  time[fs]=68.00000
   C -0.796368915E+01  0.260357587E+00  0.831987839E-01
   C  0.717913632E+01  0.758157543E-01  0.831437859E-01
   H -0.388859672E+02 -0.343208737E+01  0.347850570E+01
   H  0.379042842E+02 -0.191171529E+01 -0.259404142E+01
     4
 # iter = 68500  time[fs]=68.50000
   C -0.805284449E+01  0.263358015E+00  0.838553257E-01
   C  0.725984783E+01  0.766952002E-01  0.844209647E-01
   H -0.392909386E+02 -0.346796481E+01  0.351512407E+01
   H  0.383007844E+02 -0.193174561E+01 -0.262105706E+01
     4
 # iter = 69000  time[fs]=69.00000
   C -0.814205310E+01  0.266359899E+00  0.845114164E-01
   C  0.734061160E+01  0.775746550E-01  0.856985283E-01
   H -0.396960186E+02 -0.350385302E+01  0.355175284E+01
   H  0.386974054E+02 -0.195178273E+01 -0.264808229E+01
     4
 # iter = 69500  time[fs]=69.50000
   C -0.823131381E+01  0.269363208E+00  0.851670625E-01
   C  0.742142648E+01  0.784541196E-01  0.869764713E-01
   H -0.401012049E+02 -0.353975179E+01  0.358839179E+01
   H  0.390941447E+02 -0.197182651E+01 -0.267511693E+01
     4
 # iter = 70000  time[fs]=70.00000
   C -0.832062548E+01  0.272367914E+00  0.858222702E-01
   C  0.750229135E+01  0.793335946E-01  0.882547887E-01
   H -0.405064956E+02 -0.357566091E+01  0.362504073E+01
   H  0.394909999E+02 -0.199187682E+01 -0.270216078E+01
     4
 # iter = 70500  time[fs]=70.50000
   C -0.840998703E+01  0.275373987E+00  0.864770459E-01
   C  0.758320514E+01  0.802130810E-01  0.895334752E-01
   H -0.409118884E+02 -0.361158018E+01  0.366169946E+01
   H  0.398879688E+02 -0.201193353E+01 -0.272921367E+01
     4
 # iter = 71000  time[fs]=71.00000
   C -0.849939738E+01  0.278381402E+00  0.871313957E-01
   C  0.766416680E+01  0.810925792E-01  0.908125260E-01
   H -0.413173814E+02 -0.364750941E+01  0.369836779E+01
   H  0.402850490E+02 -0.203199653E+01 -0.275627542E+01
     4
 # iter = 71500  time[fs]=71.50000
   C -0.858885552E+01  0.281390130E+00  0.877853256E-01
   C  0.774517532E+01  0.819720901E-01  0.920919361E-01
   H -0.417229727E+02 -0.368344840E+01  0.373504554E+01
   H  0.406822385E+02 -0.205206568E+01 -0.278334587E+01
     4
 # iter = 72000  time[fs]=72.00000
   C -0.867836043E+01  0.284400147E+00  0.884388416E-01
   C  0.782622973E+01  0.828516141E-01  0.933717007E-01
   H -0.421286604E+02 -0.371939696E+01  0.377173253E+01
   H  0.410795352E+02 -0.207214088E+01 -0.281042484E+01
     4
 # iter = 72500  time[fs]=72.50000
   C -0.876791115E+01  0.287411427E+00  0.890919495E-01
   C  0.790732907E+01  0.837311519E-01  0.946518149E-01
   H -0.425344425E+02 -0.375535492E+01  0.380842858E+01
   H  0.414769369E+02 -0.209222200E+01 -0.283751217E+01
     4
 # iter = 73000  time[fs]=73.00000
   C -0.885750674E+01  0.290423946E+00  0.897446550E-01
   C  0.798847242E+01  0.846107040E-01  0.959322741E-01
   H -0.429403174E+02 -0.379132211E+01  0.384513352E+01
   H  0.418744417E+02 -0.211230893E+01 -0.286460771E+01
     4
 # iter = 73500  time[fs]=73.50000
   C -0.894714630E+01  0.293437681E+00  0.903969638E-01
   C  0.806965888E+01  0.854902709E-01  0.972130737E-01
   H -0.433462834E+02 -0.382729834E+01  0.388184720E+01
   H  0.422720476E+02 -0.213240158E+01 -0.289171130E+01
     4
 # iter = 74000  time[fs]=74.00000
   C -0.903682894E+01  0.296452607E+00  0.910488814E-01
   C  0.815088759E+01  0.863698530E-01  0.984942090E-01
   H -0.437523386E+02 -0.386328346E+01  0.391856945E+01
   H  0.426697529E+02 -0.215249983E+01 -0.291882280E+01
     4
 # iter = 74500  time[fs]=74.50000
   C -0.912655380E+01  0.299468703E+00  0.917004132E-01
   C  0.823215771E+01  0.872494508E-01  0.997756757E-01
   H -0.441584815E+02 -0.389927731E+01  0.395530012E+01
   H  0.430675556E+02 -0.217260358E+01 -0.294594207E+01
     4
 # iter = 75000  time[fs]=75.00000
   C -0.921632004E+01  0.302485948E+00  0.923515646E-01
   C  0.831346842E+01  0.881290647E-01  0.101057469E+00
   H -0.445647105E+02 -0.393527973E+01  0.399203906E+01
   H  0.434654541E+02 -0.219271273E+01 -0.297306895E+01
     4
 # iter = 75500  time[fs]=75.50000
   C -0.930612687E+01  0.305504319E+00  0.930023407E-01
   C  0.839481892E+01  0.890086950E-01  0.102339585E+00
   H -0.449710240E+02 -0.397129056E+01  0.402878611E+01
   H  0.438634464E+02 -0.221282719E+01 -0.300020333E+01
     4
 # iter = 76000  time[fs]=76.00000
   C -0.939597349E+01  0.308523797E+00  0.936527468E-01
   C  0.847620844E+01  0.898883421E-01  0.103622020E+00
   H -0.453774206E+02 -0.400730965E+01  0.406554113E+01
   H  0.442615311E+02 -0.223294686E+01 -0.302734505E+01
     4
 # iter = 76500  time[fs]=76.50000
   C -0.948585914E+01  0.311544361E+00  0.943027879E-01
   C  0.855763624E+01  0.907680064E-01  0.104904768E+00
   H -0.457838987E+02 -0.404333687E+01  0.410230399E+01
   H  0.446597063E+02 -0.225307165E+01 -0.305449401E+01
     4
 # iter = 77000  time[fs]=77.00000
   C -0.957578308E+01  0.314565992E+00  0.949524690E-01
   C  0.863910158E+01  0.916476881E-01  0.106187827E+00
   H -0.461904569E+02 -0.407937207E+01  0.413907455E+01
   H  0.450579707E+02 -0.227320147E+01 -0.308165006E+01
     4
 # iter = 77500  time[fs]=77.50000
   C -0.966574458E+01  0.317588671E+00  0.956017950E-01
   C  0.872060376E+01  0.925273874E-01  0.107471191E+00
   H -0.465970939E+02 -0.411541512E+01  0.417585268E+01
   H  0.454563225E+02 -0.229333624E+01 -0.310881308E+01
     4
 # iter = 78000  time[fs]=78.00000
   C -0.975574295E+01  0.320612380E+00  0.962507706E-01
   C  0.880214208E+01  0.934071048E-01  0.108754857E+00
   H -0.470038081E+02 -0.415146587E+01  0.421263824E+01
   H  0.458547602E+02 -0.231347586E+01 -0.313598296E+01
     4
 # iter = 78500  time[fs]=78.50000
   C -0.984577751E+01  0.323637100E+00  0.968994005E-01
   C  0.888371589E+01  0.942868404E-01  0.110038822E+00
   H -0.474105985E+02 -0.418752421E+01  0.424943112E+01
   H  0.462532825E+02 -0.233362026E+01 -0.316315958E+01
     4
 # iter = 79000  time[fs]=79.00000
   C -0.993584758E+01  0.326662814E+00  0.975476894E-01
   C  0.896532452E+01  0.951665943E-01  0.111323080E+00
   H -0.478174636E+02 -0.422358999E+01  0.428623118E+01
   H  0.466518878E+02 -0.235376936E+01 -0.319034283E+01
     4
 # iter = 79500  time[fs]=79.50000
   C -0.100259525E+02  0.329689505E+00  0.981956418E-01
   C  0.904696734E+01  0.960463669E-01  0.112607629E+00
   H -0.482244021E+02 -0.425966311E+01  0.432303832E+01
   H  0.470505748E+02 -0.237392307E+01 -0.321753259E+01
     4
 # iter = 80000  time[fs]=80.00000
   C -0.101160917E+02  0.332717156E+00  0.988432621E-01
   C  0.912864374E+01  0.969261583E-01  0.113892464E+00
   H -0.486314129E+02 -0.429574343E+01  0.435985240E+01
   H  0.474493420E+02 -0.239408133E+01 -0.324472876E+01
